MODEL 1
REMARK VINA RESULT:      -6.7      0.000      0.000
REMARK  Name = 51137904
REMARK  7 active torsions:
REMARK  status: ('A' for Active; 'I' for Inactive)
REMARK    1  A    between atoms: O_2  and  C_23
REMARK    2  A    between atoms: O_2  and  C_26
REMARK    3  A    between atoms: O_3  and  C_25
REMARK    4  A    between atoms: O_3  and  C_27
REMARK    5  A    between atoms: N_5  and  C_15
REMARK    6  A    between atoms: C_7  and  C_11
REMARK    7  A    between atoms: C_12  and  C_16
REMARK                            x       y       z     vdW  Elec       q    Type
REMARK                         _______ _______ _______ _____ _____    ______ ____
ROOT
ATOM      1  O   UNL     1      -1.748 -10.625  16.711  0.00  0.00    -0.270 OA
ATOM      4  N   UNL     1      -2.888 -11.951  15.184  0.00  0.00    -0.297 N 
ATOM      7  C   UNL     1      -3.770 -12.902  13.189  0.00  0.00    +0.074 C 
ATOM      8  C   UNL     1      -2.254 -13.143  13.248  0.00  0.00    +0.032 C 
ATOM      9  C   UNL     1      -4.100 -12.581  14.653  0.00  0.00    +0.119 C 
ATOM     10  C   UNL     1      -1.764 -12.134  14.279  0.00  0.00    +0.109 C 
ATOM     12  C   UNL     1      -2.770 -11.197  16.341  0.00  0.00    +0.247 C 
ENDROOT
BRANCH   7  11
ATOM      5  N   UNL     1      -4.215 -12.119  10.827  0.00  0.00    -0.330 N 
ATOM      6  N   UNL     1      -4.392 -10.579  12.420  0.00  0.00    -0.232 NA
ATOM     11  C   UNL     1      -4.130 -11.841  12.163  0.00  0.00    +0.115 A 
ATOM     13  C   UNL     1      -4.555 -10.959  10.179  0.00  0.00    +0.069 A 
ATOM     14  C   UNL     1      -4.659 -10.014  11.195  0.00  0.00    +0.089 A 
ATOM     15  C   UNL     1      -3.987 -13.404  10.204  0.00  0.00    +0.150 C 
ATOM     17  C   UNL     1      -4.772 -10.666   8.832  0.00  0.00    +0.028 A 
ATOM     18  C   UNL     1      -5.002  -8.690  10.866  0.00  0.00    +0.030 A 
ATOM     21  C   UNL     1      -5.112  -9.345   8.524  0.00  0.00    +0.002 A 
ATOM     22  C   UNL     1      -5.225  -8.373   9.521  0.00  0.00    +0.002 A 
ENDBRANCH   7  11
BRANCH  12  16
ATOM     16  C   UNL     1      -3.967 -11.056  17.185  0.00  0.00    +0.041 A 
ATOM     19  C   UNL     1      -5.012 -10.224  16.780  0.00  0.00    +0.062 A 
ATOM     20  C   UNL     1      -4.058 -11.754  18.389  0.00  0.00    +0.017 A 
ATOM     23  C   UNL     1      -6.147 -10.091  17.579  0.00  0.00    +0.162 A 
ATOM     24  C   UNL     1      -5.193 -11.621  19.188  0.00  0.00    +0.050 A 
ATOM     25  C   UNL     1      -6.237 -10.789  18.784  0.00  0.00    +0.162 A 
BRANCH  23   2
ATOM      2  O   UNL     1      -7.160  -9.276  17.174  0.00  0.00    -0.491 OA
ATOM     26  C   UNL     1      -7.982  -9.746  16.107  0.00  0.00    +0.277 C 
ENDBRANCH  23   2
BRANCH  25   3
ATOM      3  O   UNL     1      -7.341 -10.668  19.573  0.00  0.00    -0.491 OA
ATOM     27  C   UNL     1      -8.317 -11.705  19.485  0.00  0.00    +0.277 C 
ENDBRANCH  25   3
ENDBRANCH  12  16
TORSDOF 4
ENDMDL
MODEL 2
REMARK VINA RESULT:      -6.0      3.010      7.364
REMARK  Name = 51137904
REMARK  7 active torsions:
REMARK  status: ('A' for Active; 'I' for Inactive)
REMARK    1  A    between atoms: O_2  and  C_23
REMARK    2  A    between atoms: O_2  and  C_26
REMARK    3  A    between atoms: O_3  and  C_25
REMARK    4  A    between atoms: O_3  and  C_27
REMARK    5  A    between atoms: N_5  and  C_15
REMARK    6  A    between atoms: C_7  and  C_11
REMARK    7  A    between atoms: C_12  and  C_16
REMARK                            x       y       z     vdW  Elec       q    Type
REMARK                         _______ _______ _______ _____ _____    ______ ____
ROOT
ATOM      1  O   UNL     1      -4.486 -14.057  15.635  0.00  0.00    -0.270 OA
ATOM      4  N   UNL     1      -4.656 -12.191  17.005  0.00  0.00    -0.297 N 
ATOM      7  C   UNL     1      -5.342 -10.616  18.651  0.00  0.00    +0.074 C 
ATOM      8  C   UNL     1      -4.796 -11.875  19.340  0.00  0.00    +0.032 C 
ATOM      9  C   UNL     1      -4.763 -10.749  17.236  0.00  0.00    +0.119 C 
ATOM     10  C   UNL     1      -4.827 -12.933  18.245  0.00  0.00    +0.109 C 
ATOM     12  C   UNL     1      -4.497 -12.839  15.790  0.00  0.00    +0.247 C 
ENDROOT
BRANCH   7  11
ATOM      5  N   UNL     1      -7.615  -9.867  17.836  0.00  0.00    -0.330 N 
ATOM      6  N   UNL     1      -7.591 -11.058  19.713  0.00  0.00    -0.232 NA
ATOM     11  C   UNL     1      -6.855 -10.529  18.760  0.00  0.00    +0.115 A 
ATOM     13  C   UNL     1      -8.927  -9.975  18.219  0.00  0.00    +0.069 A 
ATOM     14  C   UNL     1      -8.885 -10.722  19.392  0.00  0.00    +0.089 A 
ATOM     15  C   UNL     1      -7.127  -9.174  16.665  0.00  0.00    +0.150 C 
ATOM     17  C   UNL     1     -10.111  -9.496  17.656  0.00  0.00    +0.028 A 
ATOM     18  C   UNL     1     -10.087 -11.021  20.058  0.00  0.00    +0.030 A 
ATOM     21  C   UNL     1     -11.297  -9.803  18.331  0.00  0.00    +0.002 A 
ATOM     22  C   UNL     1     -11.288 -10.551  19.512  0.00  0.00    +0.002 A 
ENDBRANCH   7  11
BRANCH  12  16
ATOM     16  C   UNL     1      -4.347 -12.002  14.589  0.00  0.00    +0.041 A 
ATOM     19  C   UNL     1      -5.474 -11.617  13.861  0.00  0.00    +0.062 A 
ATOM     20  C   UNL     1      -3.078 -11.593  14.178  0.00  0.00    +0.017 A 
ATOM     23  C   UNL     1      -5.332 -10.823  12.724  0.00  0.00    +0.162 A 
ATOM     24  C   UNL     1      -2.936 -10.800  13.040  0.00  0.00    +0.050 A 
ATOM     25  C   UNL     1      -4.063 -10.415  12.313  0.00  0.00    +0.162 A 
BRANCH  23   2
ATOM      2  O   UNL     1      -6.439 -10.454  12.022  0.00  0.00    -0.491 OA
ATOM     26  C   UNL     1      -7.338  -9.549  12.660  0.00  0.00    +0.277 C 
ENDBRANCH  23   2
BRANCH  25   3
ATOM      3  O   UNL     1      -3.911  -9.639  11.203  0.00  0.00    -0.491 OA
ATOM     27  C   UNL     1      -2.584  -9.468  10.709  0.00  0.00    +0.277 C 
ENDBRANCH  25   3
ENDBRANCH  12  16
TORSDOF 4
ENDMDL
MODEL 3
REMARK VINA RESULT:      -5.9     20.733     22.831
REMARK  Name = 51137904
REMARK  7 active torsions:
REMARK  status: ('A' for Active; 'I' for Inactive)
REMARK    1  A    between atoms: O_2  and  C_23
REMARK    2  A    between atoms: O_2  and  C_26
REMARK    3  A    between atoms: O_3  and  C_25
REMARK    4  A    between atoms: O_3  and  C_27
REMARK    5  A    between atoms: N_5  and  C_15
REMARK    6  A    between atoms: C_7  and  C_11
REMARK    7  A    between atoms: C_12  and  C_16
REMARK                            x       y       z     vdW  Elec       q    Type
REMARK                         _______ _______ _______ _____ _____    ______ ____
ROOT
ATOM      1  O   UNL     1     -15.330   0.111  28.774  0.00  0.00    -0.270 OA
ATOM      4  N   UNL     1     -16.713   1.759  27.902  0.00  0.00    -0.297 N 
ATOM      7  C   UNL     1     -17.859   3.250  26.443  0.00  0.00    +0.074 C 
ATOM      8  C   UNL     1     -18.323   1.809  26.177  0.00  0.00    +0.032 C 
ATOM      9  C   UNL     1     -17.227   3.129  27.837  0.00  0.00    +0.119 C 
ATOM     10  C   UNL     1     -17.235   0.952  26.810  0.00  0.00    +0.109 C 
ATOM     12  C   UNL     1     -15.789   1.249  28.801  0.00  0.00    +0.247 C 
ENDROOT
BRANCH   7  11
ATOM      5  N   UNL     1     -17.459   4.295  24.176  0.00  0.00    -0.330 N 
ATOM      6  N   UNL     1     -15.644   3.757  25.341  0.00  0.00    -0.232 NA
ATOM     11  C   UNL     1     -16.958   3.762  25.332  0.00  0.00    +0.115 A 
ATOM     13  C   UNL     1     -16.397   4.658  23.388  0.00  0.00    +0.069 A 
ATOM     14  C   UNL     1     -15.277   4.312  24.138  0.00  0.00    +0.089 A 
ATOM     15  C   UNL     1     -18.857   4.449  23.840  0.00  0.00    +0.150 C 
ATOM     17  C   UNL     1     -16.324   5.241  22.122  0.00  0.00    +0.028 A 
ATOM     18  C   UNL     1     -13.997   4.556  23.609  0.00  0.00    +0.030 A 
ATOM     21  C   UNL     1     -15.043   5.476  21.612  0.00  0.00    +0.002 A 
ATOM     22  C   UNL     1     -13.899   5.141  22.340  0.00  0.00    +0.002 A 
ENDBRANCH   7  11
BRANCH  12  16
ATOM     16  C   UNL     1     -15.308   2.148  29.862  0.00  0.00    +0.041 A 
ATOM     19  C   UNL     1     -16.216   2.732  30.747  0.00  0.00    +0.062 A 
ATOM     20  C   UNL     1     -13.945   2.415  29.985  0.00  0.00    +0.017 A 
ATOM     23  C   UNL     1     -15.760   3.583  31.753  0.00  0.00    +0.162 A 
ATOM     24  C   UNL     1     -13.489   3.266  30.991  0.00  0.00    +0.050 A 
ATOM     25  C   UNL     1     -14.396   3.851  31.875  0.00  0.00    +0.162 A 
BRANCH  23   2
ATOM      2  O   UNL     1     -16.656   4.147  32.611  0.00  0.00    -0.491 OA
ATOM     26  C   UNL     1     -17.502   5.166  32.083  0.00  0.00    +0.277 C 
ENDBRANCH  23   2
BRANCH  25   3
ATOM      3  O   UNL     1     -13.939   4.680  32.855  0.00  0.00    -0.491 OA
ATOM     27  C   UNL     1     -13.831   6.065  32.532  0.00  0.00    +0.277 C 
ENDBRANCH  25   3
ENDBRANCH  12  16
TORSDOF 4
ENDMDL
MODEL 4
REMARK VINA RESULT:      -5.8      3.307      7.612
REMARK  Name = 51137904
REMARK  7 active torsions:
REMARK  status: ('A' for Active; 'I' for Inactive)
REMARK    1  A    between atoms: O_2  and  C_23
REMARK    2  A    between atoms: O_2  and  C_26
REMARK    3  A    between atoms: O_3  and  C_25
REMARK    4  A    between atoms: O_3  and  C_27
REMARK    5  A    between atoms: N_5  and  C_15
REMARK    6  A    between atoms: C_7  and  C_11
REMARK    7  A    between atoms: C_12  and  C_16
REMARK                            x       y       z     vdW  Elec       q    Type
REMARK                         _______ _______ _______ _____ _____    ______ ____
ROOT
ATOM      1  O   UNL     1      -4.534 -13.654   9.943  0.00  0.00    -0.270 OA
ATOM      4  N   UNL     1      -3.504 -11.988  11.189  0.00  0.00    -0.297 N 
ATOM      7  C   UNL     1      -2.628 -10.669  12.966  0.00  0.00    +0.074 C 
ATOM      8  C   UNL     1      -1.832 -11.978  12.854  0.00  0.00    +0.032 C 
ATOM      9  C   UNL     1      -3.311 -10.593  11.593  0.00  0.00    +0.119 C 
ATOM     10  C   UNL     1      -2.738 -12.888  12.036  0.00  0.00    +0.109 C 
ATOM     12  C   UNL     1      -4.348 -12.468  10.200  0.00  0.00    +0.247 C 
ENDROOT
BRANCH   7  11
ATOM      5  N   UNL     1      -3.055 -10.672  15.457  0.00  0.00    -0.330 N 
ATOM      6  N   UNL     1      -4.856 -10.672  14.155  0.00  0.00    -0.232 NA
ATOM     11  C   UNL     1      -3.542 -10.671  14.180  0.00  0.00    +0.115 A 
ATOM     13  C   UNL     1      -4.127 -10.673  16.313  0.00  0.00    +0.069 A 
ATOM     14  C   UNL     1      -5.238 -10.674  15.476  0.00  0.00    +0.089 A 
ATOM     15  C   UNL     1      -1.662 -10.672  15.842  0.00  0.00    +0.150 C 
ATOM     17  C   UNL     1      -4.215 -10.676  17.706  0.00  0.00    +0.028 A 
ATOM     18  C   UNL     1      -6.524 -10.675  16.044  0.00  0.00    +0.030 A 
ATOM     21  C   UNL     1      -5.502 -10.677  18.254  0.00  0.00    +0.002 A 
ATOM     22  C   UNL     1      -6.638 -10.677  17.440  0.00  0.00    +0.002 A 
ENDBRANCH   7  11
BRANCH  12  16
ATOM     16  C   UNL     1      -5.093 -11.479   9.405  0.00  0.00    +0.041 A 
ATOM     19  C   UNL     1      -6.401 -11.142   9.757  0.00  0.00    +0.062 A 
ATOM     20  C   UNL     1      -4.492 -10.877   8.299  0.00  0.00    +0.017 A 
ATOM     23  C   UNL     1      -7.107 -10.205   9.004  0.00  0.00    +0.162 A 
ATOM     24  C   UNL     1      -5.199  -9.939   7.546  0.00  0.00    +0.050 A 
ATOM     25  C   UNL     1      -6.506  -9.603   7.898  0.00  0.00    +0.162 A 
BRANCH  23   2
ATOM      2  O   UNL     1      -8.383  -9.885   9.358  0.00  0.00    -0.491 OA
ATOM     26  C   UNL     1      -8.556  -9.172  10.581  0.00  0.00    +0.277 C 
ENDBRANCH  23   2
BRANCH  25   3
ATOM      3  O   UNL     1      -7.185  -8.685   7.155  0.00  0.00    -0.491 OA
ATOM     27  C   UNL     1      -7.083  -8.796   5.737  0.00  0.00    +0.277 C 
ENDBRANCH  25   3
ENDBRANCH  12  16
TORSDOF 4
ENDMDL
MODEL 5
REMARK VINA RESULT:      -5.8     20.244     21.721
REMARK  Name = 51137904
REMARK  7 active torsions:
REMARK  status: ('A' for Active; 'I' for Inactive)
REMARK    1  A    between atoms: O_2  and  C_23
REMARK    2  A    between atoms: O_2  and  C_26
REMARK    3  A    between atoms: O_3  and  C_25
REMARK    4  A    between atoms: O_3  and  C_27
REMARK    5  A    between atoms: N_5  and  C_15
REMARK    6  A    between atoms: C_7  and  C_11
REMARK    7  A    between atoms: C_12  and  C_16
REMARK                            x       y       z     vdW  Elec       q    Type
REMARK                         _______ _______ _______ _____ _____    ______ ____
ROOT
ATOM      1  O   UNL     1     -16.713   0.395  25.120  0.00  0.00    -0.270 OA
ATOM      4  N   UNL     1     -17.313   2.589  24.657  0.00  0.00    -0.297 N 
ATOM      7  C   UNL     1     -17.567   4.727  23.641  0.00  0.00    +0.074 C 
ATOM      8  C   UNL     1     -18.293   3.666  22.799  0.00  0.00    +0.032 C 
ATOM      9  C   UNL     1     -17.414   4.012  24.991  0.00  0.00    +0.119 C 
ATOM     10  C   UNL     1     -17.692   2.350  23.273  0.00  0.00    +0.109 C 
ATOM     12  C   UNL     1     -16.850   1.565  25.468  0.00  0.00    +0.247 C 
ENDROOT
BRANCH   7  11
ATOM      5  N   UNL     1     -16.264   6.243  22.095  0.00  0.00    -0.330 N 
ATOM      6  N   UNL     1     -15.092   4.672  23.144  0.00  0.00    -0.232 NA
ATOM     11  C   UNL     1     -16.286   5.194  22.972  0.00  0.00    +0.115 A 
ATOM     13  C   UNL     1     -14.969   6.408  21.674  0.00  0.00    +0.069 A 
ATOM     14  C   UNL     1     -14.258   5.416  22.342  0.00  0.00    +0.089 A 
ATOM     15  C   UNL     1     -17.399   7.038  21.683  0.00  0.00    +0.150 C 
ATOM     17  C   UNL     1     -14.378   7.313  20.790  0.00  0.00    +0.028 A 
ATOM     18  C   UNL     1     -12.873   5.305  22.130  0.00  0.00    +0.030 A 
ATOM     21  C   UNL     1     -13.000   7.189  20.592  0.00  0.00    +0.002 A 
ATOM     22  C   UNL     1     -12.258   6.203  21.248  0.00  0.00    +0.002 A 
ENDBRANCH   7  11
BRANCH  12  16
ATOM     16  C   UNL     1     -16.476   1.909  26.848  0.00  0.00    +0.041 A 
ATOM     19  C   UNL     1     -16.428   0.914  27.827  0.00  0.00    +0.062 A 
ATOM     20  C   UNL     1     -16.171   3.229  27.181  0.00  0.00    +0.017 A 
ATOM     23  C   UNL     1     -16.073   1.240  29.135  0.00  0.00    +0.162 A 
ATOM     24  C   UNL     1     -15.816   3.554  28.490  0.00  0.00    +0.050 A 
ATOM     25  C   UNL     1     -15.768   2.560  29.467  0.00  0.00    +0.162 A 
BRANCH  23   2
ATOM      2  O   UNL     1     -16.029   0.261  30.081  0.00  0.00    -0.491 OA
ATOM     26  C   UNL     1     -14.779  -0.397  30.275  0.00  0.00    +0.277 C 
ENDBRANCH  23   2
BRANCH  25   3
ATOM      3  O   UNL     1     -15.419   2.891  30.742  0.00  0.00    -0.491 OA
ATOM     27  C   UNL     1     -14.044   3.184  30.982  0.00  0.00    +0.277 C 
ENDBRANCH  25   3
ENDBRANCH  12  16
TORSDOF 4
ENDMDL
MODEL 6
REMARK VINA RESULT:      -5.6     29.796     31.969
REMARK  Name = 51137904
REMARK  7 active torsions:
REMARK  status: ('A' for Active; 'I' for Inactive)
REMARK    1  A    between atoms: O_2  and  C_23
REMARK    2  A    between atoms: O_2  and  C_26
REMARK    3  A    between atoms: O_3  and  C_25
REMARK    4  A    between atoms: O_3  and  C_27
REMARK    5  A    between atoms: N_5  and  C_15
REMARK    6  A    between atoms: C_7  and  C_11
REMARK    7  A    between atoms: C_12  and  C_16
REMARK                            x       y       z     vdW  Elec       q    Type
REMARK                         _______ _______ _______ _____ _____    ______ ____
ROOT
ATOM      1  O   UNL     1      21.212   8.919  20.738  0.00  0.00    -0.270 OA
ATOM      4  N   UNL     1      21.301   7.498  22.573  0.00  0.00    -0.297 N 
ATOM      7  C   UNL     1      21.954   5.856  24.166  0.00  0.00    +0.074 C 
ATOM      8  C   UNL     1      22.929   7.042  24.219  0.00  0.00    +0.032 C 
ATOM      9  C   UNL     1      20.741   6.471  23.455  0.00  0.00    +0.119 C 
ATOM     10  C   UNL     1      22.691   7.769  22.902  0.00  0.00    +0.109 C 
ATOM     12  C   UNL     1      20.679   8.114  21.498  0.00  0.00    +0.247 C 
ENDROOT
BRANCH   7  11
ATOM      5  N   UNL     1      23.191   3.652  24.228  0.00  0.00    -0.330 N 
ATOM      6  N   UNL     1      22.624   4.401  22.213  0.00  0.00    -0.232 NA
ATOM     11  C   UNL     1      22.585   4.642  23.505  0.00  0.00    +0.115 A 
ATOM     13  C   UNL     1      23.652   2.711  23.344  0.00  0.00    +0.069 A 
ATOM     14  C   UNL     1      23.286   3.202  22.094  0.00  0.00    +0.089 A 
ATOM     15  C   UNL     1      23.325   3.603  25.667  0.00  0.00    +0.150 C 
ATOM     17  C   UNL     1      24.338   1.509  23.526  0.00  0.00    +0.028 A 
ATOM     18  C   UNL     1      23.615   2.462  20.945  0.00  0.00    +0.030 A 
ATOM     21  C   UNL     1      24.657   0.787  22.372  0.00  0.00    +0.002 A 
ATOM     22  C   UNL     1      24.303   1.253  21.103  0.00  0.00    +0.002 A 
ENDBRANCH   7  11
BRANCH  12  16
ATOM     16  C   UNL     1      19.274   7.763  21.235  0.00  0.00    +0.041 A 
ATOM     19  C   UNL     1      18.249   8.577  21.719  0.00  0.00    +0.062 A 
ATOM     20  C   UNL     1      18.967   6.617  20.501  0.00  0.00    +0.017 A 
ATOM     23  C   UNL     1      16.918   8.246  21.469  0.00  0.00    +0.162 A 
ATOM     24  C   UNL     1      17.635   6.286  20.251  0.00  0.00    +0.050 A 
ATOM     25  C   UNL     1      16.611   7.099  20.735  0.00  0.00    +0.162 A 
BRANCH  23   2
ATOM      2  O   UNL     1      15.927   9.048  21.947  0.00  0.00    -0.491 OA
ATOM     26  C   UNL     1      16.173  10.453  21.946  0.00  0.00    +0.277 C 
ENDBRANCH  23   2
BRANCH  25   3
ATOM      3  O   UNL     1      15.314   6.765  20.484  0.00  0.00    -0.491 OA
ATOM     27  C   UNL     1      14.800   7.091  19.194  0.00  0.00    +0.277 C 
ENDBRANCH  25   3
ENDBRANCH  12  16
TORSDOF 4
ENDMDL
MODEL 7
REMARK VINA RESULT:      -5.6     23.696     26.966
REMARK  Name = 51137904
REMARK  7 active torsions:
REMARK  status: ('A' for Active; 'I' for Inactive)
REMARK    1  A    between atoms: O_2  and  C_23
REMARK    2  A    between atoms: O_2  and  C_26
REMARK    3  A    between atoms: O_3  and  C_25
REMARK    4  A    between atoms: O_3  and  C_27
REMARK    5  A    between atoms: N_5  and  C_15
REMARK    6  A    between atoms: C_7  and  C_11
REMARK    7  A    between atoms: C_12  and  C_16
REMARK                            x       y       z     vdW  Elec       q    Type
REMARK                         _______ _______ _______ _____ _____    ______ ____
ROOT
ATOM      1  O   UNL     1      14.561   6.134   2.472  0.00  0.00    -0.270 OA
ATOM      4  N   UNL     1      12.634   7.222   3.175  0.00  0.00    -0.297 N 
ATOM      7  C   UNL     1      10.875   8.144   4.487  0.00  0.00    +0.074 C 
ATOM      8  C   UNL     1      12.184   8.894   4.778  0.00  0.00    +0.032 C 
ATOM      9  C   UNL     1      11.189   7.463   3.147  0.00  0.00    +0.119 C 
ATOM     10  C   UNL     1      13.266   7.956   4.259  0.00  0.00    +0.109 C 
ATOM     12  C   UNL     1      13.358   6.361   2.365  0.00  0.00    +0.247 C 
ENDROOT
BRANCH   7  11
ATOM      5  N   UNL     1       9.851   7.699   6.754  0.00  0.00    -0.330 N 
ATOM      6  N   UNL     1      10.698   5.936   5.699  0.00  0.00    -0.232 NA
ATOM     11  C   UNL     1      10.485   7.231   5.637  0.00  0.00    +0.115 A 
ATOM     13  C   UNL     1       9.641   6.634   7.593  0.00  0.00    +0.069 A 
ATOM     14  C   UNL     1      10.179   5.546   6.911  0.00  0.00    +0.089 A 
ATOM     15  C   UNL     1       9.469   9.070   7.011  0.00  0.00    +0.150 C 
ATOM     17  C   UNL     1       9.046   6.534   8.851  0.00  0.00    +0.028 A 
ATOM     18  C   UNL     1      10.128   4.273   7.505  0.00  0.00    +0.030 A 
ATOM     21  C   UNL     1       9.004   5.260   9.426  0.00  0.00    +0.002 A 
ATOM     22  C   UNL     1       9.535   4.148   8.767  0.00  0.00    +0.002 A 
ENDBRANCH   7  11
BRANCH  12  16
ATOM     16  C   UNL     1      12.627   5.650   1.305  0.00  0.00    +0.041 A 
ATOM     19  C   UNL     1      12.463   6.244   0.052  0.00  0.00    +0.062 A 
ATOM     20  C   UNL     1      12.099   4.383   1.550  0.00  0.00    +0.017 A 
ATOM     23  C   UNL     1      11.771   5.570  -0.954  0.00  0.00    +0.162 A 
ATOM     24  C   UNL     1      11.406   3.709   0.544  0.00  0.00    +0.050 A 
ATOM     25  C   UNL     1      11.242   4.303  -0.707  0.00  0.00    +0.162 A 
BRANCH  23   2
ATOM      2  O   UNL     1      11.617   6.160  -2.172  0.00  0.00    -0.491 OA
ATOM     26  C   UNL     1      12.780   6.733  -2.765  0.00  0.00    +0.277 C 
ENDBRANCH  23   2
BRANCH  25   3
ATOM      3  O   UNL     1      10.564   3.634  -1.682  0.00  0.00    -0.491 OA
ATOM     27  C   UNL     1      11.285   2.638  -2.405  0.00  0.00    +0.277 C 
ENDBRANCH  25   3
ENDBRANCH  12  16
TORSDOF 4
ENDMDL
MODEL 8
REMARK VINA RESULT:      -5.5     23.401     26.086
REMARK  Name = 51137904
REMARK  7 active torsions:
REMARK  status: ('A' for Active; 'I' for Inactive)
REMARK    1  A    between atoms: O_2  and  C_23
REMARK    2  A    between atoms: O_2  and  C_26
REMARK    3  A    between atoms: O_3  and  C_25
REMARK    4  A    between atoms: O_3  and  C_27
REMARK    5  A    between atoms: N_5  and  C_15
REMARK    6  A    between atoms: C_7  and  C_11
REMARK    7  A    between atoms: C_12  and  C_16
REMARK                            x       y       z     vdW  Elec       q    Type
REMARK                         _______ _______ _______ _____ _____    ______ ____
ROOT
ATOM      1  O   UNL     1       7.873   7.960   3.271  0.00  0.00    -0.270 OA
ATOM      4  N   UNL     1      10.036   7.864   2.434  0.00  0.00    -0.297 N 
ATOM      7  C   UNL     1      11.937   7.557   1.036  0.00  0.00    +0.074 C 
ATOM      8  C   UNL     1      11.090   8.723   0.505  0.00  0.00    +0.032 C 
ATOM      9  C   UNL     1      11.434   7.429   2.481  0.00  0.00    +0.119 C 
ATOM     10  C   UNL     1       9.736   8.524   1.173  0.00  0.00    +0.109 C 
ATOM     12  C   UNL     1       9.053   7.640   3.385  0.00  0.00    +0.247 C 
ENDROOT
BRANCH   7  11
ATOM      5  N   UNL     1      12.676   5.272   0.248  0.00  0.00    -0.330 N 
ATOM      6  N   UNL     1      10.880   6.120  -0.751  0.00  0.00    -0.232 NA
ATOM     11  C   UNL     1      11.806   6.323   0.160  0.00  0.00    +0.115 A 
ATOM     13  C   UNL     1      12.285   4.328  -0.668  0.00  0.00    +0.069 A 
ATOM     14  C   UNL     1      11.164   4.882  -1.278  0.00  0.00    +0.089 A 
ATOM     15  C   UNL     1      13.807   5.169   1.143  0.00  0.00    +0.150 C 
ATOM     17  C   UNL     1      12.803   3.077  -1.005  0.00  0.00    +0.028 A 
ATOM     18  C   UNL     1      10.504   4.157  -2.286  0.00  0.00    +0.030 A 
ATOM     21  C   UNL     1      12.135   2.370  -2.009  0.00  0.00    +0.002 A 
ATOM     22  C   UNL     1      11.006   2.898  -2.641  0.00  0.00    +0.002 A 
ENDBRANCH   7  11
BRANCH  12  16
ATOM     16  C   UNL     1       9.450   6.951   4.623  0.00  0.00    +0.041 A 
ATOM     19  C   UNL     1       9.743   7.690   5.770  0.00  0.00    +0.062 A 
ATOM     20  C   UNL     1       9.535   5.559   4.650  0.00  0.00    +0.017 A 
ATOM     23  C   UNL     1      10.119   7.036   6.943  0.00  0.00    +0.162 A 
ATOM     24  C   UNL     1       9.911   4.906   5.823  0.00  0.00    +0.050 A 
ATOM     25  C   UNL     1      10.204   5.644   6.969  0.00  0.00    +0.162 A 
BRANCH  23   2
ATOM      2  O   UNL     1      10.402   7.768   8.057  0.00  0.00    -0.491 OA
ATOM     26  C   UNL     1      10.008   9.138   8.048  0.00  0.00    +0.277 C 
ENDBRANCH  23   2
BRANCH  25   3
ATOM      3  O   UNL     1      10.569   4.994   8.110  0.00  0.00    -0.491 OA
ATOM     27  C   UNL     1       9.527   4.387   8.872  0.00  0.00    +0.277 C 
ENDBRANCH  25   3
ENDBRANCH  12  16
TORSDOF 4
ENDMDL
MODEL 9
REMARK VINA RESULT:      -5.5     25.103     27.617
REMARK  Name = 51137904
REMARK  7 active torsions:
REMARK  status: ('A' for Active; 'I' for Inactive)
REMARK    1  A    between atoms: O_2  and  C_23
REMARK    2  A    between atoms: O_2  and  C_26
REMARK    3  A    between atoms: O_3  and  C_25
REMARK    4  A    between atoms: O_3  and  C_27
REMARK    5  A    between atoms: N_5  and  C_15
REMARK    6  A    between atoms: C_7  and  C_11
REMARK    7  A    between atoms: C_12  and  C_16
REMARK                            x       y       z     vdW  Elec       q    Type
REMARK                         _______ _______ _______ _____ _____    ______ ____
ROOT
ATOM      1  O   UNL     1      10.117  10.556   5.602  0.00  0.00    -0.270 OA
ATOM      4  N   UNL     1       9.509  10.931   7.811  0.00  0.00    -0.297 N 
ATOM      7  C   UNL     1       9.369  11.763  10.036  0.00  0.00    +0.074 C 
ATOM      8  C   UNL     1       8.925  12.853   9.049  0.00  0.00    +0.032 C 
ATOM      9  C   UNL     1       9.247  10.492   9.183  0.00  0.00    +0.119 C 
ATOM     10  C   UNL     1       9.478  12.382   7.711  0.00  0.00    +0.109 C 
ATOM     12  C   UNL     1       9.832  10.138   6.721  0.00  0.00    +0.247 C 
ENDROOT
BRANCH   7  11
ATOM      5  N   UNL     1      10.936  12.241  11.961  0.00  0.00    -0.330 N 
ATOM      6  N   UNL     1      11.858  12.173   9.940  0.00  0.00    -0.232 NA
ATOM     11  C   UNL     1      10.739  12.059  10.620  0.00  0.00    +0.115 A 
ATOM     13  C   UNL     1      12.270  12.488  12.158  0.00  0.00    +0.069 A 
ATOM     14  C   UNL     1      12.823  12.441  10.882  0.00  0.00    +0.089 A 
ATOM     15  C   UNL     1       9.922  12.184  12.990  0.00  0.00    +0.150 C 
ATOM     17  C   UNL     1      13.017  12.743  13.310  0.00  0.00    +0.028 A 
ATOM     18  C   UNL     1      14.204  12.657  10.726  0.00  0.00    +0.030 A 
ATOM     21  C   UNL     1      14.388  12.955  13.135  0.00  0.00    +0.002 A 
ATOM     22  C   UNL     1      14.973  12.914  11.867  0.00  0.00    +0.002 A 
ENDBRANCH   7  11
BRANCH  12  16
ATOM     16  C   UNL     1       9.852   8.681   6.924  0.00  0.00    +0.041 A 
ATOM     19  C   UNL     1      11.047   8.039   7.255  0.00  0.00    +0.062 A 
ATOM     20  C   UNL     1       8.678   7.941   6.787  0.00  0.00    +0.017 A 
ATOM     23  C   UNL     1      11.066   6.658   7.449  0.00  0.00    +0.162 A 
ATOM     24  C   UNL     1       8.698   6.560   6.981  0.00  0.00    +0.050 A 
ATOM     25  C   UNL     1       9.891   5.918   7.311  0.00  0.00    +0.162 A 
BRANCH  23   2
ATOM      2  O   UNL     1      12.238   6.043   7.771  0.00  0.00    -0.491 OA
ATOM     26  C   UNL     1      13.434   6.613   7.244  0.00  0.00    +0.277 C 
ENDBRANCH  23   2
BRANCH  25   3
ATOM      3  O   UNL     1       9.897   4.569   7.498  0.00  0.00    -0.491 OA
ATOM     27  C   UNL     1       9.556   4.095   8.800  0.00  0.00    +0.277 C 
ENDBRANCH  25   3
ENDBRANCH  12  16
TORSDOF 4
ENDMDL
MODEL 10
REMARK VINA RESULT:      -5.5     20.582     21.657
REMARK  Name = 51137904
REMARK  7 active torsions:
REMARK  status: ('A' for Active; 'I' for Inactive)
REMARK    1  A    between atoms: O_2  and  C_23
REMARK    2  A    between atoms: O_2  and  C_26
REMARK    3  A    between atoms: O_3  and  C_25
REMARK    4  A    between atoms: O_3  and  C_27
REMARK    5  A    between atoms: N_5  and  C_15
REMARK    6  A    between atoms: C_7  and  C_11
REMARK    7  A    between atoms: C_12  and  C_16
REMARK                            x       y       z     vdW  Elec       q    Type
REMARK                         _______ _______ _______ _____ _____    ______ ____
ROOT
ATOM      1  O   UNL     1     -16.140   9.420  21.749  0.00  0.00    -0.270 OA
ATOM      4  N   UNL     1     -13.964   8.952  21.088  0.00  0.00    -0.297 N 
ATOM      7  C   UNL     1     -11.910   8.840  19.892  0.00  0.00    +0.074 C 
ATOM      8  C   UNL     1     -12.140  10.276  20.388  0.00  0.00    +0.032 C 
ATOM      9  C   UNL     1     -12.861   8.036  20.790  0.00  0.00    +0.119 C 
ATOM     10  C   UNL     1     -13.628  10.316  20.712  0.00  0.00    +0.109 C 
ATOM     12  C   UNL     1     -15.218   8.626  21.583  0.00  0.00    +0.247 C 
ENDROOT
BRANCH   7  11
ATOM      5  N   UNL     1     -11.153   9.033  17.489  0.00  0.00    -0.330 N 
ATOM      6  N   UNL     1     -13.236   8.326  17.806  0.00  0.00    -0.232 NA
ATOM     11  C   UNL     1     -12.129   8.723  18.394  0.00  0.00    +0.115 A 
ATOM     13  C   UNL     1     -11.664   8.822  16.233  0.00  0.00    +0.069 A 
ATOM     14  C   UNL     1     -12.964   8.382  16.459  0.00  0.00    +0.089 A 
ATOM     15  C   UNL     1      -9.819   9.501  17.794  0.00  0.00    +0.150 C 
ATOM     17  C   UNL     1     -11.116   8.976  14.959  0.00  0.00    +0.028 A 
ATOM     18  C   UNL     1     -13.782   8.070  15.359  0.00  0.00    +0.030 A 
ATOM     21  C   UNL     1     -11.943   8.661  13.877  0.00  0.00    +0.002 A 
ATOM     22  C   UNL     1     -13.253   8.216  14.070  0.00  0.00    +0.002 A 
ENDBRANCH   7  11
BRANCH  12  16
ATOM     16  C   UNL     1     -15.469   7.217  21.921  0.00  0.00    +0.041 A 
ATOM     19  C   UNL     1     -16.239   6.421  21.070  0.00  0.00    +0.062 A 
ATOM     20  C   UNL     1     -14.936   6.674  23.090  0.00  0.00    +0.017 A 
ATOM     23  C   UNL     1     -16.476   5.085  21.390  0.00  0.00    +0.162 A 
ATOM     24  C   UNL     1     -15.174   5.337  23.410  0.00  0.00    +0.050 A 
ATOM     25  C   UNL     1     -15.944   4.543  22.560  0.00  0.00    +0.162 A 
BRANCH  23   2
ATOM      2  O   UNL     1     -17.230   4.320  20.552  0.00  0.00    -0.491 OA
ATOM     26  C   UNL     1     -17.329   4.749  19.196  0.00  0.00    +0.277 C 
ENDBRANCH  23   2
BRANCH  25   3
ATOM      3  O   UNL     1     -16.169   3.238  22.883  0.00  0.00    -0.491 OA
ATOM     27  C   UNL     1     -17.272   2.965  23.745  0.00  0.00    +0.277 C 
ENDBRANCH  25   3
ENDBRANCH  12  16
TORSDOF 4
ENDMDL
