MODEL 1
REMARK VINA RESULT:      -7.8      0.000      0.000
REMARK  Name = 7165012
REMARK  8 active torsions:
REMARK  status: ('A' for Active; 'I' for Inactive)
REMARK    1  A    between atoms: S_1  and  N_8
REMARK    2  A    between atoms: S_1  and  C_25
REMARK    3  A    between atoms: N_9  and  C_24
REMARK    4  A    between atoms: C_12  and  C_16
REMARK    5  A    between atoms: C_13  and  C_23
REMARK    6  A    between atoms: C_24  and  C_26
REMARK    7  A    between atoms: C_24  and  C_28
REMARK    8  A    between atoms: C_26  and  C_27
REMARK                            x       y       z     vdW  Elec       q    Type
REMARK                         _______ _______ _______ _____ _____    ______ ____
ROOT
ATOM      3  O   UNL     1      14.626   8.904  22.358  0.00  0.00    -0.274 OA
ATOM      9  N   UNL     1      16.363   9.008  20.813  0.00  0.00    -0.302 N 
ATOM     23  C   UNL     1      15.128   9.354  21.331  0.00  0.00    +0.235 C 
ATOM     36  H   UNL     1      16.696   9.455  19.963  0.00  0.00    +0.150 HD
ENDROOT
BRANCH  23  13
ATOM      2  O   UNL     1      14.107  12.590  22.240  0.00  0.00    -0.275 OA
ATOM      7  N   UNL     1      13.185  10.725  21.197  0.00  0.00    -0.287 N 
ATOM      8  N   UNL     1      13.147   8.893  19.002  0.00  0.00    -0.178 NA
ATOM     13  C   UNL     1      14.434  10.395  20.501  0.00  0.00    +0.177 C 
ATOM     16  C   UNL     1      13.172  11.798  22.095  0.00  0.00    +0.219 C 
ATOM     19  C   UNL     1      14.221   9.928  19.063  0.00  0.00    +0.141 C 
ATOM     20  C   UNL     1      12.071   9.779  21.022  0.00  0.00    +0.125 C 
ATOM     22  C   UNL     1      11.867   9.409  19.559  0.00  0.00    +0.128 C 
BRANCH  16  12
ATOM     12  C   UNL     1      11.930  11.972  22.918  0.00  0.00    +0.075 C 
ATOM     14  C   UNL     1      11.382  13.389  22.739  0.00  0.00    +0.013 C 
ATOM     15  C   UNL     1      12.233  11.671  24.388  0.00  0.00    +0.013 C 
ATOM     17  C   UNL     1      10.170  13.642  23.633  0.00  0.00    +0.001 C 
ATOM     18  C   UNL     1      11.019  11.926  25.278  0.00  0.00    +0.001 C 
ATOM     21  C   UNL     1      10.478  13.341  25.097  0.00  0.00    +0.000 C 
ENDBRANCH  16  12
BRANCH   8   1
ATOM      1  S   UNL     1      13.020   8.054  17.514  0.00  0.00    +0.029 S 
ATOM      4  O   UNL     1      11.778   7.313  17.504  0.00  0.00    -0.158 OA
ATOM      5  O   UNL     1      14.287   7.420  17.229  0.00  0.00    -0.158 OA
ATOM     25  C   UNL     1      12.840   9.441  16.422  0.00  0.00    +0.215 C 
ENDBRANCH   8   1
ENDBRANCH  23  13
BRANCH   9  24
ATOM     24  C   UNL     1      17.241   8.044  21.437  0.00  0.00    +0.163 C 
BRANCH  24  28
ATOM      6  O   UNL     1      17.046   6.131  19.952  0.00  0.00    -0.274 OA
ATOM     11  N   UNL     1      16.000   6.047  21.995  0.00  0.00    -0.328 N 
ATOM     28  C   UNL     1      16.757   6.663  21.021  0.00  0.00    +0.231 C 
ATOM     38  H   UNL     1      15.625   5.115  21.851  0.00  0.00    +0.145 HD
ATOM     39  H   UNL     1      15.788   6.490  22.883  0.00  0.00    +0.145 HD
ENDBRANCH  24  28
BRANCH  24  26
ATOM     26  C   UNL     1      18.707   8.244  21.030  0.00  0.00    +0.069 C 
BRANCH  26  27
ATOM     10  N   UNL     1      20.942   7.134  23.729  0.00  0.00    -0.360 N 
ATOM     27  C   UNL     1      19.674   7.568  21.960  0.00  0.00    -0.020 A 
ATOM     29  C   UNL     1      20.364   6.346  21.724  0.00  0.00    +0.003 A 
ATOM     30  C   UNL     1      20.049   8.028  23.201  0.00  0.00    +0.087 A 
ATOM     31  C   UNL     1      21.152   6.097  22.849  0.00  0.00    +0.047 A 
ATOM     32  C   UNL     1      20.393   5.426  20.657  0.00  0.00    +0.010 A 
ATOM     33  C   UNL     1      21.972   4.968  22.961  0.00  0.00    +0.026 A 
ATOM     34  C   UNL     1      21.209   4.292  20.756  0.00  0.00    +0.001 A 
ATOM     35  C   UNL     1      21.985   4.069  21.891  0.00  0.00    +0.002 A 
ATOM     37  H   UNL     1      21.382   7.221  24.635  0.00  0.00    +0.165 HD
ENDBRANCH  26  27
ENDBRANCH  24  26
ENDBRANCH   9  24
TORSDOF 7
ENDMDL
MODEL 2
REMARK VINA RESULT:      -7.7     33.274     35.633
REMARK  Name = 7165012
REMARK  8 active torsions:
REMARK  status: ('A' for Active; 'I' for Inactive)
REMARK    1  A    between atoms: S_1  and  N_8
REMARK    2  A    between atoms: S_1  and  C_25
REMARK    3  A    between atoms: N_9  and  C_24
REMARK    4  A    between atoms: C_12  and  C_16
REMARK    5  A    between atoms: C_13  and  C_23
REMARK    6  A    between atoms: C_24  and  C_26
REMARK    7  A    between atoms: C_24  and  C_28
REMARK    8  A    between atoms: C_26  and  C_27
REMARK                            x       y       z     vdW  Elec       q    Type
REMARK                         _______ _______ _______ _____ _____    ______ ____
ROOT
ATOM      3  O   UNL     1      -9.985  -8.160  38.152  0.00  0.00    -0.274 OA
ATOM      9  N   UNL     1      -8.787 -10.129  38.474  0.00  0.00    -0.302 N 
ATOM     23  C   UNL     1      -9.273  -8.886  38.841  0.00  0.00    +0.235 C 
ATOM     36  H   UNL     1      -8.219 -10.660  39.128  0.00  0.00    +0.150 HD
ENDROOT
BRANCH  23  13
ATOM      2  O   UNL     1     -10.630  -6.434  40.957  0.00  0.00    -0.275 OA
ATOM      7  N   UNL     1      -8.528  -7.068  40.186  0.00  0.00    -0.287 N 
ATOM      8  N   UNL     1      -6.431  -9.008  40.052  0.00  0.00    -0.178 NA
ATOM     13  C   UNL     1      -8.854  -8.499  40.229  0.00  0.00    +0.177 C 
ATOM     16  C   UNL     1      -9.524  -6.136  40.500  0.00  0.00    +0.219 C 
ATOM     19  C   UNL     1      -7.706  -9.366  40.740  0.00  0.00    +0.141 C 
ATOM     20  C   UNL     1      -7.207  -6.716  39.641  0.00  0.00    +0.125 C 
ATOM     22  C   UNL     1      -6.099  -7.569  40.243  0.00  0.00    +0.128 C 
BRANCH  16  12
ATOM     12  C   UNL     1      -9.195  -4.693  40.256  0.00  0.00    +0.075 C 
ATOM     14  C   UNL     1      -9.081  -3.953  41.591  0.00  0.00    +0.013 C 
ATOM     15  C   UNL     1     -10.259  -4.062  39.355  0.00  0.00    +0.013 C 
ATOM     17  C   UNL     1      -8.841  -2.459  41.388  0.00  0.00    +0.001 C 
ATOM     18  C   UNL     1     -10.016  -2.568  39.157  0.00  0.00    +0.001 C 
ATOM     21  C   UNL     1      -9.906  -1.835  40.490  0.00  0.00    +0.000 C 
ENDBRANCH  16  12
BRANCH   8   1
ATOM      1  S   UNL     1      -5.135 -10.102  40.291  0.00  0.00    +0.029 S 
ATOM      4  O   UNL     1      -3.990  -9.366  40.780  0.00  0.00    -0.158 OA
ATOM      5  O   UNL     1      -5.046 -10.974  39.142  0.00  0.00    -0.158 OA
ATOM     25  C   UNL     1      -5.803 -11.039  41.642  0.00  0.00    +0.215 C 
ENDBRANCH   8   1
ENDBRANCH  23  13
BRANCH   9  24
ATOM     24  C   UNL     1      -9.067 -10.743  37.196  0.00  0.00    +0.163 C 
BRANCH  24  28
ATOM      6  O   UNL     1      -7.648 -12.329  36.022  0.00  0.00    -0.274 OA
ATOM     11  N   UNL     1      -6.682 -10.452  36.928  0.00  0.00    -0.328 N 
ATOM     28  C   UNL     1      -7.748 -11.285  36.662  0.00  0.00    +0.231 C 
ATOM     38  H   UNL     1      -5.746 -10.689  36.616  0.00  0.00    +0.145 HD
ATOM     39  H   UNL     1      -6.784  -9.581  37.439  0.00  0.00    +0.145 HD
ENDBRANCH  24  28
BRANCH  24  26
ATOM     26  C   UNL     1     -10.104 -11.868  37.306  0.00  0.00    +0.069 C 
BRANCH  26  27
ATOM     10  N   UNL     1     -13.224 -10.628  35.809  0.00  0.00    -0.360 N 
ATOM     27  C   UNL     1     -11.357 -11.591  36.525  0.00  0.00    -0.020 A 
ATOM     29  C   UNL     1     -11.886 -12.378  35.463  0.00  0.00    +0.003 A 
ATOM     30  C   UNL     1     -12.202 -10.522  36.713  0.00  0.00    +0.087 A 
ATOM     31  C   UNL     1     -13.057 -11.752  35.032  0.00  0.00    +0.047 A 
ATOM     32  C   UNL     1     -11.478 -13.567  34.826  0.00  0.00    +0.010 A 
ATOM     33  C   UNL     1     -13.844 -12.257  33.991  0.00  0.00    +0.026 A 
ATOM     34  C   UNL     1     -12.256 -14.084  33.783  0.00  0.00    +0.001 A 
ATOM     35  C   UNL     1     -13.420 -13.437  33.373  0.00  0.00    +0.002 A 
ATOM     37  H   UNL     1     -13.991  -9.975  35.722  0.00  0.00    +0.165 HD
ENDBRANCH  26  27
ENDBRANCH  24  26
ENDBRANCH   9  24
TORSDOF 7
ENDMDL
MODEL 3
REMARK VINA RESULT:      -7.5      1.898      2.501
REMARK  Name = 7165012
REMARK  8 active torsions:
REMARK  status: ('A' for Active; 'I' for Inactive)
REMARK    1  A    between atoms: S_1  and  N_8
REMARK    2  A    between atoms: S_1  and  C_25
REMARK    3  A    between atoms: N_9  and  C_24
REMARK    4  A    between atoms: C_12  and  C_16
REMARK    5  A    between atoms: C_13  and  C_23
REMARK    6  A    between atoms: C_24  and  C_26
REMARK    7  A    between atoms: C_24  and  C_28
REMARK    8  A    between atoms: C_26  and  C_27
REMARK                            x       y       z     vdW  Elec       q    Type
REMARK                         _______ _______ _______ _____ _____    ______ ____
ROOT
ATOM      3  O   UNL     1      16.173  11.637  19.281  0.00  0.00    -0.274 OA
ATOM      9  N   UNL     1      15.223   9.699  20.150  0.00  0.00    -0.302 N 
ATOM     23  C   UNL     1      15.195  10.945  19.548  0.00  0.00    +0.235 C 
ATOM     36  H   UNL     1      14.353   9.198  20.311  0.00  0.00    +0.150 HD
ENDROOT
BRANCH  23  13
ATOM      2  O   UNL     1      13.261  13.481  21.020  0.00  0.00    -0.275 OA
ATOM      7  N   UNL     1      13.007  11.241  20.442  0.00  0.00    -0.287 N 
ATOM      8  N   UNL     1      12.892   9.210  18.434  0.00  0.00    -0.178 NA
ATOM     13  C   UNL     1      13.798  11.384  19.214  0.00  0.00    +0.177 C 
ATOM     16  C   UNL     1      12.877  12.342  21.296  0.00  0.00    +0.219 C 
ATOM     19  C   UNL     1      13.225  10.608  18.032  0.00  0.00    +0.141 C 
ATOM     20  C   UNL     1      12.550   9.882  20.769  0.00  0.00    +0.125 C 
ATOM     22  C   UNL     1      11.925   9.189  19.566  0.00  0.00    +0.128 C 
BRANCH  16  12
ATOM     12  C   UNL     1      12.223  12.091  22.623  0.00  0.00    +0.075 C 
ATOM     14  C   UNL     1      11.020  13.021  22.795  0.00  0.00    +0.013 C 
ATOM     15  C   UNL     1      13.242  12.279  23.749  0.00  0.00    +0.013 C 
ATOM     17  C   UNL     1      10.380  12.866  24.172  0.00  0.00    +0.001 C 
ATOM     18  C   UNL     1      12.597  12.125  25.125  0.00  0.00    +0.001 C 
ATOM     21  C   UNL     1      11.401  13.057  25.291  0.00  0.00    +0.000 C 
ENDBRANCH  16  12
BRANCH   8   1
ATOM      1  S   UNL     1      12.541   8.138  17.144  0.00  0.00    +0.029 S 
ATOM      4  O   UNL     1      11.952   6.934  17.688  0.00  0.00    -0.158 OA
ATOM      5  O   UNL     1      13.679   8.095  16.254  0.00  0.00    -0.158 OA
ATOM     25  C   UNL     1      11.255   9.066  16.348  0.00  0.00    +0.215 C 
ENDBRANCH   8   1
ENDBRANCH  23  13
BRANCH   9  24
ATOM     24  C   UNL     1      16.446   9.040  20.548  0.00  0.00    +0.163 C 
BRANCH  24  28
ATOM      6  O   UNL     1      18.167  10.145  21.861  0.00  0.00    -0.274 OA
ATOM     11  N   UNL     1      16.018  10.113  22.672  0.00  0.00    -0.328 N 
ATOM     28  C   UNL     1      16.993   9.801  21.747  0.00  0.00    +0.231 C 
ATOM     38  H   UNL     1      16.246  10.632  23.513  0.00  0.00    +0.145 HD
ATOM     39  H   UNL     1      15.047   9.842  22.553  0.00  0.00    +0.145 HD
ENDBRANCH  24  28
BRANCH  24  26
ATOM     26  C   UNL     1      16.221   7.565  20.907  0.00  0.00    +0.069 C 
BRANCH  26  27
ATOM     10  N   UNL     1      18.338   5.249  18.993  0.00  0.00    -0.360 N 
ATOM     27  C   UNL     1      17.272   6.654  20.339  0.00  0.00    -0.020 A 
ATOM     29  C   UNL     1      18.535   6.351  20.922  0.00  0.00    +0.003 A 
ATOM     30  C   UNL     1      17.181   5.963  19.154  0.00  0.00    +0.087 A 
ATOM     31  C   UNL     1      19.183   5.467  20.057  0.00  0.00    +0.047 A 
ATOM     32  C   UNL     1      19.190   6.745  22.105  0.00  0.00    +0.010 A 
ATOM     33  C   UNL     1      20.460   4.955  20.317  0.00  0.00    +0.026 A 
ATOM     34  C   UNL     1      20.467   6.241  22.379  0.00  0.00    +0.001 A 
ATOM     35  C   UNL     1      21.091   5.360  21.497  0.00  0.00    +0.002 A 
ATOM     37  H   UNL     1      18.543   4.648  18.206  0.00  0.00    +0.165 HD
ENDBRANCH  26  27
ENDBRANCH  24  26
ENDBRANCH   9  24
TORSDOF 7
ENDMDL
MODEL 4
REMARK VINA RESULT:      -7.5      1.357      2.331
REMARK  Name = 7165012
REMARK  8 active torsions:
REMARK  status: ('A' for Active; 'I' for Inactive)
REMARK    1  A    between atoms: S_1  and  N_8
REMARK    2  A    between atoms: S_1  and  C_25
REMARK    3  A    between atoms: N_9  and  C_24
REMARK    4  A    between atoms: C_12  and  C_16
REMARK    5  A    between atoms: C_13  and  C_23
REMARK    6  A    between atoms: C_24  and  C_26
REMARK    7  A    between atoms: C_24  and  C_28
REMARK    8  A    between atoms: C_26  and  C_27
REMARK                            x       y       z     vdW  Elec       q    Type
REMARK                         _______ _______ _______ _____ _____    ______ ____
ROOT
ATOM      3  O   UNL     1      15.336   9.924  22.147  0.00  0.00    -0.274 OA
ATOM      9  N   UNL     1      15.449   8.676  20.186  0.00  0.00    -0.302 N 
ATOM     23  C   UNL     1      15.038   9.740  20.970  0.00  0.00    +0.235 C 
ATOM     36  H   UNL     1      15.160   8.627  19.214  0.00  0.00    +0.150 HD
ENDROOT
BRANCH  23  13
ATOM      2  O   UNL     1      13.821  12.879  21.972  0.00  0.00    -0.275 OA
ATOM      7  N   UNL     1      12.975  10.929  21.025  0.00  0.00    -0.287 N 
ATOM      8  N   UNL     1      12.891   9.080  18.846  0.00  0.00    -0.178 NA
ATOM     13  C   UNL     1      14.175  10.707  20.211  0.00  0.00    +0.177 C 
ATOM     16  C   UNL     1      12.952  12.004  21.920  0.00  0.00    +0.219 C 
ATOM     19  C   UNL     1      13.867  10.208  18.801  0.00  0.00    +0.141 C 
ATOM     20  C   UNL     1      11.940   9.885  20.960  0.00  0.00    +0.125 C 
ATOM     22  C   UNL     1      11.629   9.483  19.525  0.00  0.00    +0.128 C 
BRANCH  16  12
ATOM     12  C   UNL     1      11.785  12.074  22.860  0.00  0.00    +0.075 C 
ATOM     14  C   UNL     1      11.209  13.491  22.871  0.00  0.00    +0.013 C 
ATOM     15  C   UNL     1      12.218  11.634  24.260  0.00  0.00    +0.013 C 
ATOM     17  C   UNL     1      10.078  13.632  23.887  0.00  0.00    +0.001 C 
ATOM     18  C   UNL     1      11.083  11.778  25.272  0.00  0.00    +0.001 C 
ATOM     21  C   UNL     1      10.516  13.194  25.281  0.00  0.00    +0.000 C 
ENDBRANCH  16  12
BRANCH   8   1
ATOM      1  S   UNL     1      12.697   8.219  17.378  0.00  0.00    +0.029 S 
ATOM      4  O   UNL     1      11.370   7.645  17.349  0.00  0.00    -0.158 OA
ATOM      5  O   UNL     1      13.878   7.418  17.149  0.00  0.00    -0.158 OA
ATOM     25  C   UNL     1      12.729   9.583  16.244  0.00  0.00    +0.215 C 
ENDBRANCH   8   1
ENDBRANCH  23  13
BRANCH   9  24
ATOM     24  C   UNL     1      16.306   7.620  20.673  0.00  0.00    +0.163 C 
BRANCH  24  28
ATOM      6  O   UNL     1      16.478   5.666  19.238  0.00  0.00    -0.274 OA
ATOM     11  N   UNL     1      14.582   5.934  20.506  0.00  0.00    -0.328 N 
ATOM     28  C   UNL     1      15.821   6.323  20.041  0.00  0.00    +0.231 C 
ATOM     38  H   UNL     1      14.147   5.079  20.175  0.00  0.00    +0.145 HD
ATOM     39  H   UNL     1      14.060   6.476  21.187  0.00  0.00    +0.145 HD
ENDBRANCH  24  28
BRANCH  24  26
ATOM     26  C   UNL     1      17.782   7.864  20.330  0.00  0.00    +0.069 C 
BRANCH  26  27
ATOM     10  N   UNL     1      19.972   6.980  23.147  0.00  0.00    -0.360 N 
ATOM     27  C   UNL     1      18.685   7.785  21.528  0.00  0.00    -0.020 A 
ATOM     29  C   UNL     1      19.163   8.880  22.303  0.00  0.00    +0.003 A 
ATOM     30  C   UNL     1      19.201   6.632  22.071  0.00  0.00    +0.087 A 
ATOM     31  C   UNL     1      19.967   8.347  23.312  0.00  0.00    +0.047 A 
ATOM     32  C   UNL     1      18.986  10.276  22.242  0.00  0.00    +0.010 A 
ATOM     33  C   UNL     1      20.607   9.145  24.267  0.00  0.00    +0.026 A 
ATOM     34  C   UNL     1      19.621  11.087  23.191  0.00  0.00    +0.001 A 
ATOM     35  C   UNL     1      20.418  10.527  24.187  0.00  0.00    +0.002 A 
ATOM     37  H   UNL     1      20.474   6.329  23.736  0.00  0.00    +0.165 HD
ENDBRANCH  26  27
ENDBRANCH  24  26
ENDBRANCH   9  24
TORSDOF 7
ENDMDL
MODEL 5
REMARK VINA RESULT:      -7.3     28.266     30.626
REMARK  Name = 7165012
REMARK  8 active torsions:
REMARK  status: ('A' for Active; 'I' for Inactive)
REMARK    1  A    between atoms: S_1  and  N_8
REMARK    2  A    between atoms: S_1  and  C_25
REMARK    3  A    between atoms: N_9  and  C_24
REMARK    4  A    between atoms: C_12  and  C_16
REMARK    5  A    between atoms: C_13  and  C_23
REMARK    6  A    between atoms: C_24  and  C_26
REMARK    7  A    between atoms: C_24  and  C_28
REMARK    8  A    between atoms: C_26  and  C_27
REMARK                            x       y       z     vdW  Elec       q    Type
REMARK                         _______ _______ _______ _____ _____    ______ ____
ROOT
ATOM      3  O   UNL     1      -7.658  -9.741  14.260  0.00  0.00    -0.274 OA
ATOM      9  N   UNL     1      -6.299 -11.059  15.612  0.00  0.00    -0.302 N 
ATOM     23  C   UNL     1      -7.509 -10.568  15.156  0.00  0.00    +0.235 C 
ATOM     36  H   UNL     1      -6.285 -11.759  16.349  0.00  0.00    +0.150 HD
ENDROOT
BRANCH  23  13
ATOM      2  O   UNL     1     -10.938 -10.256  14.461  0.00  0.00    -0.275 OA
ATOM      7  N   UNL     1      -9.534 -10.077  16.309  0.00  0.00    -0.287 N 
ATOM      8  N   UNL     1      -7.719 -11.291  18.154  0.00  0.00    -0.178 NA
ATOM     13  C   UNL     1      -8.678 -11.185  15.868  0.00  0.00    +0.177 C 
ATOM     16  C   UNL     1     -10.583  -9.660  15.481  0.00  0.00    +0.219 C 
ATOM     19  C   UNL     1      -8.234 -12.097  17.008  0.00  0.00    +0.141 C 
ATOM     20  C   UNL     1      -9.109  -9.368  17.526  0.00  0.00    +0.125 C 
ATOM     22  C   UNL     1      -8.747 -10.333  18.647  0.00  0.00    +0.128 C 
BRANCH  16  12
ATOM     12  C   UNL     1     -11.303  -8.408  15.887  0.00  0.00    +0.075 C 
ATOM     14  C   UNL     1     -12.765  -8.480  15.440  0.00  0.00    +0.013 C 
ATOM     15  C   UNL     1     -10.597  -7.186  15.295  0.00  0.00    +0.013 C 
ATOM     17  C   UNL     1     -13.514  -7.186  15.749  0.00  0.00    +0.001 C 
ATOM     18  C   UNL     1     -11.350  -5.894  15.605  0.00  0.00    +0.001 C 
ATOM     21  C   UNL     1     -12.806  -5.972  15.155  0.00  0.00    +0.000 C 
ENDBRANCH  16  12
BRANCH   8   1
ATOM      1  S   UNL     1      -6.897 -12.179  19.367  0.00  0.00    +0.029 S 
ATOM      4  O   UNL     1      -6.547 -11.281  20.444  0.00  0.00    -0.158 OA
ATOM      5  O   UNL     1      -5.913 -13.028  18.733  0.00  0.00    -0.158 OA
ATOM     25  C   UNL     1      -8.235 -13.205  19.920  0.00  0.00    +0.215 C 
ENDBRANCH   8   1
ENDBRANCH  23  13
BRANCH   9  24
ATOM     24  C   UNL     1      -5.023 -10.645  15.074  0.00  0.00    +0.163 C 
BRANCH  24  28
ATOM      6  O   UNL     1      -2.846 -10.471  16.140  0.00  0.00    -0.274 OA
ATOM     11  N   UNL     1      -4.726 -10.333  17.453  0.00  0.00    -0.328 N 
ATOM     28  C   UNL     1      -4.069 -10.494  16.251  0.00  0.00    +0.231 C 
ATOM     38  H   UNL     1      -4.208 -10.209  18.316  0.00  0.00    +0.145 HD
ATOM     39  H   UNL     1      -5.739 -10.333  17.525  0.00  0.00    +0.145 HD
ENDBRANCH  24  28
BRANCH  24  26
ATOM     26  C   UNL     1      -4.466 -11.650  14.058  0.00  0.00    +0.069 C 
BRANCH  26  27
ATOM     10  N   UNL     1      -1.978 -10.325  11.700  0.00  0.00    -0.360 N 
ATOM     27  C   UNL     1      -3.677 -11.000  12.958  0.00  0.00    -0.020 A 
ATOM     29  C   UNL     1      -4.201 -10.244  11.871  0.00  0.00    +0.003 A 
ATOM     30  C   UNL     1      -2.309 -11.033  12.824  0.00  0.00    +0.087 A 
ATOM     31  C   UNL     1      -3.114  -9.832  11.098  0.00  0.00    +0.047 A 
ATOM     32  C   UNL     1      -5.499  -9.870  11.472  0.00  0.00    +0.010 A 
ATOM     33  C   UNL     1      -3.261  -9.061   9.939  0.00  0.00    +0.026 A 
ATOM     34  C   UNL     1      -5.661  -9.098  10.315  0.00  0.00    +0.001 A 
ATOM     35  C   UNL     1      -4.558  -8.702   9.561  0.00  0.00    +0.002 A 
ATOM     37  H   UNL     1      -1.037 -10.184  11.359  0.00  0.00    +0.165 HD
ENDBRANCH  26  27
ENDBRANCH  24  26
ENDBRANCH   9  24
TORSDOF 7
ENDMDL
MODEL 6
REMARK VINA RESULT:      -7.2     27.517     30.690
REMARK  Name = 7165012
REMARK  8 active torsions:
REMARK  status: ('A' for Active; 'I' for Inactive)
REMARK    1  A    between atoms: S_1  and  N_8
REMARK    2  A    between atoms: S_1  and  C_25
REMARK    3  A    between atoms: N_9  and  C_24
REMARK    4  A    between atoms: C_12  and  C_16
REMARK    5  A    between atoms: C_13  and  C_23
REMARK    6  A    between atoms: C_24  and  C_26
REMARK    7  A    between atoms: C_24  and  C_28
REMARK    8  A    between atoms: C_26  and  C_27
REMARK                            x       y       z     vdW  Elec       q    Type
REMARK                         _______ _______ _______ _____ _____    ______ ____
ROOT
ATOM      3  O   UNL     1      -4.592 -10.118  15.759  0.00  0.00    -0.274 OA
ATOM      9  N   UNL     1      -3.813 -11.285  13.902  0.00  0.00    -0.302 N 
ATOM     23  C   UNL     1      -4.694 -11.026  14.938  0.00  0.00    +0.235 C 
ATOM     36  H   UNL     1      -3.999 -12.053  13.264  0.00  0.00    +0.150 HD
ENDROOT
BRANCH  23  13
ATOM      2  O   UNL     1      -6.277 -12.625  12.241  0.00  0.00    -0.275 OA
ATOM      7  N   UNL     1      -6.898 -11.388  14.112  0.00  0.00    -0.287 N 
ATOM      8  N   UNL     1      -7.035 -11.117  16.955  0.00  0.00    -0.178 NA
ATOM     13  C   UNL     1      -5.851 -11.982  14.952  0.00  0.00    +0.177 C 
ATOM     16  C   UNL     1      -6.957 -11.735  12.758  0.00  0.00    +0.219 C 
ATOM     19  C   UNL     1      -6.318 -12.289  16.373  0.00  0.00    +0.141 C 
ATOM     20  C   UNL     1      -7.708 -10.327  14.731  0.00  0.00    +0.125 C 
ATOM     22  C   UNL     1      -8.200 -10.725  16.116  0.00  0.00    +0.128 C 
BRANCH  16  12
ATOM     12  C   UNL     1      -7.919 -10.959  11.906  0.00  0.00    +0.075 C 
ATOM     14  C   UNL     1      -8.526 -11.875  10.841  0.00  0.00    +0.013 C 
ATOM     15  C   UNL     1      -7.206  -9.761  11.275  0.00  0.00    +0.013 C 
ATOM     17  C   UNL     1      -9.440 -11.105   9.890  0.00  0.00    +0.001 C 
ATOM     18  C   UNL     1      -8.124  -8.996  10.325  0.00  0.00    +0.001 C 
ATOM     21  C   UNL     1      -8.723  -9.913   9.263  0.00  0.00    +0.000 C 
ENDBRANCH  16  12
BRANCH   8   1
ATOM      1  S   UNL     1      -7.333 -11.201  18.640  0.00  0.00    +0.029 S 
ATOM      4  O   UNL     1      -6.531 -10.197  19.304  0.00  0.00    -0.158 OA
ATOM      5  O   UNL     1      -7.308 -12.588  19.047  0.00  0.00    -0.158 OA
ATOM     25  C   UNL     1      -9.021 -10.653  18.655  0.00  0.00    +0.215 C 
ENDBRANCH   8   1
ENDBRANCH  23  13
BRANCH   9  24
ATOM     24  C   UNL     1      -2.629 -10.494  13.654  0.00  0.00    +0.163 C 
BRANCH  24  28
ATOM      6  O   UNL     1      -1.208 -11.756  15.170  0.00  0.00    -0.274 OA
ATOM     11  N   UNL     1      -1.452  -9.498  15.516  0.00  0.00    -0.328 N 
ATOM     28  C   UNL     1      -1.709 -10.679  14.852  0.00  0.00    +0.231 C 
ATOM     38  H   UNL     1      -0.842  -9.478  16.326  0.00  0.00    +0.145 HD
ATOM     39  H   UNL     1      -1.856  -8.612  15.228  0.00  0.00    +0.145 HD
ENDBRANCH  24  28
BRANCH  24  26
ATOM     26  C   UNL     1      -1.915 -10.907  12.360  0.00  0.00    +0.069 C 
BRANCH  26  27
ATOM     10  N   UNL     1      -4.090 -12.752  10.042  0.00  0.00    -0.360 N 
ATOM     27  C   UNL     1      -2.857 -11.403  11.300  0.00  0.00    -0.020 A 
ATOM     29  C   UNL     1      -3.531 -10.611  10.328  0.00  0.00    +0.003 A 
ATOM     30  C   UNL     1      -3.221 -12.713  11.099  0.00  0.00    +0.087 A 
ATOM     31  C   UNL     1      -4.298 -11.482   9.552  0.00  0.00    +0.047 A 
ATOM     32  C   UNL     1      -3.563  -9.234  10.034  0.00  0.00    +0.010 A 
ATOM     33  C   UNL     1      -5.098 -11.042   8.491  0.00  0.00    +0.026 A 
ATOM     34  C   UNL     1      -4.359  -8.779   8.976  0.00  0.00    +0.001 A 
ATOM     35  C   UNL     1      -5.114  -9.672   8.218  0.00  0.00    +0.002 A 
ATOM     37  H   UNL     1      -4.518 -13.590   9.674  0.00  0.00    +0.165 HD
ENDBRANCH  26  27
ENDBRANCH  24  26
ENDBRANCH   9  24
TORSDOF 7
ENDMDL
MODEL 7
REMARK VINA RESULT:      -7.2     28.187     30.846
REMARK  Name = 7165012
REMARK  8 active torsions:
REMARK  status: ('A' for Active; 'I' for Inactive)
REMARK    1  A    between atoms: S_1  and  N_8
REMARK    2  A    between atoms: S_1  and  C_25
REMARK    3  A    between atoms: N_9  and  C_24
REMARK    4  A    between atoms: C_12  and  C_16
REMARK    5  A    between atoms: C_13  and  C_23
REMARK    6  A    between atoms: C_24  and  C_26
REMARK    7  A    between atoms: C_24  and  C_28
REMARK    8  A    between atoms: C_26  and  C_27
REMARK                            x       y       z     vdW  Elec       q    Type
REMARK                         _______ _______ _______ _____ _____    ______ ____
ROOT
ATOM      3  O   UNL     1      -7.323  -9.858  15.652  0.00  0.00    -0.274 OA
ATOM      9  N   UNL     1      -6.759 -11.588  17.102  0.00  0.00    -0.302 N 
ATOM     23  C   UNL     1      -7.618 -10.859  16.299  0.00  0.00    +0.235 C 
ATOM     36  H   UNL     1      -7.101 -12.416  17.582  0.00  0.00    +0.150 HD
ENDROOT
BRANCH  23  13
ATOM      2  O   UNL     1     -10.371  -9.924  14.327  0.00  0.00    -0.275 OA
ATOM      7  N   UNL     1      -9.928 -10.348  16.572  0.00  0.00    -0.287 N 
ATOM      8  N   UNL     1      -9.160 -12.175  18.633  0.00  0.00    -0.178 NA
ATOM     13  C   UNL     1      -9.001 -11.444  16.267  0.00  0.00    +0.177 C 
ATOM     16  C   UNL     1     -10.487  -9.618  15.517  0.00  0.00    +0.219 C 
ATOM     19  C   UNL     1      -9.138 -12.634  17.213  0.00  0.00    +0.141 C 
ATOM     20  C   UNL     1     -10.065  -9.986  17.992  0.00  0.00    +0.125 C 
ATOM     22  C   UNL     1     -10.269 -11.211  18.872  0.00  0.00    +0.128 C 
BRANCH  16  12
ATOM     12  C   UNL     1     -11.272  -8.395  15.886  0.00  0.00    +0.075 C 
ATOM     14  C   UNL     1     -12.615  -8.397  15.152  0.00  0.00    +0.013 C 
ATOM     15  C   UNL     1     -10.460  -7.138  15.564  0.00  0.00    +0.013 C 
ATOM     17  C   UNL     1     -13.409  -7.122  15.425  0.00  0.00    +0.001 C 
ATOM     18  C   UNL     1     -11.259  -5.866  15.836  0.00  0.00    +0.001 C 
ATOM     21  C   UNL     1     -12.595  -5.872  15.100  0.00  0.00    +0.000 C 
ENDBRANCH  16  12
BRANCH   8   1
ATOM      1  S   UNL     1      -8.991 -13.412  19.807  0.00  0.00    +0.029 S 
ATOM      4  O   UNL     1      -7.916 -13.054  20.705  0.00  0.00    -0.158 OA
ATOM      5  O   UNL     1      -9.031 -14.693  19.140  0.00  0.00    -0.158 OA
ATOM     25  C   UNL     1     -10.525 -13.192  20.671  0.00  0.00    +0.215 C 
ENDBRANCH   8   1
ENDBRANCH  23  13
BRANCH   9  24
ATOM     24  C   UNL     1      -5.366 -11.249  17.284  0.00  0.00    +0.163 C 
BRANCH  24  28
ATOM      6  O   UNL     1      -3.992 -11.790  19.214  0.00  0.00    -0.274 OA
ATOM     11  N   UNL     1      -6.102 -10.954  19.567  0.00  0.00    -0.328 N 
ATOM     28  C   UNL     1      -5.063 -11.385  18.769  0.00  0.00    +0.231 C 
ATOM     38  H   UNL     1      -6.025 -10.978  20.579  0.00  0.00    +0.145 HD
ATOM     39  H   UNL     1      -6.973 -10.600  19.185  0.00  0.00    +0.145 HD
ENDBRANCH  24  28
BRANCH  24  26
ATOM     26  C   UNL     1      -4.436 -12.151  16.462  0.00  0.00    +0.069 C 
BRANCH  26  27
ATOM     10  N   UNL     1      -1.727 -10.064  15.114  0.00  0.00    -0.360 N 
ATOM     27  C   UNL     1      -3.430 -11.380  15.656  0.00  0.00    -0.020 A 
ATOM     29  C   UNL     1      -3.341 -11.329  14.236  0.00  0.00    +0.003 A 
ATOM     30  C   UNL     1      -2.425 -10.593  16.167  0.00  0.00    +0.087 A 
ATOM     31  C   UNL     1      -2.265 -10.497  13.923  0.00  0.00    +0.047 A 
ATOM     32  C   UNL     1      -4.075 -11.913  13.185  0.00  0.00    +0.010 A 
ATOM     33  C   UNL     1      -1.884 -10.219  12.605  0.00  0.00    +0.026 A 
ATOM     34  C   UNL     1      -3.706 -11.644  11.862  0.00  0.00    +0.001 A 
ATOM     35  C   UNL     1      -2.626 -10.809  11.578  0.00  0.00    +0.002 A 
ATOM     37  H   UNL     1      -0.932  -9.446  15.198  0.00  0.00    +0.165 HD
ENDBRANCH  26  27
ENDBRANCH  24  26
ENDBRANCH   9  24
TORSDOF 7
ENDMDL
MODEL 8
REMARK VINA RESULT:      -7.1     27.829     30.642
REMARK  Name = 7165012
REMARK  8 active torsions:
REMARK  status: ('A' for Active; 'I' for Inactive)
REMARK    1  A    between atoms: S_1  and  N_8
REMARK    2  A    between atoms: S_1  and  C_25
REMARK    3  A    between atoms: N_9  and  C_24
REMARK    4  A    between atoms: C_12  and  C_16
REMARK    5  A    between atoms: C_13  and  C_23
REMARK    6  A    between atoms: C_24  and  C_26
REMARK    7  A    between atoms: C_24  and  C_28
REMARK    8  A    between atoms: C_26  and  C_27
REMARK                            x       y       z     vdW  Elec       q    Type
REMARK                         _______ _______ _______ _____ _____    ______ ____
ROOT
ATOM      3  O   UNL     1      -5.621  -9.521  13.765  0.00  0.00    -0.274 OA
ATOM      9  N   UNL     1      -4.211 -11.357  14.006  0.00  0.00    -0.302 N 
ATOM     23  C   UNL     1      -5.439 -10.730  13.883  0.00  0.00    +0.235 C 
ATOM     36  H   UNL     1      -4.169 -12.369  14.080  0.00  0.00    +0.150 HD
ENDROOT
BRANCH  23  13
ATOM      2  O   UNL     1      -8.894 -10.098  13.859  0.00  0.00    -0.275 OA
ATOM      7  N   UNL     1      -7.393 -11.405  15.066  0.00  0.00    -0.287 N 
ATOM      8  N   UNL     1      -5.503 -13.549  15.151  0.00  0.00    -0.178 NA
ATOM     13  C   UNL     1      -6.579 -11.707  13.882  0.00  0.00    +0.177 C 
ATOM     16  C   UNL     1      -8.477 -10.529  14.937  0.00  0.00    +0.219 C 
ATOM     19  C   UNL     1      -6.090 -13.152  13.837  0.00  0.00    +0.141 C 
ATOM     20  C   UNL     1      -6.893 -11.920  16.350  0.00  0.00    +0.125 C 
ATOM     22  C   UNL     1      -6.489 -13.385  16.255  0.00  0.00    +0.128 C 
BRANCH  16  12
ATOM     12  C   UNL     1      -9.155 -10.106  16.207  0.00  0.00    +0.075 C 
ATOM     14  C   UNL     1     -10.533 -10.764  16.305  0.00  0.00    +0.013 C 
ATOM     15  C   UNL     1      -9.258  -8.580  16.259  0.00  0.00    +0.013 C 
ATOM     17  C   UNL     1     -11.299 -10.288  17.537  0.00  0.00    +0.001 C 
ATOM     18  C   UNL     1     -10.026  -8.109  17.492  0.00  0.00    +0.001 C 
ATOM     21  C   UNL     1     -11.400  -8.765  17.582  0.00  0.00    +0.000 C 
ENDBRANCH  16  12
BRANCH   8   1
ATOM      1  S   UNL     1      -4.634 -15.025  15.152  0.00  0.00    +0.029 S 
ATOM      4  O   UNL     1      -3.258 -14.753  14.800  0.00  0.00    -0.158 OA
ATOM      5  O   UNL     1      -5.414 -16.024  14.457  0.00  0.00    -0.158 OA
ATOM     25  C   UNL     1      -4.695 -15.388  16.888  0.00  0.00    +0.215 C 
ENDBRANCH   8   1
ENDBRANCH  23  13
BRANCH   9  24
ATOM     24  C   UNL     1      -2.955 -10.642  14.010  0.00  0.00    +0.163 C 
BRANCH  24  28
ATOM      6  O   UNL     1      -1.360 -10.240  15.799  0.00  0.00    -0.274 OA
ATOM     11  N   UNL     1      -2.906 -11.920  16.061  0.00  0.00    -0.328 N 
ATOM     28  C   UNL     1      -2.299 -10.900  15.359  0.00  0.00    +0.231 C 
ATOM     38  H   UNL     1      -2.574 -12.185  16.983  0.00  0.00    +0.145 HD
ATOM     39  H   UNL     1      -3.695 -12.441  15.694  0.00  0.00    +0.145 HD
ENDBRANCH  24  28
BRANCH  24  26
ATOM     26  C   UNL     1      -2.030 -11.088  12.869  0.00  0.00    +0.069 C 
BRANCH  26  27
ATOM     10  N   UNL     1      -3.731 -12.910  10.168  0.00  0.00    -0.360 N 
ATOM     27  C   UNL     1      -2.777 -11.571  11.660  0.00  0.00    -0.020 A 
ATOM     29  C   UNL     1      -3.352 -10.762  10.639  0.00  0.00    +0.003 A 
ATOM     30  C   UNL     1      -3.027 -12.886  11.342  0.00  0.00    +0.087 A 
ATOM     31  C   UNL     1      -3.944 -11.627   9.716  0.00  0.00    +0.047 A 
ATOM     32  C   UNL     1      -3.425  -9.374  10.412  0.00  0.00    +0.010 A 
ATOM     33  C   UNL     1      -4.608 -11.170   8.572  0.00  0.00    +0.026 A 
ATOM     34  C   UNL     1      -4.087  -8.902   9.272  0.00  0.00    +0.001 A 
ATOM     35  C   UNL     1      -4.669  -9.789   8.367  0.00  0.00    +0.002 A 
ATOM     37  H   UNL     1      -4.050 -13.747   9.700  0.00  0.00    +0.165 HD
ENDBRANCH  26  27
ENDBRANCH  24  26
ENDBRANCH   9  24
TORSDOF 7
ENDMDL
MODEL 9
REMARK VINA RESULT:      -7.0     15.442     20.172
REMARK  Name = 7165012
REMARK  8 active torsions:
REMARK  status: ('A' for Active; 'I' for Inactive)
REMARK    1  A    between atoms: S_1  and  N_8
REMARK    2  A    between atoms: S_1  and  C_25
REMARK    3  A    between atoms: N_9  and  C_24
REMARK    4  A    between atoms: C_12  and  C_16
REMARK    5  A    between atoms: C_13  and  C_23
REMARK    6  A    between atoms: C_24  and  C_26
REMARK    7  A    between atoms: C_24  and  C_28
REMARK    8  A    between atoms: C_26  and  C_27
REMARK                            x       y       z     vdW  Elec       q    Type
REMARK                         _______ _______ _______ _____ _____    ______ ____
ROOT
ATOM      3  O   UNL     1      10.248   5.104   3.317  0.00  0.00    -0.274 OA
ATOM      9  N   UNL     1      11.020   6.485   5.024  0.00  0.00    -0.302 N 
ATOM     23  C   UNL     1      10.864   6.093   3.706  0.00  0.00    +0.235 C 
ATOM     36  H   UNL     1      11.536   7.333   5.239  0.00  0.00    +0.150 HD
ENDROOT
BRANCH  23  13
ATOM      2  O   UNL     1      10.642   6.214   0.203  0.00  0.00    -0.275 OA
ATOM      7  N   UNL     1      12.314   6.220   1.821  0.00  0.00    -0.287 N 
ATOM      8  N   UNL     1      13.600   7.495   4.034  0.00  0.00    -0.178 NA
ATOM     13  C   UNL     1      11.526   7.041   2.749  0.00  0.00    +0.177 C 
ATOM     16  C   UNL     1      11.732   5.811   0.616  0.00  0.00    +0.219 C 
ATOM     19  C   UNL     1      12.355   8.097   3.475  0.00  0.00    +0.141 C 
ATOM     20  C   UNL     1      13.615   5.742   2.316  0.00  0.00    +0.125 C 
ATOM     22  C   UNL     1      14.420   6.859   2.966  0.00  0.00    +0.128 C 
BRANCH  16  12
ATOM     12  C   UNL     1      12.506   4.821  -0.203  0.00  0.00    +0.075 C 
ATOM     14  C   UNL     1      13.250   5.545  -1.327  0.00  0.00    +0.013 C 
ATOM     15  C   UNL     1      11.562   3.751  -0.755  0.00  0.00    +0.013 C 
ATOM     17  C   UNL     1      13.977   4.565  -2.245  0.00  0.00    +0.001 C 
ATOM     18  C   UNL     1      12.293   2.774  -1.674  0.00  0.00    +0.001 C 
ATOM     21  C   UNL     1      13.030   3.501  -2.794  0.00  0.00    +0.000 C 
ENDBRANCH  16  12
BRANCH   8   1
ATOM      1  S   UNL     1      14.463   8.482   5.137  0.00  0.00    +0.029 S 
ATOM      4  O   UNL     1      15.455   7.671   5.808  0.00  0.00    -0.158 OA
ATOM      5  O   UNL     1      13.518   9.292   5.872  0.00  0.00    -0.158 OA
ATOM     25  C   UNL     1      15.304   9.531   3.979  0.00  0.00    +0.215 C 
ENDBRANCH   8   1
ENDBRANCH  23  13
BRANCH   9  24
ATOM     24  C   UNL     1      10.458   5.756   6.138  0.00  0.00    +0.163 C 
BRANCH  24  28
ATOM      6  O   UNL     1      11.158   5.605   8.461  0.00  0.00    -0.274 OA
ATOM     11  N   UNL     1      12.686   6.309   6.896  0.00  0.00    -0.328 N 
ATOM     28  C   UNL     1      11.435   5.888   7.297  0.00  0.00    +0.231 C 
ATOM     38  H   UNL     1      13.436   6.426   7.569  0.00  0.00    +0.145 HD
ATOM     39  H   UNL     1      12.906   6.517   5.927  0.00  0.00    +0.145 HD
ENDBRANCH  24  28
BRANCH  24  26
ATOM     26  C   UNL     1       9.074   6.285   6.540  0.00  0.00    +0.069 C 
BRANCH  26  27
ATOM     10  N   UNL     1       9.112   9.933   6.985  0.00  0.00    -0.360 N 
ATOM     27  C   UNL     1       8.970   7.781   6.461  0.00  0.00    -0.020 A 
ATOM     29  C   UNL     1       8.440   8.538   5.379  0.00  0.00    +0.003 A 
ATOM     30  C   UNL     1       9.376   8.666   7.433  0.00  0.00    +0.087 A 
ATOM     31  C   UNL     1       8.541   9.885   5.733  0.00  0.00    +0.047 A 
ATOM     32  C   UNL     1       7.883   8.205   4.128  0.00  0.00    +0.010 A 
ATOM     33  C   UNL     1       8.110  10.920   4.896  0.00  0.00    +0.026 A 
ATOM     34  C   UNL     1       7.448   9.230   3.280  0.00  0.00    +0.001 A 
ATOM     35  C   UNL     1       7.560  10.567   3.660  0.00  0.00    +0.002 A 
ATOM     37  H   UNL     1       9.309  10.782   7.498  0.00  0.00    +0.165 HD
ENDBRANCH  26  27
ENDBRANCH  24  26
ENDBRANCH   9  24
TORSDOF 7
ENDMDL
MODEL 10
REMARK VINA RESULT:      -7.0     15.464     18.082
REMARK  Name = 7165012
REMARK  8 active torsions:
REMARK  status: ('A' for Active; 'I' for Inactive)
REMARK    1  A    between atoms: S_1  and  N_8
REMARK    2  A    between atoms: S_1  and  C_25
REMARK    3  A    between atoms: N_9  and  C_24
REMARK    4  A    between atoms: C_12  and  C_16
REMARK    5  A    between atoms: C_13  and  C_23
REMARK    6  A    between atoms: C_24  and  C_26
REMARK    7  A    between atoms: C_24  and  C_28
REMARK    8  A    between atoms: C_26  and  C_27
REMARK                            x       y       z     vdW  Elec       q    Type
REMARK                         _______ _______ _______ _____ _____    ______ ____
ROOT
ATOM      3  O   UNL     1      13.128   6.517   7.246  0.00  0.00    -0.274 OA
ATOM      9  N   UNL     1      10.958   6.965   6.534  0.00  0.00    -0.302 N 
ATOM     23  C   UNL     1      12.239   7.305   6.933  0.00  0.00    +0.235 C 
ATOM     36  H   UNL     1      10.301   7.696   6.277  0.00  0.00    +0.150 HD
ENDROOT
BRANCH  23  13
ATOM      2  O   UNL     1       9.939   9.892   7.520  0.00  0.00    -0.275 OA
ATOM      7  N   UNL     1      11.543   9.347   5.925  0.00  0.00    -0.287 N 
ATOM      8  N   UNL     1      14.280   8.890   5.236  0.00  0.00    -0.178 NA
ATOM     13  C   UNL     1      12.463   8.789   6.923  0.00  0.00    +0.177 C 
ATOM     16  C   UNL     1      10.284   9.795   6.340  0.00  0.00    +0.219 C 
ATOM     19  C   UNL     1      13.925   9.143   6.663  0.00  0.00    +0.141 C 
ATOM     20  C   UNL     1      11.958   9.230   4.518  0.00  0.00    +0.125 C 
ATOM     22  C   UNL     1      13.403   9.665   4.315  0.00  0.00    +0.128 C 
BRANCH  16  12
ATOM     12  C   UNL     1       9.315  10.176   5.259  0.00  0.00    +0.075 C 
ATOM     14  C   UNL     1       9.063  11.685   5.294  0.00  0.00    +0.013 C 
ATOM     15  C   UNL     1       8.015   9.387   5.424  0.00  0.00    +0.013 C 
ATOM     17  C   UNL     1       8.010  12.105   4.272  0.00  0.00    +0.001 C 
ATOM     18  C   UNL     1       6.964   9.811   4.400  0.00  0.00    +0.001 C 
ATOM     21  C   UNL     1       6.715  11.316   4.442  0.00  0.00    +0.000 C 
ENDBRANCH  16  12
BRANCH   8   1
ATOM      1  S   UNL     1      15.954   8.939   4.875  0.00  0.00    +0.029 S 
ATOM      4  O   UNL     1      16.695   8.559   6.058  0.00  0.00    -0.158 OA
ATOM      5  O   UNL     1      16.239  10.161   4.158  0.00  0.00    -0.158 OA
ATOM     25  C   UNL     1      16.034   7.593   3.722  0.00  0.00    +0.215 C 
ENDBRANCH   8   1
ENDBRANCH  23  13
BRANCH   9  24
ATOM     24  C   UNL     1      10.497   5.599   6.435  0.00  0.00    +0.163 C 
BRANCH  24  28
ATOM      6  O   UNL     1       9.168   5.950   8.440  0.00  0.00    -0.274 OA
ATOM     11  N   UNL     1      10.280   3.955   8.194  0.00  0.00    -0.328 N 
ATOM     28  C   UNL     1       9.917   5.223   7.791  0.00  0.00    +0.231 C 
ATOM     38  H   UNL     1       9.950   3.575   9.075  0.00  0.00    +0.145 HD
ATOM     39  H   UNL     1      10.882   3.357   7.636  0.00  0.00    +0.145 HD
ENDBRANCH  24  28
BRANCH  24  26
ATOM     26  C   UNL     1       9.443   5.420   5.333  0.00  0.00    +0.069 C 
BRANCH  26  27
ATOM     10  N   UNL     1      11.187   4.557   2.215  0.00  0.00    -0.360 N 
ATOM     27  C   UNL     1      10.041   5.310   3.960  0.00  0.00    -0.020 A 
ATOM     29  C   UNL     1       9.873   6.230   2.886  0.00  0.00    +0.003 A 
ATOM     30  C   UNL     1      10.852   4.292   3.516  0.00  0.00    +0.087 A 
ATOM     31  C   UNL     1      10.602   5.734   1.804  0.00  0.00    +0.047 A 
ATOM     32  C   UNL     1       9.169   7.441   2.733  0.00  0.00    +0.010 A 
ATOM     33  C   UNL     1      10.663   6.391   0.570  0.00  0.00    +0.026 A 
ATOM     34  C   UNL     1       9.220   8.109   1.503  0.00  0.00    +0.001 A 
ATOM     35  C   UNL     1       9.957   7.590   0.440  0.00  0.00    +0.002 A 
ATOM     37  H   UNL     1      11.776   3.973   1.637  0.00  0.00    +0.165 HD
ENDBRANCH  26  27
ENDBRANCH  24  26
ENDBRANCH   9  24
TORSDOF 7
ENDMDL
