MODEL 1
REMARK VINA RESULT:      -5.7      0.000      0.000
REMARK  Name = 75537105
REMARK  3 active torsions:
REMARK  status: ('A' for Active; 'I' for Inactive)
REMARK    1  A    between atoms: N_3  and  C_12
REMARK    2  A    between atoms: N_4  and  C_13
REMARK    3  A    between atoms: C_12  and  C_14
REMARK                            x       y       z     vdW  Elec       q    Type
REMARK                         _______ _______ _______ _____ _____    ______ ____
ROOT
ATOM      1  O   UNL     1      10.585   8.382  19.372  0.00  0.00    -0.252 OA
ATOM      2  N   UNL     1      12.875   7.954  19.672  0.00  0.00    -0.278 N 
ATOM      3  N   UNL     1      15.418   7.995  20.872  0.00  0.00    -0.295 NA
ATOM      4  N   UNL     1      12.166   8.571  17.633  0.00  0.00    -0.287 N 
ATOM      6  C   UNL     1      14.050   7.851  18.831  0.00  0.00    +0.109 C 
ATOM      7  C   UNL     1      15.245   8.524  19.503  0.00  0.00    +0.109 C 
ATOM      8  C   UNL     1      13.611   8.488  17.514  0.00  0.00    +0.132 C 
ATOM      9  C   UNL     1      12.973   7.601  21.072  0.00  0.00    +0.125 C 
ATOM     10  C   UNL     1      14.215   8.248  21.690  0.00  0.00    +0.104 C 
ATOM     11  C   UNL     1      11.730   8.307  18.946  0.00  0.00    +0.305 C 
ATOM     13  C   UNL     1      11.332   9.024  16.540  0.00  0.00    +0.133 C 
ENDROOT
BRANCH   3  12
ATOM     12  C   UNL     1      16.597   8.589  21.502  0.00  0.00    +0.121 C 
BRANCH  12  14
ATOM      5  N   UNL     1      18.871   5.807  20.310  0.00  0.00    -0.263 NA
ATOM     14  C   UNL     1      17.849   7.811  21.198  0.00  0.00    -0.015 A 
ATOM     15  C   UNL     1      19.104   8.326  21.501  0.00  0.00    +0.008 A 
ATOM     16  C   UNL     1      17.787   6.558  20.608  0.00  0.00    +0.115 A 
ATOM     17  C   UNL     1      20.243   7.583  21.209  0.00  0.00    +0.020 A 
ATOM     18  C   UNL     1      20.074   6.341  20.619  0.00  0.00    +0.111 A 
ENDBRANCH  12  14
ENDBRANCH   3  12
TORSDOF 2
ENDMDL
MODEL 2
REMARK VINA RESULT:      -5.3      2.670      6.829
REMARK  Name = 75537105
REMARK  3 active torsions:
REMARK  status: ('A' for Active; 'I' for Inactive)
REMARK    1  A    between atoms: N_3  and  C_12
REMARK    2  A    between atoms: N_4  and  C_13
REMARK    3  A    between atoms: C_12  and  C_14
REMARK                            x       y       z     vdW  Elec       q    Type
REMARK                         _______ _______ _______ _____ _____    ______ ____
ROOT
ATOM      1  O   UNL     1      19.610   9.088  22.697  0.00  0.00    -0.252 OA
ATOM      2  N   UNL     1      17.857   8.237  21.385  0.00  0.00    -0.278 N 
ATOM      3  N   UNL     1      15.242   7.505  20.652  0.00  0.00    -0.295 NA
ATOM      4  N   UNL     1      19.770   7.066  21.494  0.00  0.00    -0.287 N 
ATOM      6  C   UNL     1      17.669   7.144  20.453  0.00  0.00    +0.109 C 
ATOM      7  C   UNL     1      16.309   6.483  20.677  0.00  0.00    +0.109 C 
ATOM      8  C   UNL     1      18.872   6.238  20.708  0.00  0.00    +0.132 C 
ATOM      9  C   UNL     1      16.805   9.217  21.550  0.00  0.00    +0.125 C 
ATOM     10  C   UNL     1      15.454   8.514  21.710  0.00  0.00    +0.104 C 
ATOM     11  C   UNL     1      19.139   8.241  21.950  0.00  0.00    +0.305 C 
ATOM     13  C   UNL     1      21.097   6.620  21.864  0.00  0.00    +0.133 C 
ENDROOT
BRANCH   3  12
ATOM     12  C   UNL     1      13.931   6.876  20.804  0.00  0.00    +0.121 C 
BRANCH  12  14
ATOM      5  N   UNL     1      10.729   8.478  19.577  0.00  0.00    -0.263 NA
ATOM     14  C   UNL     1      12.909   7.477  19.877  0.00  0.00    -0.015 A 
ATOM     15  C   UNL     1      13.158   7.593  18.514  0.00  0.00    +0.008 A 
ATOM     16  C   UNL     1      11.689   7.930  20.354  0.00  0.00    +0.115 A 
ATOM     17  C   UNL     1      12.194   8.151  17.682  0.00  0.00    +0.020 A 
ATOM     18  C   UNL     1      11.007   8.574  18.257  0.00  0.00    +0.111 A 
ENDBRANCH  12  14
ENDBRANCH   3  12
TORSDOF 2
ENDMDL
MODEL 3
REMARK VINA RESULT:      -5.2     26.712     28.087
REMARK  Name = 75537105
REMARK  3 active torsions:
REMARK  status: ('A' for Active; 'I' for Inactive)
REMARK    1  A    between atoms: N_3  and  C_12
REMARK    2  A    between atoms: N_4  and  C_13
REMARK    3  A    between atoms: C_12  and  C_14
REMARK                            x       y       z     vdW  Elec       q    Type
REMARK                         _______ _______ _______ _____ _____    ______ ____
ROOT
ATOM      1  O   UNL     1      -4.755 -10.499  17.991  0.00  0.00    -0.252 OA
ATOM      2  N   UNL     1      -4.412 -10.883  15.699  0.00  0.00    -0.278 N 
ATOM      3  N   UNL     1      -3.099 -10.929  13.212  0.00  0.00    -0.295 NA
ATOM      4  N   UNL     1      -6.370  -9.996  16.349  0.00  0.00    -0.287 N 
ATOM      6  C   UNL     1      -5.202 -10.818  14.487  0.00  0.00    +0.109 C 
ATOM      7  C   UNL     1      -4.382 -10.209  13.351  0.00  0.00    +0.109 C 
ATOM      8  C   UNL     1      -6.431 -10.008  14.897  0.00  0.00    +0.132 C 
ATOM      9  C   UNL     1      -3.076 -11.437  15.645  0.00  0.00    +0.125 C 
ATOM     10  C   UNL     1      -2.311 -10.845  14.458  0.00  0.00    +0.104 C 
ATOM     11  C   UNL     1      -5.132 -10.468  16.827  0.00  0.00    +0.305 C 
ATOM     13  C   UNL     1      -7.423  -9.416  17.155  0.00  0.00    +0.133 C 
ENDROOT
BRANCH   3  12
ATOM     12  C   UNL     1      -2.334 -10.393  12.088  0.00  0.00    +0.121 C 
BRANCH  12  14
ATOM      5  N   UNL     1      -4.333 -11.588   9.104  0.00  0.00    -0.263 NA
ATOM     14  C   UNL     1      -3.143 -10.368  10.819  0.00  0.00    -0.015 A 
ATOM     15  C   UNL     1      -3.449  -9.167  10.188  0.00  0.00    +0.008 A 
ATOM     16  C   UNL     1      -3.604 -11.540  10.241  0.00  0.00    +0.115 A 
ATOM     17  C   UNL     1      -4.197  -9.175   9.016  0.00  0.00    +0.020 A 
ATOM     18  C   UNL     1      -4.611 -10.400   8.519  0.00  0.00    +0.111 A 
ENDBRANCH  12  14
ENDBRANCH   3  12
TORSDOF 2
ENDMDL
MODEL 4
REMARK VINA RESULT:      -5.1     31.858     33.047
REMARK  Name = 75537105
REMARK  3 active torsions:
REMARK  status: ('A' for Active; 'I' for Inactive)
REMARK    1  A    between atoms: N_3  and  C_12
REMARK    2  A    between atoms: N_4  and  C_13
REMARK    3  A    between atoms: C_12  and  C_14
REMARK                            x       y       z     vdW  Elec       q    Type
REMARK                         _______ _______ _______ _____ _____    ______ ____
ROOT
ATOM      1  O   UNL     1     -15.742  -0.456  30.193  0.00  0.00    -0.252 OA
ATOM      2  N   UNL     1     -15.104   1.664  30.978  0.00  0.00    -0.278 N 
ATOM      3  N   UNL     1     -14.855   3.847  32.733  0.00  0.00    -0.295 NA
ATOM      4  N   UNL     1     -15.903   1.500  28.886  0.00  0.00    -0.287 N 
ATOM      6  C   UNL     1     -14.953   2.994  30.426  0.00  0.00    +0.109 C 
ATOM      7  C   UNL     1     -15.479   4.040  31.408  0.00  0.00    +0.109 C 
ATOM      8  C   UNL     1     -15.704   2.924  29.098  0.00  0.00    +0.132 C 
ATOM      9  C   UNL     1     -14.659   1.403  32.330  0.00  0.00    +0.125 C 
ATOM     10  C   UNL     1     -15.158   2.505  33.268  0.00  0.00    +0.104 C 
ATOM     11  C   UNL     1     -15.596   0.749  30.038  0.00  0.00    +0.305 C 
ATOM     13  C   UNL     1     -16.490   0.982  27.669  0.00  0.00    +0.133 C 
ENDROOT
BRANCH   3  12
ATOM     12  C   UNL     1     -15.306   4.881  33.663  0.00  0.00    +0.121 C 
BRANCH  12  14
ATOM      5  N   UNL     1     -15.558   8.506  32.602  0.00  0.00    -0.263 NA
ATOM     14  C   UNL     1     -14.904   6.259  33.210  0.00  0.00    -0.015 A 
ATOM     15  C   UNL     1     -13.571   6.577  32.978  0.00  0.00    +0.008 A 
ATOM     16  C   UNL     1     -15.851   7.251  33.009  0.00  0.00    +0.115 A 
ATOM     17  C   UNL     1     -13.230   7.857  32.558  0.00  0.00    +0.020 A 
ATOM     18  C   UNL     1     -14.251   8.777  32.387  0.00  0.00    +0.111 A 
ENDBRANCH  12  14
ENDBRANCH   3  12
TORSDOF 2
ENDMDL
MODEL 5
REMARK VINA RESULT:      -5.1     26.579     28.125
REMARK  Name = 75537105
REMARK  3 active torsions:
REMARK  status: ('A' for Active; 'I' for Inactive)
REMARK    1  A    between atoms: N_3  and  C_12
REMARK    2  A    between atoms: N_4  and  C_13
REMARK    3  A    between atoms: C_12  and  C_14
REMARK                            x       y       z     vdW  Elec       q    Type
REMARK                         _______ _______ _______ _____ _____    ______ ____
ROOT
ATOM      1  O   UNL     1      -8.046 -10.736  19.849  0.00  0.00    -0.252 OA
ATOM      2  N   UNL     1      -6.532 -11.146  18.100  0.00  0.00    -0.278 N 
ATOM      3  N   UNL     1      -4.069 -11.422  16.770  0.00  0.00    -0.295 NA
ATOM      4  N   UNL     1      -8.339  -9.884  17.670  0.00  0.00    -0.287 N 
ATOM      6  C   UNL     1      -6.472 -10.899  16.674  0.00  0.00    +0.109 C 
ATOM      7  C   UNL     1      -5.068 -10.454  16.270  0.00  0.00    +0.109 C 
ATOM      8  C   UNL     1      -7.567  -9.860  16.439  0.00  0.00    +0.132 C 
ATOM      9  C   UNL     1      -5.511 -11.962  18.721  0.00  0.00    +0.125 C 
ATOM     10  C   UNL     1      -4.125 -11.522  18.242  0.00  0.00    +0.104 C 
ATOM     11  C   UNL     1      -7.686 -10.609  18.686  0.00  0.00    +0.305 C 
ATOM     13  C   UNL     1      -9.553  -9.112  17.828  0.00  0.00    +0.133 C 
ENDROOT
BRANCH   3  12
ATOM     12  C   UNL     1      -2.727 -11.038  16.336  0.00  0.00    +0.121 C 
BRANCH  12  14
ATOM      5  N   UNL     1      -2.638 -12.817  12.996  0.00  0.00    -0.263 NA
ATOM     14  C   UNL     1      -2.518 -11.290  14.867  0.00  0.00    -0.015 A 
ATOM     15  C   UNL     1      -2.029 -10.292  14.031  0.00  0.00    +0.008 A 
ATOM     16  C   UNL     1      -2.804 -12.524  14.306  0.00  0.00    +0.115 A 
ATOM     17  C   UNL     1      -1.845 -10.555  12.678  0.00  0.00    +0.020 A 
ATOM     18  C   UNL     1      -2.161 -11.821  12.215  0.00  0.00    +0.111 A 
ENDBRANCH  12  14
ENDBRANCH   3  12
TORSDOF 2
ENDMDL
MODEL 6
REMARK VINA RESULT:      -5.0     26.364     28.621
REMARK  Name = 75537105
REMARK  3 active torsions:
REMARK  status: ('A' for Active; 'I' for Inactive)
REMARK    1  A    between atoms: N_3  and  C_12
REMARK    2  A    between atoms: N_4  and  C_13
REMARK    3  A    between atoms: C_12  and  C_14
REMARK                            x       y       z     vdW  Elec       q    Type
REMARK                         _______ _______ _______ _____ _____    ______ ____
ROOT
ATOM      1  O   UNL     1     -10.295  -9.274  17.970  0.00  0.00    -0.252 OA
ATOM      2  N   UNL     1      -8.099 -10.071  17.723  0.00  0.00    -0.278 N 
ATOM      3  N   UNL     1      -5.758 -10.961  16.444  0.00  0.00    -0.295 NA
ATOM      4  N   UNL     1      -9.399 -11.005  19.298  0.00  0.00    -0.287 N 
ATOM      6  C   UNL     1      -7.222 -10.987  18.422  0.00  0.00    +0.109 C 
ATOM      7  C   UNL     1      -6.435 -11.835  17.424  0.00  0.00    +0.109 C 
ATOM      8  C   UNL     1      -8.167 -11.774  19.328  0.00  0.00    +0.132 C 
ATOM      9  C   UNL     1      -7.570  -9.271  16.639  0.00  0.00    +0.125 C 
ATOM     10  C   UNL     1      -6.739 -10.148  15.698  0.00  0.00    +0.104 C 
ATOM     11  C   UNL     1      -9.379 -10.018  18.292  0.00  0.00    +0.305 C 
ATOM     13  C   UNL     1     -10.538 -11.349  20.122  0.00  0.00    +0.133 C 
ENDROOT
BRANCH   3  12
ATOM     12  C   UNL     1      -4.953 -11.760  15.521  0.00  0.00    +0.121 C 
BRANCH  12  14
ATOM      5  N   UNL     1      -2.027 -10.172  13.718  0.00  0.00    -0.263 NA
ATOM     14  C   UNL     1      -3.602 -11.142  15.275  0.00  0.00    -0.015 A 
ATOM     15  C   UNL     1      -2.695 -10.966  16.314  0.00  0.00    +0.008 A 
ATOM     16  C   UNL     1      -3.223 -10.732  14.007  0.00  0.00    +0.115 A 
ATOM     17  C   UNL     1      -1.454 -10.394  16.057  0.00  0.00    +0.020 A 
ATOM     18  C   UNL     1      -1.171 -10.017  14.754  0.00  0.00    +0.111 A 
ENDBRANCH  12  14
ENDBRANCH   3  12
TORSDOF 2
ENDMDL
MODEL 7
REMARK VINA RESULT:      -5.0     28.335     30.452
REMARK  Name = 75537105
REMARK  3 active torsions:
REMARK  status: ('A' for Active; 'I' for Inactive)
REMARK    1  A    between atoms: N_3  and  C_12
REMARK    2  A    between atoms: N_4  and  C_13
REMARK    3  A    between atoms: C_12  and  C_14
REMARK                            x       y       z     vdW  Elec       q    Type
REMARK                         _______ _______ _______ _____ _____    ______ ____
ROOT
ATOM      1  O   UNL     1       3.023   7.360  -4.560  0.00  0.00    -0.252 OA
ATOM      2  N   UNL     1       2.335   5.392  -5.643  0.00  0.00    -0.278 N 
ATOM      3  N   UNL     1       1.367   2.771  -5.959  0.00  0.00    -0.295 NA
ATOM      4  N   UNL     1       4.216   6.395  -6.350  0.00  0.00    -0.287 N 
ATOM      6  C   UNL     1       2.738   4.631  -6.807  0.00  0.00    +0.109 C 
ATOM      7  C   UNL     1       2.691   3.134  -6.505  0.00  0.00    +0.109 C 
ATOM      8  C   UNL     1       4.127   5.176  -7.135  0.00  0.00    +0.132 C 
ATOM      9  C   UNL     1       1.126   5.025  -4.939  0.00  0.00    +0.125 C 
ATOM     10  C   UNL     1       1.091   3.511  -4.711  0.00  0.00    +0.104 C 
ATOM     11  C   UNL     1       3.169   6.495  -5.412  0.00  0.00    +0.305 C 
ATOM     13  C   UNL     1       5.347   7.292  -6.453  0.00  0.00    +0.133 C 
ENDROOT
BRANCH   3  12
ATOM     12  C   UNL     1       1.291   1.330  -5.724  0.00  0.00    +0.121 C 
BRANCH  12  14
ATOM      5  N   UNL     1      -1.809   0.910  -7.855  0.00  0.00    -0.263 NA
ATOM     14  C   UNL     1       0.039   0.731  -6.307  0.00  0.00    -0.015 A 
ATOM     15  C   UNL     1      -0.435  -0.502  -5.872  0.00  0.00    +0.008 A 
ATOM     16  C   UNL     1      -0.678   1.391  -7.292  0.00  0.00    +0.115 A 
ATOM     17  C   UNL     1      -1.596  -1.029  -6.427  0.00  0.00    +0.020 A 
ATOM     18  C   UNL     1      -2.239  -0.291  -7.407  0.00  0.00    +0.111 A 
ENDBRANCH  12  14
ENDBRANCH   3  12
TORSDOF 2
ENDMDL
MODEL 8
REMARK VINA RESULT:      -5.0      4.147      6.073
REMARK  Name = 75537105
REMARK  3 active torsions:
REMARK  status: ('A' for Active; 'I' for Inactive)
REMARK    1  A    between atoms: N_3  and  C_12
REMARK    2  A    between atoms: N_4  and  C_13
REMARK    3  A    between atoms: C_12  and  C_14
REMARK                            x       y       z     vdW  Elec       q    Type
REMARK                         _______ _______ _______ _____ _____    ______ ____
ROOT
ATOM      1  O   UNL     1      16.740  12.363  16.376  0.00  0.00    -0.252 OA
ATOM      2  N   UNL     1      14.856  11.099  16.984  0.00  0.00    -0.278 N 
ATOM      3  N   UNL     1      13.343   9.048  18.173  0.00  0.00    -0.295 NA
ATOM      4  N   UNL     1      15.025  11.802  14.858  0.00  0.00    -0.287 N 
ATOM      6  C   UNL     1      13.606  10.700  16.368  0.00  0.00    +0.109 C 
ATOM      7  C   UNL     1      13.286   9.246  16.710  0.00  0.00    +0.109 C 
ATOM      8  C   UNL     1      13.829  10.976  14.883  0.00  0.00    +0.132 C 
ATOM      9  C   UNL     1      15.077  10.816  18.386  0.00  0.00    +0.125 C 
ATOM     10  C   UNL     1      14.686   9.368  18.696  0.00  0.00    +0.104 C 
ATOM     11  C   UNL     1      15.673  11.826  16.109  0.00  0.00    +0.305 C 
ATOM     13  C   UNL     1      15.529  12.383  13.632  0.00  0.00    +0.133 C 
ENDROOT
BRANCH   3  12
ATOM     12  C   UNL     1      12.978   7.674  18.515  0.00  0.00    +0.121 C 
BRANCH  12  14
ATOM      5  N   UNL     1      11.366   6.337  21.669  0.00  0.00    -0.263 NA
ATOM     14  C   UNL     1      12.140   7.610  19.765  0.00  0.00    -0.015 A 
ATOM     15  C   UNL     1      11.383   8.701  20.177  0.00  0.00    +0.008 A 
ATOM     16  C   UNL     1      12.097   6.462  20.539  0.00  0.00    +0.115 A 
ATOM     17  C   UNL     1      10.618   8.612  21.334  0.00  0.00    +0.020 A 
ATOM     18  C   UNL     1      10.644   7.420  22.038  0.00  0.00    +0.111 A 
ENDBRANCH  12  14
ENDBRANCH   3  12
TORSDOF 2
ENDMDL
MODEL 9
REMARK VINA RESULT:      -4.9     14.416     17.857
REMARK  Name = 75537105
REMARK  3 active torsions:
REMARK  status: ('A' for Active; 'I' for Inactive)
REMARK    1  A    between atoms: N_3  and  C_12
REMARK    2  A    between atoms: N_4  and  C_13
REMARK    3  A    between atoms: C_12  and  C_14
REMARK                            x       y       z     vdW  Elec       q    Type
REMARK                         _______ _______ _______ _____ _____    ______ ____
ROOT
ATOM      1  O   UNL     1      14.429   6.604   0.780  0.00  0.00    -0.252 OA
ATOM      2  N   UNL     1      12.443   5.811   1.752  0.00  0.00    -0.278 N 
ATOM      3  N   UNL     1      10.579   5.157   3.754  0.00  0.00    -0.295 NA
ATOM      4  N   UNL     1      13.394   4.589   0.126  0.00  0.00    -0.287 N 
ATOM      6  C   UNL     1      11.507   4.732   1.514  0.00  0.00    +0.109 C 
ATOM      7  C   UNL     1      11.070   4.106   2.838  0.00  0.00    +0.109 C 
ATOM      8  C   UNL     1      12.267   3.792   0.580  0.00  0.00    +0.132 C 
ATOM      9  C   UNL     1      12.127   6.818   2.742  0.00  0.00    +0.125 C 
ATOM     10  C   UNL     1      11.636   6.150   4.030  0.00  0.00    +0.104 C 
ATOM     11  C   UNL     1      13.533   5.776   0.872  0.00  0.00    +0.305 C 
ATOM     13  C   UNL     1      14.321   4.104  -0.874  0.00  0.00    +0.133 C 
ENDROOT
BRANCH   3  12
ATOM     12  C   UNL     1      10.101   4.562   5.001  0.00  0.00    +0.121 C 
BRANCH  12  14
ATOM      5  N   UNL     1       9.748   6.626   8.154  0.00  0.00    -0.263 NA
ATOM     14  C   UNL     1       9.607   5.604   5.968  0.00  0.00    -0.015 A 
ATOM     15  C   UNL     1       8.591   6.486   5.613  0.00  0.00    +0.008 A 
ATOM     16  C   UNL     1      10.147   5.715   7.239  0.00  0.00    +0.115 A 
ATOM     17  C   UNL     1       8.154   7.437   6.527  0.00  0.00    +0.020 A 
ATOM     18  C   UNL     1       8.759   7.466   7.773  0.00  0.00    +0.111 A 
ENDBRANCH  12  14
ENDBRANCH   3  12
TORSDOF 2
ENDMDL
MODEL 10
REMARK VINA RESULT:      -4.8     30.023     31.789
REMARK  Name = 75537105
REMARK  3 active torsions:
REMARK  status: ('A' for Active; 'I' for Inactive)
REMARK    1  A    between atoms: N_3  and  C_12
REMARK    2  A    between atoms: N_4  and  C_13
REMARK    3  A    between atoms: C_12  and  C_14
REMARK                            x       y       z     vdW  Elec       q    Type
REMARK                         _______ _______ _______ _____ _____    ______ ____
ROOT
ATOM      1  O   UNL     1     -15.002   0.838  33.125  0.00  0.00    -0.252 OA
ATOM      2  N   UNL     1     -14.038   2.977  33.007  0.00  0.00    -0.278 N 
ATOM      3  N   UNL     1     -13.787   5.763  33.298  0.00  0.00    -0.295 NA
ATOM      4  N   UNL     1     -13.865   1.631  31.217  0.00  0.00    -0.287 N 
ATOM      6  C   UNL     1     -13.193   3.706  32.084  0.00  0.00    +0.109 C 
ATOM      7  C   UNL     1     -13.669   5.152  31.958  0.00  0.00    +0.109 C 
ATOM      8  C   UNL     1     -13.274   2.889  30.796  0.00  0.00    +0.132 C 
ATOM      9  C   UNL     1     -14.342   3.556  34.298  0.00  0.00    +0.125 C 
ATOM     10  C   UNL     1     -14.755   5.021  34.131  0.00  0.00    +0.104 C 
ATOM     11  C   UNL     1     -14.377   1.704  32.529  0.00  0.00    +0.305 C 
ATOM     13  C   UNL     1     -14.021   0.515  30.310  0.00  0.00    +0.133 C 
ENDROOT
BRANCH   3  12
ATOM     12  C   UNL     1     -14.183   7.166  33.185  0.00  0.00    +0.121 C 
BRANCH  12  14
ATOM      5  N   UNL     1     -11.651   9.505  34.750  0.00  0.00    -0.263 NA
ATOM     14  C   UNL     1     -13.006   8.094  33.329  0.00  0.00    -0.015 A 
ATOM     15  C   UNL     1     -12.204   8.409  32.238  0.00  0.00    +0.008 A 
ATOM     16  C   UNL     1     -12.690   8.664  34.552  0.00  0.00    +0.115 A 
ATOM     17  C   UNL     1     -11.125   9.270  32.401  0.00  0.00    +0.020 A 
ATOM     18  C   UNL     1     -10.893   9.787  33.665  0.00  0.00    +0.111 A 
ENDBRANCH  12  14
ENDBRANCH   3  12
TORSDOF 2
ENDMDL
