MODEL 1
REMARK VINA RESULT:      -7.6      0.000      0.000
REMARK  Name = 45784229
REMARK  3 active torsions:
REMARK  status: ('A' for Active; 'I' for Inactive)
REMARK    1  A    between atoms: N_3  and  C_11
REMARK    2  A    between atoms: C_6  and  C_10
REMARK    3  A    between atoms: C_11  and  C_12
REMARK                            x       y       z     vdW  Elec       q    Type
REMARK                         _______ _______ _______ _____ _____    ______ ____
ROOT
ATOM      3  N   UNL     1      11.994   4.182   1.847  0.00  0.00    -0.297 NA
ATOM      6  C   UNL     1      10.450   5.188   3.295  0.00  0.00    +0.070 C 
ATOM      7  C   UNL     1      11.386   6.262   2.714  0.00  0.00    +0.028 C 
ATOM      8  C   UNL     1      11.155   3.858   3.001  0.00  0.00    +0.096 C 
ATOM      9  C   UNL     1      12.574   5.489   2.155  0.00  0.00    +0.085 C 
ENDROOT
BRANCH   6  10
ATOM      2  F   UNL     1       9.278   4.451  10.426  0.00  0.00    -0.205 F 
ATOM      4  N   UNL     1      10.247   4.339   5.648  0.00  0.00    -0.341 N 
ATOM      5  N   UNL     1       9.662   6.459   5.332  0.00  0.00    -0.232 NA
ATOM     10  C   UNL     1      10.109   5.365   4.756  0.00  0.00    +0.113 A 
ATOM     13  C   UNL     1       9.865   4.801   6.882  0.00  0.00    +0.069 A 
ATOM     14  C   UNL     1       9.504   6.128   6.657  0.00  0.00    +0.089 A 
ATOM     17  C   UNL     1       9.806   4.192   8.136  0.00  0.00    +0.066 A 
ATOM     18  C   UNL     1       9.054   6.907   7.737  0.00  0.00    +0.032 A 
ATOM     19  C   UNL     1       9.356   4.983   9.199  0.00  0.00    +0.125 A 
ATOM     20  C   UNL     1       8.986   6.316   9.005  0.00  0.00    +0.040 A 
ATOM     24  H   UNL     1      10.574   3.405   5.440  0.00  0.00    +0.167 HD
ENDBRANCH   6  10
BRANCH   3  11
ATOM     11  C   UNL     1      13.011   3.170   1.598  0.00  0.00    +0.119 C 
BRANCH  11  12
ATOM      1 CL   UNL     1      16.834   4.851  -2.734  0.00  0.00    -0.084 Cl
ATOM     12  C   UNL     1      13.967   3.591   0.513  0.00  0.00    -0.033 A 
ATOM     15  C   UNL     1      15.318   3.780   0.809  0.00  0.00    +0.006 A 
ATOM     16  C   UNL     1      13.503   3.793  -0.787  0.00  0.00    +0.006 A 
ATOM     21  C   UNL     1      16.203   4.170  -0.195  0.00  0.00    +0.020 A 
ATOM     22  C   UNL     1      14.389   4.183  -1.791  0.00  0.00    +0.020 A 
ATOM     23  C   UNL     1      15.739   4.373  -1.495  0.00  0.00    +0.041 A 
ENDBRANCH  11  12
ENDBRANCH   3  11
TORSDOF 3
ENDMDL
MODEL 2
REMARK VINA RESULT:      -7.5     16.971     18.884
REMARK  Name = 45784229
REMARK  3 active torsions:
REMARK  status: ('A' for Active; 'I' for Inactive)
REMARK    1  A    between atoms: N_3  and  C_11
REMARK    2  A    between atoms: C_6  and  C_10
REMARK    3  A    between atoms: C_11  and  C_12
REMARK                            x       y       z     vdW  Elec       q    Type
REMARK                         _______ _______ _______ _____ _____    ______ ____
ROOT
ATOM      3  N   UNL     1      13.807   7.043  20.364  0.00  0.00    -0.297 NA
ATOM      6  C   UNL     1      12.615   8.273  21.963  0.00  0.00    +0.070 C 
ATOM      7  C   UNL     1      11.658   7.314  21.233  0.00  0.00    +0.028 C 
ATOM      8  C   UNL     1      13.869   8.317  21.081  0.00  0.00    +0.096 C 
ATOM      9  C   UNL     1      12.406   6.895  19.974  0.00  0.00    +0.085 C 
ENDROOT
BRANCH   6  10
ATOM      2  F   UNL     1       9.793  14.293  24.892  0.00  0.00    -0.205 F 
ATOM      4  N   UNL     1      11.666  10.008  23.510  0.00  0.00    -0.341 N 
ATOM      5  N   UNL     1      11.847  10.609  21.379  0.00  0.00    -0.232 NA
ATOM     10  C   UNL     1      12.044   9.644  22.248  0.00  0.00    +0.113 A 
ATOM     13  C   UNL     1      11.194  11.294  23.451  0.00  0.00    +0.069 A 
ATOM     14  C   UNL     1      11.318  11.647  22.110  0.00  0.00    +0.089 A 
ATOM     17  C   UNL     1      10.686  12.153  24.426  0.00  0.00    +0.066 A 
ATOM     18  C   UNL     1      10.915  12.929  21.699  0.00  0.00    +0.032 A 
ATOM     19  C   UNL     1      10.289  13.425  24.000  0.00  0.00    +0.125 A 
ATOM     20  C   UNL     1      10.400  13.808  22.660  0.00  0.00    +0.040 A 
ATOM     24  H   UNL     1      11.724   9.435  24.342  0.00  0.00    +0.167 HD
ENDBRANCH   6  10
BRANCH   3  11
ATOM     11  C   UNL     1      14.708   7.005  19.221  0.00  0.00    +0.119 C 
BRANCH  11  12
ATOM      1 CL   UNL     1      20.299   5.461  20.821  0.00  0.00    -0.084 Cl
ATOM     12  C   UNL     1      16.107   6.619  19.623  0.00  0.00    -0.033 A 
ATOM     15  C   UNL     1      16.881   5.824  18.776  0.00  0.00    +0.006 A 
ATOM     16  C   UNL     1      16.630   7.054  20.841  0.00  0.00    +0.006 A 
ATOM     21  C   UNL     1      18.176   5.466  19.147  0.00  0.00    +0.020 A 
ATOM     22  C   UNL     1      17.926   6.696  21.211  0.00  0.00    +0.020 A 
ATOM     23  C   UNL     1      18.699   5.901  20.365  0.00  0.00    +0.041 A 
ENDBRANCH  11  12
ENDBRANCH   3  11
TORSDOF 3
ENDMDL
MODEL 3
REMARK VINA RESULT:      -7.1     22.745     25.431
REMARK  Name = 45784229
REMARK  3 active torsions:
REMARK  status: ('A' for Active; 'I' for Inactive)
REMARK    1  A    between atoms: N_3  and  C_11
REMARK    2  A    between atoms: C_6  and  C_10
REMARK    3  A    between atoms: C_11  and  C_12
REMARK                            x       y       z     vdW  Elec       q    Type
REMARK                         _______ _______ _______ _____ _____    ______ ____
ROOT
ATOM      3  N   UNL     1      -2.024 -10.977  13.829  0.00  0.00    -0.297 NA
ATOM      6  C   UNL     1      -3.185 -10.203  15.712  0.00  0.00    +0.070 C 
ATOM      7  C   UNL     1      -1.783 -10.679  16.132  0.00  0.00    +0.028 C 
ATOM      8  C   UNL     1      -3.393 -10.793  14.312  0.00  0.00    +0.096 C 
ATOM      9  C   UNL     1      -1.292 -11.531  14.967  0.00  0.00    +0.085 C 
ENDROOT
BRANCH   6  10
ATOM      2  F   UNL     1      -9.322 -10.708  19.565  0.00  0.00    -0.205 F 
ATOM      4  N   UNL     1      -5.486  -9.897  16.666  0.00  0.00    -0.341 N 
ATOM      5  N   UNL     1      -4.261 -11.502  17.594  0.00  0.00    -0.232 NA
ATOM     10  C   UNL     1      -4.292 -10.562  16.675  0.00  0.00    +0.113 A 
ATOM     13  C   UNL     1      -6.279 -10.445  17.643  0.00  0.00    +0.069 A 
ATOM     14  C   UNL     1      -5.491 -11.445  18.207  0.00  0.00    +0.089 A 
ATOM     17  C   UNL     1      -7.577 -10.160  18.067  0.00  0.00    +0.066 A 
ATOM     18  C   UNL     1      -6.013 -12.216  19.259  0.00  0.00    +0.032 A 
ATOM     19  C   UNL     1      -8.081 -10.937  19.116  0.00  0.00    +0.125 A 
ATOM     20  C   UNL     1      -7.314 -11.947  19.703  0.00  0.00    +0.040 A 
ATOM     24  H   UNL     1      -5.744  -9.138  16.050  0.00  0.00    +0.167 HD
ENDBRANCH   6  10
BRANCH   3  11
ATOM     11  C   UNL     1      -1.959 -11.838  12.657  0.00  0.00    +0.119 C 
BRANCH  11  12
ATOM      1 CL   UNL     1      -4.995  -9.522   8.006  0.00  0.00    -0.084 Cl
ATOM     12  C   UNL     1      -2.718 -11.257  11.493  0.00  0.00    -0.033 A 
ATOM     15  C   UNL     1      -3.589 -12.063  10.757  0.00  0.00    +0.006 A 
ATOM     16  C   UNL     1      -2.551  -9.916  11.149  0.00  0.00    +0.006 A 
ATOM     21  C   UNL     1      -4.292 -11.526   9.679  0.00  0.00    +0.020 A 
ATOM     22  C   UNL     1      -3.254  -9.380  10.070  0.00  0.00    +0.020 A 
ATOM     23  C   UNL     1      -4.124 -10.185   9.335  0.00  0.00    +0.041 A 
ENDBRANCH  11  12
ENDBRANCH   3  11
TORSDOF 3
ENDMDL
MODEL 4
REMARK VINA RESULT:      -7.0     31.682     35.761
REMARK  Name = 45784229
REMARK  3 active torsions:
REMARK  status: ('A' for Active; 'I' for Inactive)
REMARK    1  A    between atoms: N_3  and  C_11
REMARK    2  A    between atoms: C_6  and  C_10
REMARK    3  A    between atoms: C_11  and  C_12
REMARK                            x       y       z     vdW  Elec       q    Type
REMARK                         _______ _______ _______ _____ _____    ______ ____
ROOT
ATOM      3  N   UNL     1      -1.471  10.449  36.940  0.00  0.00    -0.297 NA
ATOM      6  C   UNL     1      -0.053  12.162  36.197  0.00  0.00    +0.070 C 
ATOM      7  C   UNL     1      -1.303  12.776  36.853  0.00  0.00    +0.028 C 
ATOM      8  C   UNL     1      -0.428  10.696  35.943  0.00  0.00    +0.096 C 
ATOM      9  C   UNL     1      -2.318  11.641  36.905  0.00  0.00    +0.085 C 
ENDROOT
BRANCH   6  10
ATOM      2  F   UNL     1       2.083  14.080  29.524  0.00  0.00    -0.205 F 
ATOM      4  N   UNL     1       0.577  12.208  33.768  0.00  0.00    -0.341 N 
ATOM      5  N   UNL     1       0.742  14.145  34.847  0.00  0.00    -0.232 NA
ATOM     10  C   UNL     1       0.426  12.873  34.953  0.00  0.00    +0.113 A 
ATOM     13  C   UNL     1       1.020  13.111  32.835  0.00  0.00    +0.069 A 
ATOM     14  C   UNL     1       1.114  14.312  33.534  0.00  0.00    +0.089 A 
ATOM     17  C   UNL     1       1.336  12.984  31.482  0.00  0.00    +0.066 A 
ATOM     18  C   UNL     1       1.548  15.465  32.857  0.00  0.00    +0.032 A 
ATOM     19  C   UNL     1       1.766  14.142  30.824  0.00  0.00    +0.125 A 
ATOM     20  C   UNL     1       1.871  15.361  31.498  0.00  0.00    +0.040 A 
ATOM     24  H   UNL     1       0.396  11.227  33.604  0.00  0.00    +0.167 HD
ENDBRANCH   6  10
BRANCH   3  11
ATOM     11  C   UNL     1      -2.219   9.229  36.671  0.00  0.00    +0.119 C 
BRANCH  11  12
ATOM      1 CL   UNL     1      -1.293   5.052  40.900  0.00  0.00    -0.084 Cl
ATOM     12  C   UNL     1      -1.986   8.184  37.729  0.00  0.00    -0.033 A 
ATOM     15  C   UNL     1      -2.929   7.994  38.740  0.00  0.00    +0.006 A 
ATOM     16  C   UNL     1      -0.828   7.406  37.700  0.00  0.00    +0.006 A 
ATOM     21  C   UNL     1      -2.714   7.026  39.721  0.00  0.00    +0.020 A 
ATOM     22  C   UNL     1      -0.614   6.438  38.681  0.00  0.00    +0.020 A 
ATOM     23  C   UNL     1      -1.556   6.249  39.692  0.00  0.00    +0.041 A 
ENDBRANCH  11  12
ENDBRANCH   3  11
TORSDOF 3
ENDMDL
MODEL 5
REMARK VINA RESULT:      -6.9      5.439      6.073
REMARK  Name = 45784229
REMARK  3 active torsions:
REMARK  status: ('A' for Active; 'I' for Inactive)
REMARK    1  A    between atoms: N_3  and  C_11
REMARK    2  A    between atoms: C_6  and  C_10
REMARK    3  A    between atoms: C_11  and  C_12
REMARK                            x       y       z     vdW  Elec       q    Type
REMARK                         _______ _______ _______ _____ _____    ______ ____
ROOT
ATOM      3  N   UNL     1      16.162   8.613   5.262  0.00  0.00    -0.297 NA
ATOM      6  C   UNL     1      14.051   7.596   5.182  0.00  0.00    +0.070 C 
ATOM      7  C   UNL     1      14.064   8.828   4.259  0.00  0.00    +0.028 C 
ATOM      8  C   UNL     1      15.287   7.766   6.074  0.00  0.00    +0.096 C 
ATOM      9  C   UNL     1      15.280   9.635   4.697  0.00  0.00    +0.085 C 
ENDROOT
BRANCH   6  10
ATOM      2  F   UNL     1       8.672   5.296   9.488  0.00  0.00    -0.205 F 
ATOM      4  N   UNL     1      12.594   6.318   6.776  0.00  0.00    -0.341 N 
ATOM      5  N   UNL     1      11.735   8.210   5.987  0.00  0.00    -0.232 NA
ATOM     10  C   UNL     1      12.776   7.406   5.970  0.00  0.00    +0.113 A 
ATOM     13  C   UNL     1      11.353   6.426   7.352  0.00  0.00    +0.069 A 
ATOM     14  C   UNL     1      10.838   7.616   6.843  0.00  0.00    +0.089 A 
ATOM     17  C   UNL     1      10.660   5.610   8.246  0.00  0.00    +0.066 A 
ATOM     18  C   UNL     1       9.556   8.031   7.240  0.00  0.00    +0.032 A 
ATOM     19  C   UNL     1       9.385   6.039   8.631  0.00  0.00    +0.125 A 
ATOM     20  C   UNL     1       8.841   7.228   8.137  0.00  0.00    +0.040 A 
ATOM     24  H   UNL     1      13.253   5.565   6.925  0.00  0.00    +0.167 HD
ENDBRANCH   6  10
BRANCH   3  11
ATOM     11  C   UNL     1      17.252   9.189   6.036  0.00  0.00    +0.119 C 
BRANCH  11  12
ATOM      1 CL   UNL     1      22.553   6.732   4.596  0.00  0.00    -0.084 Cl
ATOM     12  C   UNL     1      18.579   8.574   5.677  0.00  0.00    -0.033 A 
ATOM     15  C   UNL     1      18.810   8.127   4.374  0.00  0.00    +0.006 A 
ATOM     16  C   UNL     1      19.576   8.449   6.644  0.00  0.00    +0.006 A 
ATOM     21  C   UNL     1      20.039   7.557   4.041  0.00  0.00    +0.020 A 
ATOM     22  C   UNL     1      20.804   7.879   6.310  0.00  0.00    +0.020 A 
ATOM     23  C   UNL     1      21.036   7.433   5.008  0.00  0.00    +0.041 A 
ENDBRANCH  11  12
ENDBRANCH   3  11
TORSDOF 3
ENDMDL
MODEL 6
REMARK VINA RESULT:      -6.8     17.159     19.567
REMARK  Name = 45784229
REMARK  3 active torsions:
REMARK  status: ('A' for Active; 'I' for Inactive)
REMARK    1  A    between atoms: N_3  and  C_11
REMARK    2  A    between atoms: C_6  and  C_10
REMARK    3  A    between atoms: C_11  and  C_12
REMARK                            x       y       z     vdW  Elec       q    Type
REMARK                         _______ _______ _______ _____ _____    ______ ____
ROOT
ATOM      3  N   UNL     1      21.307   4.885  21.046  0.00  0.00    -0.297 NA
ATOM      6  C   UNL     1      19.629   6.450  20.569  0.00  0.00    +0.070 C 
ATOM      7  C   UNL     1      20.304   6.810  21.904  0.00  0.00    +0.028 C 
ATOM      8  C   UNL     1      20.056   5.002  20.295  0.00  0.00    +0.096 C 
ATOM      9  C   UNL     1      21.046   5.547  22.323  0.00  0.00    +0.085 C 
ENDROOT
BRANCH   6  10
ATOM      2  F   UNL     1      12.640   7.776  22.043  0.00  0.00    -0.205 F 
ATOM      4  N   UNL     1      17.445   7.042  21.656  0.00  0.00    -0.341 N 
ATOM      5  N   UNL     1      17.330   6.448  19.518  0.00  0.00    -0.232 NA
ATOM     10  C   UNL     1      18.129   6.637  20.544  0.00  0.00    +0.113 A 
ATOM     13  C   UNL     1      16.116   7.120  21.326  0.00  0.00    +0.069 A 
ATOM     14  C   UNL     1      16.071   6.745  19.986  0.00  0.00    +0.089 A 
ATOM     17  C   UNL     1      14.986   7.477  22.061  0.00  0.00    +0.066 A 
ATOM     18  C   UNL     1      14.831   6.717  19.324  0.00  0.00    +0.032 A 
ATOM     19  C   UNL     1      13.760   7.444  21.387  0.00  0.00    +0.125 A 
ATOM     20  C   UNL     1      13.682   7.070  20.043  0.00  0.00    +0.040 A 
ATOM     24  H   UNL     1      17.844   7.249  22.563  0.00  0.00    +0.167 HD
ENDBRANCH   6  10
BRANCH   3  11
ATOM     11  C   UNL     1      21.726   3.501  21.214  0.00  0.00    +0.119 C 
BRANCH  11  12
ATOM      1 CL   UNL     1      27.641   2.834  20.340  0.00  0.00    -0.084 Cl
ATOM     12  C   UNL     1      23.206   3.333  20.995  0.00  0.00    -0.033 A 
ATOM     15  C   UNL     1      23.965   4.400  20.512  0.00  0.00    +0.006 A 
ATOM     16  C   UNL     1      23.820   2.111  21.274  0.00  0.00    +0.006 A 
ATOM     21  C   UNL     1      25.336   4.245  20.308  0.00  0.00    +0.020 A 
ATOM     22  C   UNL     1      25.191   1.957  21.071  0.00  0.00    +0.020 A 
ATOM     23  C   UNL     1      25.949   3.024  20.587  0.00  0.00    +0.041 A 
ENDBRANCH  11  12
ENDBRANCH   3  11
TORSDOF 3
ENDMDL
MODEL 7
REMARK VINA RESULT:      -6.6     13.999     15.564
REMARK  Name = 45784229
REMARK  3 active torsions:
REMARK  status: ('A' for Active; 'I' for Inactive)
REMARK    1  A    between atoms: N_3  and  C_11
REMARK    2  A    between atoms: C_6  and  C_10
REMARK    3  A    between atoms: C_11  and  C_12
REMARK                            x       y       z     vdW  Elec       q    Type
REMARK                         _______ _______ _______ _____ _____    ______ ____
ROOT
ATOM      3  N   UNL     1       2.578   4.711  -5.575  0.00  0.00    -0.297 NA
ATOM      6  C   UNL     1       1.822   2.506  -5.818  0.00  0.00    +0.070 C 
ATOM      7  C   UNL     1       2.885   2.806  -6.889  0.00  0.00    +0.028 C 
ATOM      8  C   UNL     1       1.406   3.883  -5.286  0.00  0.00    +0.096 C 
ATOM      9  C   UNL     1       2.990   4.325  -6.924  0.00  0.00    +0.085 C 
ENDROOT
BRANCH   6  10
ATOM      2  F   UNL     1      -3.267  -2.544  -6.996  0.00  0.00    -0.205 F 
ATOM      4  N   UNL     1       0.379   0.452  -5.766  0.00  0.00    -0.341 N 
ATOM      5  N   UNL     1      -0.212   2.011  -7.235  0.00  0.00    -0.232 NA
ATOM     10  C   UNL     1       0.650   1.681  -6.299  0.00  0.00    +0.113 A 
ATOM     13  C   UNL     1      -0.732  -0.044  -6.400  0.00  0.00    +0.069 A 
ATOM     14  C   UNL     1      -1.081   0.948  -7.312  0.00  0.00    +0.089 A 
ATOM     17  C   UNL     1      -1.438  -1.239  -6.257  0.00  0.00    +0.066 A 
ATOM     18  C   UNL     1      -2.200   0.753  -8.140  0.00  0.00    +0.032 A 
ATOM     19  C   UNL     1      -2.549  -1.416  -7.089  0.00  0.00    +0.125 A 
ATOM     20  C   UNL     1      -2.925  -0.439  -8.015  0.00  0.00    +0.040 A 
ATOM     24  H   UNL     1       0.902  -0.012  -5.035  0.00  0.00    +0.167 HD
ENDBRANCH   6  10
BRANCH   3  11
ATOM     11  C   UNL     1       2.292   6.134  -5.468  0.00  0.00    +0.119 C 
BRANCH  11  12
ATOM      1 CL   UNL     1       6.171   8.924  -1.812  0.00  0.00    -0.084 Cl
ATOM     12  C   UNL     1       3.262   6.834  -4.553  0.00  0.00    -0.033 A 
ATOM     15  C   UNL     1       4.102   6.086  -3.726  0.00  0.00    +0.006 A 
ATOM     16  C   UNL     1       3.321   8.227  -4.531  0.00  0.00    +0.006 A 
ATOM     21  C   UNL     1       5.000   6.733  -2.878  0.00  0.00    +0.020 A 
ATOM     22  C   UNL     1       4.221   8.873  -3.683  0.00  0.00    +0.020 A 
ATOM     23  C   UNL     1       5.060   8.126  -2.856  0.00  0.00    +0.041 A 
ENDBRANCH  11  12
ENDBRANCH   3  11
TORSDOF 3
ENDMDL
MODEL 8
REMARK VINA RESULT:      -6.5     23.626     26.660
REMARK  Name = 45784229
REMARK  3 active torsions:
REMARK  status: ('A' for Active; 'I' for Inactive)
REMARK    1  A    between atoms: N_3  and  C_11
REMARK    2  A    between atoms: C_6  and  C_10
REMARK    3  A    between atoms: C_11  and  C_12
REMARK                            x       y       z     vdW  Elec       q    Type
REMARK                         _______ _______ _______ _____ _____    ______ ____
ROOT
ATOM      3  N   UNL     1      -4.249 -11.667  16.350  0.00  0.00    -0.297 NA
ATOM      6  C   UNL     1      -5.778 -10.280  17.461  0.00  0.00    +0.070 C 
ATOM      7  C   UNL     1      -5.418 -11.475  18.362  0.00  0.00    +0.028 C 
ATOM      8  C   UNL     1      -5.301 -10.691  16.062  0.00  0.00    +0.096 C 
ATOM      9  C   UNL     1      -4.789 -12.499  17.425  0.00  0.00    +0.085 C 
ENDROOT
BRANCH   6  10
ATOM      2  F   UNL     1     -12.295  -7.221  16.491  0.00  0.00    -0.205 F 
ATOM      4  N   UNL     1      -7.707  -8.858  16.716  0.00  0.00    -0.341 N 
ATOM      5  N   UNL     1      -8.183 -10.417  18.227  0.00  0.00    -0.232 NA
ATOM     10  C   UNL     1      -7.234  -9.877  17.494  0.00  0.00    +0.113 A 
ATOM     13  C   UNL     1      -9.050  -8.731  16.963  0.00  0.00    +0.069 A 
ATOM     14  C   UNL     1      -9.323  -9.715  17.909  0.00  0.00    +0.089 A 
ATOM     17  C   UNL     1     -10.020  -7.866  16.455  0.00  0.00    +0.066 A 
ATOM     18  C   UNL     1     -10.636  -9.859  18.388  0.00  0.00    +0.032 A 
ATOM     19  C   UNL     1     -11.322  -8.023  16.943  0.00  0.00    +0.125 A 
ATOM     20  C   UNL     1     -11.626  -9.002  17.893  0.00  0.00    +0.040 A 
ATOM     24  H   UNL     1      -7.167  -8.295  16.072  0.00  0.00    +0.167 HD
ENDBRANCH   6  10
BRANCH   3  11
ATOM     11  C   UNL     1      -3.880 -12.447  15.177  0.00  0.00    +0.119 C 
BRANCH  11  12
ATOM      1 CL   UNL     1      -0.904  -9.137  11.129  0.00  0.00    -0.084 Cl
ATOM     12  C   UNL     1      -3.134 -11.618  14.165  0.00  0.00    -0.033 A 
ATOM     15  C   UNL     1      -3.437 -11.738  12.808  0.00  0.00    +0.006 A 
ATOM     16  C   UNL     1      -2.141 -10.733  14.583  0.00  0.00    +0.006 A 
ATOM     21  C   UNL     1      -2.747 -10.971  11.870  0.00  0.00    +0.020 A 
ATOM     22  C   UNL     1      -1.451  -9.966  13.644  0.00  0.00    +0.020 A 
ATOM     23  C   UNL     1      -1.754 -10.086  12.287  0.00  0.00    +0.041 A 
ENDBRANCH  11  12
ENDBRANCH   3  11
TORSDOF 3
ENDMDL
MODEL 9
REMARK VINA RESULT:      -6.4     27.307     28.872
REMARK  Name = 45784229
REMARK  3 active torsions:
REMARK  status: ('A' for Active; 'I' for Inactive)
REMARK    1  A    between atoms: N_3  and  C_11
REMARK    2  A    between atoms: C_6  and  C_10
REMARK    3  A    between atoms: C_11  and  C_12
REMARK                            x       y       z     vdW  Elec       q    Type
REMARK                         _______ _______ _______ _____ _____    ______ ____
ROOT
ATOM      3  N   UNL     1      -9.542  -8.948  16.424  0.00  0.00    -0.297 NA
ATOM      6  C   UNL     1     -10.999  -7.117  16.296  0.00  0.00    +0.070 C 
ATOM      7  C   UNL     1     -11.678  -8.261  17.069  0.00  0.00    +0.028 C 
ATOM      8  C   UNL     1      -9.810  -7.778  15.587  0.00  0.00    +0.096 C 
ATOM      9  C   UNL     1     -10.860  -9.502  16.733  0.00  0.00    +0.085 C 
ENDROOT
BRANCH   6  10
ATOM      2  F   UNL     1     -13.946  -2.756  11.289  0.00  0.00    -0.205 F 
ATOM      4  N   UNL     1     -11.414  -5.417  14.496  0.00  0.00    -0.341 N 
ATOM      5  N   UNL     1     -13.207  -6.507  15.228  0.00  0.00    -0.232 NA
ATOM     10  C   UNL     1     -11.907  -6.364  15.350  0.00  0.00    +0.113 A 
ATOM     13  C   UNL     1     -12.467  -4.916  13.774  0.00  0.00    +0.069 A 
ATOM     14  C   UNL     1     -13.575  -5.614  14.249  0.00  0.00    +0.089 A 
ATOM     17  C   UNL     1     -12.543  -3.944  12.776  0.00  0.00    +0.066 A 
ATOM     18  C   UNL     1     -14.842  -5.336  13.708  0.00  0.00    +0.032 A 
ATOM     19  C   UNL     1     -13.812  -3.680  12.249  0.00  0.00    +0.125 A 
ATOM     20  C   UNL     1     -14.943  -4.363  12.706  0.00  0.00    +0.040 A 
ATOM     24  H   UNL     1     -10.447  -5.134  14.409  0.00  0.00    +0.167 HD
ENDBRANCH   6  10
BRANCH   3  11
ATOM     11  C   UNL     1      -8.676  -9.915  15.765  0.00  0.00    +0.119 C 
BRANCH  11  12
ATOM      1 CL   UNL     1      -4.248 -11.785  19.384  0.00  0.00    -0.084 Cl
ATOM     12  C   UNL     1      -7.567 -10.382  16.671  0.00  0.00    -0.033 A 
ATOM     15  C   UNL     1      -7.823 -11.349  17.644  0.00  0.00    +0.006 A 
ATOM     16  C   UNL     1      -6.285  -9.848  16.538  0.00  0.00    +0.006 A 
ATOM     21  C   UNL     1      -6.797 -11.782  18.483  0.00  0.00    +0.020 A 
ATOM     22  C   UNL     1      -5.259 -10.281  17.378  0.00  0.00    +0.020 A 
ATOM     23  C   UNL     1      -5.515 -11.248  18.351  0.00  0.00    +0.041 A 
ENDBRANCH  11  12
ENDBRANCH   3  11
TORSDOF 3
ENDMDL
MODEL 10
REMARK VINA RESULT:      -6.2     18.011     20.598
REMARK  Name = 45784229
REMARK  3 active torsions:
REMARK  status: ('A' for Active; 'I' for Inactive)
REMARK    1  A    between atoms: N_3  and  C_11
REMARK    2  A    between atoms: C_6  and  C_10
REMARK    3  A    between atoms: C_11  and  C_12
REMARK                            x       y       z     vdW  Elec       q    Type
REMARK                         _______ _______ _______ _____ _____    ______ ____
ROOT
ATOM      3  N   UNL     1      22.725   4.195  21.201  0.00  0.00    -0.297 NA
ATOM      6  C   UNL     1      21.288   6.046  21.248  0.00  0.00    +0.070 C 
ATOM      7  C   UNL     1      21.496   5.521  22.679  0.00  0.00    +0.028 C 
ATOM      8  C   UNL     1      21.782   4.912  20.341  0.00  0.00    +0.096 C 
ATOM      9  C   UNL     1      22.065   4.118  22.504  0.00  0.00    +0.085 C 
ENDROOT
BRANCH   6  10
ATOM      2  F   UNL     1      14.508   6.798  18.748  0.00  0.00    -0.205 F 
ATOM      4  N   UNL     1      19.092   5.777  20.061  0.00  0.00    -0.341 N 
ATOM      5  N   UNL     1      19.249   7.531  21.417  0.00  0.00    -0.232 NA
ATOM     10  C   UNL     1      19.876   6.482  20.931  0.00  0.00    +0.113 A 
ATOM     13  C   UNL     1      17.879   6.412  19.981  0.00  0.00    +0.069 A 
ATOM     14  C   UNL     1      18.003   7.503  20.837  0.00  0.00    +0.089 A 
ATOM     17  C   UNL     1      16.720   6.133  19.255  0.00  0.00    +0.066 A 
ATOM     18  C   UNL     1      16.915   8.380  20.989  0.00  0.00    +0.032 A 
ATOM     19  C   UNL     1      15.647   7.016  19.420  0.00  0.00    +0.125 A 
ATOM     20  C   UNL     1      15.741   8.120  20.271  0.00  0.00    +0.040 A 
ATOM     24  H   UNL     1      19.356   4.936  19.565  0.00  0.00    +0.167 HD
ENDBRANCH   6  10
BRANCH   3  11
ATOM     11  C   UNL     1      23.068   2.882  20.675  0.00  0.00    +0.119 C 
BRANCH  11  12
ATOM      1 CL   UNL     1      27.792   0.494  23.537  0.00  0.00    -0.084 Cl
ATOM     12  C   UNL     1      24.250   2.283  21.391  0.00  0.00    -0.033 A 
ATOM     15  C   UNL     1      25.277   3.109  21.852  0.00  0.00    +0.006 A 
ATOM     16  C   UNL     1      24.320   0.904  21.591  0.00  0.00    +0.006 A 
ATOM     21  C   UNL     1      26.372   2.555  22.515  0.00  0.00    +0.020 A 
ATOM     22  C   UNL     1      25.415   0.352  22.254  0.00  0.00    +0.020 A 
ATOM     23  C   UNL     1      26.442   1.176  22.716  0.00  0.00    +0.041 A 
ENDBRANCH  11  12
ENDBRANCH   3  11
TORSDOF 3
ENDMDL
