MODEL 1
REMARK VINA RESULT:      -7.5      0.000      0.000
REMARK  Name = 45784262
REMARK  3 active torsions:
REMARK  status: ('A' for Active; 'I' for Inactive)
REMARK    1  A    between atoms: N_4  and  C_7
REMARK    2  A    between atoms: C_8  and  C_17
REMARK    3  A    between atoms: C_22  and  C_24
REMARK                            x       y       z     vdW  Elec       q    Type
REMARK                         _______ _______ _______ _____ _____    ______ ____
ROOT
ATOM      5  N   UNL     1      15.075   8.203  21.020  0.00  0.00    -0.342 N 
ATOM      6  N   UNL     1      14.360   7.173  19.186  0.00  0.00    -0.232 NA
ATOM     17  C   UNL     1      14.039   8.005  20.151  0.00  0.00    +0.113 A 
ATOM     18  C   UNL     1      16.136   7.450  20.586  0.00  0.00    +0.067 A 
ATOM     19  C   UNL     1      15.664   6.816  19.440  0.00  0.00    +0.089 A 
ATOM     20  C   UNL     1      17.428   7.273  21.082  0.00  0.00    +0.040 A 
ATOM     21  C   UNL     1      16.518   5.952  18.733  0.00  0.00    +0.030 A 
ATOM     22  C   UNL     1      18.265   6.409  20.367  0.00  0.00    +0.057 A 
ATOM     23  C   UNL     1      17.820   5.760  19.214  0.00  0.00    +0.014 A 
ATOM     25  H   UNL     1      15.067   8.798  21.837  0.00  0.00    +0.167 HD
ENDROOT
BRANCH  17   8
ATOM      4  N   UNL     1      11.592  10.247  21.703  0.00  0.00    -0.299 NA
ATOM      8  C   UNL     1      12.709   8.696  20.345  0.00  0.00    +0.070 C 
ATOM      9  C   UNL     1      12.845  10.094  20.962  0.00  0.00    +0.096 C 
ATOM     10  C   UNL     1      11.385   8.960  22.365  0.00  0.00    +0.085 C 
ATOM     11  C   UNL     1      11.726   7.956  21.270  0.00  0.00    +0.028 C 
BRANCH   4   7
ATOM      7  C   UNL     1      11.636  11.359  22.651  0.00  0.00    +0.057 C 
ATOM     12  C   UNL     1      10.929  10.963  23.952  0.00  0.00    +0.019 C 
ATOM     13  C   UNL     1      10.991  12.601  22.027  0.00  0.00    +0.019 C 
ATOM     14  C   UNL     1      10.889  12.129  24.939  0.00  0.00    +0.002 C 
ATOM     15  C   UNL     1      10.950  13.764  23.016  0.00  0.00    +0.002 C 
ATOM     16  C   UNL     1      10.257  13.371  24.318  0.00  0.00    +0.000 C 
ENDBRANCH   4   7
ENDBRANCH  17   8
BRANCH  22  24
ATOM      1  F   UNL     1      20.172   4.992  20.415  0.00  0.00    -0.166 F 
ATOM      2  F   UNL     1      20.543   7.134  20.437  0.00  0.00    -0.166 F 
ATOM      3  F   UNL     1      19.769   6.151  22.209  0.00  0.00    -0.166 F 
ATOM     24  C   UNL     1      19.660   6.179  20.849  0.00  0.00    +0.417 C 
ENDBRANCH  22  24
TORSDOF 3
ENDMDL
MODEL 2
REMARK VINA RESULT:      -7.3      4.492      8.512
REMARK  Name = 45784262
REMARK  3 active torsions:
REMARK  status: ('A' for Active; 'I' for Inactive)
REMARK    1  A    between atoms: N_4  and  C_7
REMARK    2  A    between atoms: C_8  and  C_17
REMARK    3  A    between atoms: C_22  and  C_24
REMARK                            x       y       z     vdW  Elec       q    Type
REMARK                         _______ _______ _______ _____ _____    ______ ____
ROOT
ATOM      5  N   UNL     1      12.096   9.396  22.482  0.00  0.00    -0.342 N 
ATOM      6  N   UNL     1      12.010  10.470  20.538  0.00  0.00    -0.232 NA
ATOM     17  C   UNL     1      12.246   9.318  21.125  0.00  0.00    +0.113 A 
ATOM     18  C   UNL     1      11.738  10.683  22.791  0.00  0.00    +0.067 A 
ATOM     19  C   UNL     1      11.692  11.334  21.561  0.00  0.00    +0.089 A 
ATOM     20  C   UNL     1      11.461  11.316  24.003  0.00  0.00    +0.040 A 
ATOM     21  C   UNL     1      11.349  12.696  21.518  0.00  0.00    +0.030 A 
ATOM     22  C   UNL     1      11.122  12.671  23.943  0.00  0.00    +0.057 A 
ATOM     23  C   UNL     1      11.066  13.351  22.724  0.00  0.00    +0.014 A 
ATOM     25  H   UNL     1      12.224   8.642  23.143  0.00  0.00    +0.167 HD
ENDROOT
BRANCH  17   8
ATOM      4  N   UNL     1      14.479   6.641  19.999  0.00  0.00    -0.299 NA
ATOM      8  C   UNL     1      12.641   8.024  20.452  0.00  0.00    +0.070 C 
ATOM      9  C   UNL     1      13.849   7.349  21.115  0.00  0.00    +0.096 C 
ATOM     10  C   UNL     1      14.444   7.586  18.883  0.00  0.00    +0.085 C 
ATOM     11  C   UNL     1      13.035   8.160  18.971  0.00  0.00    +0.028 C 
BRANCH   4   7
ATOM      7  C   UNL     1      15.838   6.202  20.313  0.00  0.00    +0.057 C 
ATOM     12  C   UNL     1      16.524   7.234  21.215  0.00  0.00    +0.019 C 
ATOM     13  C   UNL     1      16.629   5.990  19.017  0.00  0.00    +0.019 C 
ATOM     14  C   UNL     1      17.974   6.846  21.502  0.00  0.00    +0.002 C 
ATOM     15  C   UNL     1      18.078   5.604  19.306  0.00  0.00    +0.002 C 
ATOM     16  C   UNL     1      18.761   6.622  20.215  0.00  0.00    +0.000 C 
ENDBRANCH   4   7
ENDBRANCH  17   8
BRANCH  22  24
ATOM      1  F   UNL     1      11.918  13.987  25.755  0.00  0.00    -0.166 F 
ATOM      2  F   UNL     1       9.908  14.412  25.047  0.00  0.00    -0.166 F 
ATOM      3  F   UNL     1      10.295  12.607  26.187  0.00  0.00    -0.166 F 
ATOM     24  C   UNL     1      10.814  13.404  25.208  0.00  0.00    +0.417 C 
ENDBRANCH  22  24
TORSDOF 3
ENDMDL
MODEL 3
REMARK VINA RESULT:      -7.3      1.595      2.906
REMARK  Name = 45784262
REMARK  3 active torsions:
REMARK  status: ('A' for Active; 'I' for Inactive)
REMARK    1  A    between atoms: N_4  and  C_7
REMARK    2  A    between atoms: C_8  and  C_17
REMARK    3  A    between atoms: C_22  and  C_24
REMARK                            x       y       z     vdW  Elec       q    Type
REMARK                         _______ _______ _______ _____ _____    ______ ____
ROOT
ATOM      5  N   UNL     1      16.607   6.572  19.307  0.00  0.00    -0.342 N 
ATOM      6  N   UNL     1      16.645   8.396  20.575  0.00  0.00    -0.232 NA
ATOM     17  C   UNL     1      15.956   7.711  19.690  0.00  0.00    +0.113 A 
ATOM     18  C   UNL     1      17.795   6.517  19.990  0.00  0.00    +0.067 A 
ATOM     19  C   UNL     1      17.795   7.668  20.774  0.00  0.00    +0.089 A 
ATOM     20  C   UNL     1      18.838   5.591  19.990  0.00  0.00    +0.040 A 
ATOM     21  C   UNL     1      18.892   7.924  21.615  0.00  0.00    +0.030 A 
ATOM     22  C   UNL     1      19.921   5.861  20.832  0.00  0.00    +0.057 A 
ATOM     23  C   UNL     1      19.950   7.006  21.631  0.00  0.00    +0.014 A 
ATOM     25  H   UNL     1      16.276   5.888  18.639  0.00  0.00    +0.167 HD
ENDROOT
BRANCH  17   8
ATOM      4  N   UNL     1      12.496   8.914  19.701  0.00  0.00    -0.299 NA
ATOM      8  C   UNL     1      14.605   8.074  19.117  0.00  0.00    +0.070 C 
ATOM      9  C   UNL     1      13.918   9.212  19.883  0.00  0.00    +0.096 C 
ATOM     10  C   UNL     1      12.385   7.469  19.895  0.00  0.00    +0.085 C 
ATOM     11  C   UNL     1      13.577   6.929  19.114  0.00  0.00    +0.028 C 
BRANCH   4   7
ATOM      7  C   UNL     1      11.645   9.665  20.623  0.00  0.00    +0.057 C 
ATOM     12  C   UNL     1      12.234  11.062  20.854  0.00  0.00    +0.019 C 
ATOM     13  C   UNL     1      11.505   8.899  21.943  0.00  0.00    +0.019 C 
ATOM     14  C   UNL     1      11.412  11.850  21.873  0.00  0.00    +0.002 C 
ATOM     15  C   UNL     1      10.685   9.690  22.961  0.00  0.00    +0.002 C 
ATOM     16  C   UNL     1      11.260  11.085  23.185  0.00  0.00    +0.000 C 
ENDBRANCH   4   7
ENDBRANCH  17   8
BRANCH  22  24
ATOM      1  F   UNL     1      21.672   4.870  22.098  0.00  0.00    -0.166 F 
ATOM      2  F   UNL     1      20.716   3.617  20.601  0.00  0.00    -0.166 F 
ATOM      3  F   UNL     1      22.060   5.204  19.985  0.00  0.00    -0.166 F 
ATOM     24  C   UNL     1      21.069   4.906  20.875  0.00  0.00    +0.417 C 
ENDBRANCH  22  24
TORSDOF 3
ENDMDL
MODEL 4
REMARK VINA RESULT:      -7.2     16.259     19.194
REMARK  Name = 45784262
REMARK  3 active torsions:
REMARK  status: ('A' for Active; 'I' for Inactive)
REMARK    1  A    between atoms: N_4  and  C_7
REMARK    2  A    between atoms: C_8  and  C_17
REMARK    3  A    between atoms: C_22  and  C_24
REMARK                            x       y       z     vdW  Elec       q    Type
REMARK                         _______ _______ _______ _____ _____    ______ ____
ROOT
ATOM      5  N   UNL     1      10.201   5.216   4.717  0.00  0.00    -0.342 N 
ATOM      6  N   UNL     1       9.472   7.310   4.564  0.00  0.00    -0.232 NA
ATOM     17  C   UNL     1       9.972   6.290   3.903  0.00  0.00    +0.113 A 
ATOM     18  C   UNL     1       9.822   5.566   5.988  0.00  0.00    +0.067 A 
ATOM     19  C   UNL     1       9.371   6.877   5.866  0.00  0.00    +0.089 A 
ATOM     20  C   UNL     1       9.835   4.870   7.197  0.00  0.00    +0.040 A 
ATOM     21  C   UNL     1       8.901   7.549   7.007  0.00  0.00    +0.030 A 
ATOM     22  C   UNL     1       9.365   5.553   8.323  0.00  0.00    +0.057 A 
ATOM     23  C   UNL     1       8.905   6.869   8.232  0.00  0.00    +0.014 A 
ATOM     25  H   UNL     1      10.580   4.322   4.437  0.00  0.00    +0.167 HD
ENDROOT
BRANCH  17   8
ATOM      4  N   UNL     1      11.872   5.464   0.881  0.00  0.00    -0.299 NA
ATOM      8  C   UNL     1      10.285   6.236   2.425  0.00  0.00    +0.070 C 
ATOM      9  C   UNL     1      11.097   4.995   2.032  0.00  0.00    +0.096 C 
ATOM     10  C   UNL     1      12.342   6.796   1.260  0.00  0.00    +0.085 C 
ATOM     11  C   UNL     1      11.107   7.424   1.895  0.00  0.00    +0.028 C 
BRANCH   4   7
ATOM      7  C   UNL     1      12.971   4.562   0.543  0.00  0.00    +0.057 C 
ATOM     12  C   UNL     1      13.934   4.446   1.730  0.00  0.00    +0.019 C 
ATOM     13  C   UNL     1      13.696   5.071  -0.708  0.00  0.00    +0.019 C 
ATOM     14  C   UNL     1      15.138   3.570   1.386  0.00  0.00    +0.002 C 
ATOM     15  C   UNL     1      14.900   4.195  -1.049  0.00  0.00    +0.002 C 
ATOM     16  C   UNL     1      15.855   4.065   0.134  0.00  0.00    +0.000 C 
ENDBRANCH   4   7
ENDBRANCH  17   8
BRANCH  22  24
ATOM      1  F   UNL     1      10.424   5.199  10.421  0.00  0.00    -0.166 F 
ATOM      2  F   UNL     1       8.251   5.143  10.400  0.00  0.00    -0.166 F 
ATOM      3  F   UNL     1       9.384   3.500   9.550  0.00  0.00    -0.166 F 
ATOM     24  C   UNL     1       9.354   4.861   9.647  0.00  0.00    +0.417 C 
ENDBRANCH  22  24
TORSDOF 3
ENDMDL
MODEL 5
REMARK VINA RESULT:      -7.1      4.449      9.946
REMARK  Name = 45784262
REMARK  3 active torsions:
REMARK  status: ('A' for Active; 'I' for Inactive)
REMARK    1  A    between atoms: N_4  and  C_7
REMARK    2  A    between atoms: C_8  and  C_17
REMARK    3  A    between atoms: C_22  and  C_24
REMARK                            x       y       z     vdW  Elec       q    Type
REMARK                         _______ _______ _______ _____ _____    ______ ____
ROOT
ATOM      5  N   UNL     1      17.982   6.958  21.666  0.00  0.00    -0.342 N 
ATOM      6  N   UNL     1      18.184   6.235  19.575  0.00  0.00    -0.232 NA
ATOM     17  C   UNL     1      18.823   6.494  20.693  0.00  0.00    +0.113 A 
ATOM     18  C   UNL     1      16.715   7.000  21.141  0.00  0.00    +0.067 A 
ATOM     19  C   UNL     1      16.868   6.544  19.834  0.00  0.00    +0.089 A 
ATOM     20  C   UNL     1      15.487   7.386  21.679  0.00  0.00    +0.040 A 
ATOM     21  C   UNL     1      15.740   6.461  19.001  0.00  0.00    +0.030 A 
ATOM     22  C   UNL     1      14.375   7.298  20.836  0.00  0.00    +0.057 A 
ATOM     23  C   UNL     1      14.496   6.844  19.521  0.00  0.00    +0.014 A 
ATOM     25  H   UNL     1      18.242   7.223  22.607  0.00  0.00    +0.167 HD
ENDROOT
BRANCH  17   8
ATOM      4  N   UNL     1      21.912   4.771  21.646  0.00  0.00    -0.299 NA
ATOM      8  C   UNL     1      20.303   6.327  20.949  0.00  0.00    +0.070 C 
ATOM      9  C   UNL     1      20.792   4.892  20.711  0.00  0.00    +0.096 C 
ATOM     10  C   UNL     1      21.441   5.395  22.882  0.00  0.00    +0.085 C 
ATOM     11  C   UNL     1      20.752   6.659  22.383  0.00  0.00    +0.028 C 
BRANCH   4   7
ATOM      7  C   UNL     1      22.324   3.383  21.846  0.00  0.00    +0.057 C 
ATOM     12  C   UNL     1      22.777   3.177  23.296  0.00  0.00    +0.019 C 
ATOM     13  C   UNL     1      23.444   3.025  20.863  0.00  0.00    +0.019 C 
ATOM     14  C   UNL     1      23.288   1.755  23.524  0.00  0.00    +0.002 C 
ATOM     15  C   UNL     1      23.954   1.604  21.093  0.00  0.00    +0.002 C 
ATOM     16  C   UNL     1      24.394   1.391  22.538  0.00  0.00    +0.000 C 
ENDBRANCH   4   7
ENDBRANCH  17   8
BRANCH  22  24
ATOM      1  F   UNL     1      12.297   6.630  21.777  0.00  0.00    -0.166 F 
ATOM      2  F   UNL     1      13.090   8.549  22.419  0.00  0.00    -0.166 F 
ATOM      3  F   UNL     1      12.258   8.334  20.428  0.00  0.00    -0.166 F 
ATOM     24  C   UNL     1      13.032   7.698  21.354  0.00  0.00    +0.417 C 
ENDBRANCH  22  24
TORSDOF 3
ENDMDL
MODEL 6
REMARK VINA RESULT:      -7.1     28.453     30.880
REMARK  Name = 45784262
REMARK  3 active torsions:
REMARK  status: ('A' for Active; 'I' for Inactive)
REMARK    1  A    between atoms: N_4  and  C_7
REMARK    2  A    between atoms: C_8  and  C_17
REMARK    3  A    between atoms: C_22  and  C_24
REMARK                            x       y       z     vdW  Elec       q    Type
REMARK                         _______ _______ _______ _____ _____    ______ ____
ROOT
ATOM      5  N   UNL     1     -15.146   4.353  24.642  0.00  0.00    -0.342 N 
ATOM      6  N   UNL     1     -17.070   4.246  23.536  0.00  0.00    -0.232 NA
ATOM     17  C   UNL     1     -16.443   3.922  24.645  0.00  0.00    +0.113 A 
ATOM     18  C   UNL     1     -14.921   5.001  23.454  0.00  0.00    +0.067 A 
ATOM     19  C   UNL     1     -16.137   4.920  22.782  0.00  0.00    +0.089 A 
ATOM     20  C   UNL     1     -13.794   5.630  22.926  0.00  0.00    +0.040 A 
ATOM     21  C   UNL     1     -16.254   5.497  21.506  0.00  0.00    +0.030 A 
ATOM     22  C   UNL     1     -13.927   6.198  21.655  0.00  0.00    +0.057 A 
ATOM     23  C   UNL     1     -15.134   6.134  20.956  0.00  0.00    +0.014 A 
ATOM     25  H   UNL     1     -14.469   4.222  25.383  0.00  0.00    +0.167 HD
ENDROOT
BRANCH  17   8
ATOM      4  N   UNL     1     -16.411   1.939  27.725  0.00  0.00    -0.299 NA
ATOM      8  C   UNL     1     -17.016   3.164  25.820  0.00  0.00    +0.070 C 
ATOM      9  C   UNL     1     -16.112   3.208  27.058  0.00  0.00    +0.096 C 
ATOM     10  C   UNL     1     -16.460   0.949  26.650  0.00  0.00    +0.085 C 
ATOM     11  C   UNL     1     -17.258   1.665  25.566  0.00  0.00    +0.028 C 
BRANCH   4   7
ATOM      7  C   UNL     1     -15.424   1.600  28.749  0.00  0.00    +0.057 C 
ATOM     12  C   UNL     1     -16.024   0.597  29.740  0.00  0.00    +0.019 C 
ATOM     13  C   UNL     1     -14.957   2.873  29.464  0.00  0.00    +0.019 C 
ATOM     14  C   UNL     1     -15.045   0.277  30.869  0.00  0.00    +0.002 C 
ATOM     15  C   UNL     1     -13.980   2.550  30.593  0.00  0.00    +0.002 C 
ATOM     16  C   UNL     1     -14.569   1.542  31.576  0.00  0.00    +0.000 C 
ENDBRANCH   4   7
ENDBRANCH  17   8
BRANCH  22  24
ATOM      1  F   UNL     1     -12.530   8.120  21.572  0.00  0.00    -0.166 F 
ATOM      2  F   UNL     1     -11.582   6.203  21.181  0.00  0.00    -0.166 F 
ATOM      3  F   UNL     1     -12.889   7.088  19.692  0.00  0.00    -0.166 F 
ATOM     24  C   UNL     1     -12.755   6.886  21.036  0.00  0.00    +0.417 C 
ENDBRANCH  22  24
TORSDOF 3
ENDMDL
MODEL 7
REMARK VINA RESULT:      -6.9     16.024     18.931
REMARK  Name = 45784262
REMARK  3 active torsions:
REMARK  status: ('A' for Active; 'I' for Inactive)
REMARK    1  A    between atoms: N_4  and  C_7
REMARK    2  A    between atoms: C_8  and  C_17
REMARK    3  A    between atoms: C_22  and  C_24
REMARK                            x       y       z     vdW  Elec       q    Type
REMARK                         _______ _______ _______ _____ _____    ______ ____
ROOT
ATOM      5  N   UNL     1      11.858   6.266   5.454  0.00  0.00    -0.342 N 
ATOM      6  N   UNL     1      10.646   8.096   5.110  0.00  0.00    -0.232 NA
ATOM     17  C   UNL     1      11.645   7.366   4.670  0.00  0.00    +0.113 A 
ATOM     18  C   UNL     1      10.934   6.288   6.468  0.00  0.00    +0.067 A 
ATOM     19  C   UNL     1      10.190   7.440   6.231  0.00  0.00    +0.089 A 
ATOM     20  C   UNL     1      10.694   5.427   7.538  0.00  0.00    +0.040 A 
ATOM     21  C   UNL     1       9.137   7.767   7.103  0.00  0.00    +0.030 A 
ATOM     22  C   UNL     1       9.643   5.768   8.397  0.00  0.00    +0.057 A 
ATOM     23  C   UNL     1       8.878   6.916   8.185  0.00  0.00    +0.014 A 
ATOM     25  H   UNL     1      12.569   5.560   5.316  0.00  0.00    +0.167 HD
ENDROOT
BRANCH  17   8
ATOM      4  N   UNL     1      13.155   6.746   1.390  0.00  0.00    -0.299 NA
ATOM      8  C   UNL     1      12.502   7.642   3.456  0.00  0.00    +0.070 C 
ATOM      9  C   UNL     1      11.947   7.005   2.175  0.00  0.00    +0.096 C 
ATOM     10  C   UNL     1      14.120   6.208   2.348  0.00  0.00    +0.085 C 
ATOM     11  C   UNL     1      13.947   7.124   3.554  0.00  0.00    +0.028 C 
BRANCH   4   7
ATOM      7  C   UNL     1      12.911   5.833   0.274  0.00  0.00    +0.057 C 
ATOM     12  C   UNL     1      11.732   4.911   0.604  0.00  0.00    +0.019 C 
ATOM     13  C   UNL     1      14.179   5.025  -0.023  0.00  0.00    +0.019 C 
ATOM     14  C   UNL     1      11.496   3.891  -0.509  0.00  0.00    +0.002 C 
ATOM     15  C   UNL     1      13.940   4.004  -1.134  0.00  0.00    +0.002 C 
ATOM     16  C   UNL     1      12.759   3.092  -0.816  0.00  0.00    +0.000 C 
ENDBRANCH   4   7
ENDBRANCH  17   8
BRANCH  22  24
ATOM      1  F   UNL     1       8.215   5.276  10.232  0.00  0.00    -0.166 F 
ATOM      2  F   UNL     1       9.123   3.582   9.217  0.00  0.00    -0.166 F 
ATOM      3  F   UNL     1      10.331   4.850  10.496  0.00  0.00    -0.166 F 
ATOM     24  C   UNL     1       9.336   4.885   9.562  0.00  0.00    +0.417 C 
ENDBRANCH  22  24
TORSDOF 3
ENDMDL
MODEL 8
REMARK VINA RESULT:      -6.9     27.831     29.193
REMARK  Name = 45784262
REMARK  3 active torsions:
REMARK  status: ('A' for Active; 'I' for Inactive)
REMARK    1  A    between atoms: N_4  and  C_7
REMARK    2  A    between atoms: C_8  and  C_17
REMARK    3  A    between atoms: C_22  and  C_24
REMARK                            x       y       z     vdW  Elec       q    Type
REMARK                         _______ _______ _______ _____ _____    ______ ____
ROOT
ATOM      5  N   UNL     1      -3.729 -10.614  15.302  0.00  0.00    -0.342 N 
ATOM      6  N   UNL     1      -3.816 -12.800  14.916  0.00  0.00    -0.232 NA
ATOM     17  C   UNL     1      -3.400 -11.640  14.460  0.00  0.00    +0.113 A 
ATOM     18  C   UNL     1      -4.402 -11.148  16.371  0.00  0.00    +0.067 A 
ATOM     19  C   UNL     1      -4.443 -12.514  16.106  0.00  0.00    +0.089 A 
ATOM     20  C   UNL     1      -4.961 -10.571  17.512  0.00  0.00    +0.040 A 
ATOM     21  C   UNL     1      -5.074 -13.371  17.023  0.00  0.00    +0.030 A 
ATOM     22  C   UNL     1      -5.586 -11.439  18.414  0.00  0.00    +0.057 A 
ATOM     23  C   UNL     1      -5.643 -12.813  18.176  0.00  0.00    +0.014 A 
ATOM     25  H   UNL     1      -3.517  -9.635  15.165  0.00  0.00    +0.167 HD
ENDROOT
BRANCH  17   8
ATOM      4  N   UNL     1      -2.904 -10.588  10.986  0.00  0.00    -0.299 NA
ATOM      8  C   UNL     1      -2.646 -11.390  13.175  0.00  0.00    +0.070 C 
ATOM      9  C   UNL     1      -3.214 -10.215  12.368  0.00  0.00    +0.096 C 
ATOM     10  C   UNL     1      -3.225 -12.012  10.899  0.00  0.00    +0.085 C 
ATOM     11  C   UNL     1      -2.640 -12.572  12.190  0.00  0.00    +0.028 C 
BRANCH   4   7
ATOM      7  C   UNL     1      -3.646  -9.790  10.012  0.00  0.00    +0.057 C 
ATOM     12  C   UNL     1      -4.689  -8.928  10.732  0.00  0.00    +0.019 C 
ATOM     13  C   UNL     1      -4.306 -10.710   8.980  0.00  0.00    +0.019 C 
ATOM     14  C   UNL     1      -5.537  -8.135   9.737  0.00  0.00    +0.002 C 
ATOM     15  C   UNL     1      -5.154  -9.916   7.989  0.00  0.00    +0.002 C 
ATOM     16  C   UNL     1      -6.187  -9.047   8.700  0.00  0.00    +0.000 C 
ENDBRANCH   4   7
ENDBRANCH  17   8
BRANCH  22  24
ATOM      1  F   UNL     1      -6.067  -9.528  19.743  0.00  0.00    -0.166 F 
ATOM      2  F   UNL     1      -7.544 -11.123  19.752  0.00  0.00    -0.166 F 
ATOM      3  F   UNL     1      -5.664 -11.382  20.804  0.00  0.00    -0.166 F 
ATOM     24  C   UNL     1      -6.204 -10.881  19.655  0.00  0.00    +0.417 C 
ENDBRANCH  22  24
TORSDOF 3
ENDMDL
MODEL 9
REMARK VINA RESULT:      -6.9     27.811     30.237
REMARK  Name = 45784262
REMARK  3 active torsions:
REMARK  status: ('A' for Active; 'I' for Inactive)
REMARK    1  A    between atoms: N_4  and  C_7
REMARK    2  A    between atoms: C_8  and  C_17
REMARK    3  A    between atoms: C_22  and  C_24
REMARK                            x       y       z     vdW  Elec       q    Type
REMARK                         _______ _______ _______ _____ _____    ______ ____
ROOT
ATOM      5  N   UNL     1      -7.826  -8.890  17.031  0.00  0.00    -0.342 N 
ATOM      6  N   UNL     1      -8.855 -10.349  18.353  0.00  0.00    -0.232 NA
ATOM     17  C   UNL     1      -7.694  -9.944  17.891  0.00  0.00    +0.113 A 
ATOM     18  C   UNL     1      -9.162  -8.593  16.932  0.00  0.00    +0.067 A 
ATOM     19  C   UNL     1      -9.783  -9.519  17.767  0.00  0.00    +0.089 A 
ATOM     20  C   UNL     1      -9.859  -7.627  16.207  0.00  0.00    +0.040 A 
ATOM     21  C   UNL     1     -11.182  -9.492  17.899  0.00  0.00    +0.030 A 
ATOM     22  C   UNL     1     -11.250  -7.615  16.350  0.00  0.00    +0.057 A 
ATOM     23  C   UNL     1     -11.902  -8.529  17.179  0.00  0.00    +0.014 A 
ATOM     25  H   UNL     1      -7.077  -8.410  16.551  0.00  0.00    +0.167 HD
ENDROOT
BRANCH  17   8
ATOM      4  N   UNL     1      -4.383 -11.372  17.243  0.00  0.00    -0.299 NA
ATOM      8  C   UNL     1      -6.337 -10.523  18.221  0.00  0.00    +0.070 C 
ATOM      9  C   UNL     1      -5.282 -10.220  17.149  0.00  0.00    +0.096 C 
ATOM     10  C   UNL     1      -5.266 -12.530  17.370  0.00  0.00    +0.085 C 
ATOM     11  C   UNL     1      -6.308 -12.053  18.374  0.00  0.00    +0.028 C 
BRANCH   4   7
ATOM      7  C   UNL     1      -3.490 -11.478  16.090  0.00  0.00    +0.057 C 
ATOM     12  C   UNL     1      -2.160 -10.778  16.395  0.00  0.00    +0.019 C 
ATOM     13  C   UNL     1      -4.162 -10.872  14.853  0.00  0.00    +0.019 C 
ATOM     14  C   UNL     1      -1.229 -10.802  15.184  0.00  0.00    +0.002 C 
ATOM     15  C   UNL     1      -3.228 -10.896  13.645  0.00  0.00    +0.002 C 
ATOM     16  C   UNL     1      -1.898 -10.211  13.947  0.00  0.00    +0.000 C 
ENDBRANCH   4   7
ENDBRANCH  17   8
BRANCH  22  24
ATOM      1  F   UNL     1     -11.421  -5.398  15.509  0.00  0.00    -0.166 F 
ATOM      2  F   UNL     1     -12.328  -6.970  14.313  0.00  0.00    -0.166 F 
ATOM      3  F   UNL     1     -13.267  -6.341  16.165  0.00  0.00    -0.166 F 
ATOM     24  C   UNL     1     -12.053  -6.603  15.598  0.00  0.00    +0.417 C 
ENDBRANCH  22  24
TORSDOF 3
ENDMDL
MODEL 10
REMARK VINA RESULT:      -6.9     28.840     31.418
REMARK  Name = 45784262
REMARK  3 active torsions:
REMARK  status: ('A' for Active; 'I' for Inactive)
REMARK    1  A    between atoms: N_4  and  C_7
REMARK    2  A    between atoms: C_8  and  C_17
REMARK    3  A    between atoms: C_22  and  C_24
REMARK                            x       y       z     vdW  Elec       q    Type
REMARK                         _______ _______ _______ _____ _____    ______ ____
ROOT
ATOM      5  N   UNL     1     -15.660   3.598  27.559  0.00  0.00    -0.342 N 
ATOM      6  N   UNL     1     -16.532   1.617  27.056  0.00  0.00    -0.232 NA
ATOM     17  C   UNL     1     -16.260   2.822  26.607  0.00  0.00    +0.113 A 
ATOM     18  C   UNL     1     -15.536   2.845  28.698  0.00  0.00    +0.067 A 
ATOM     19  C   UNL     1     -16.088   1.613  28.359  0.00  0.00    +0.089 A 
ATOM     20  C   UNL     1     -15.006   3.126  29.958  0.00  0.00    +0.040 A 
ATOM     21  C   UNL     1     -16.120   0.588  29.320  0.00  0.00    +0.030 A 
ATOM     22  C   UNL     1     -15.046   2.095  30.902  0.00  0.00    +0.057 A 
ATOM     23  C   UNL     1     -15.593   0.849  30.591  0.00  0.00    +0.014 A 
ATOM     25  H   UNL     1     -15.359   4.557  27.448  0.00  0.00    +0.167 HD
ENDROOT
BRANCH  17   8
ATOM      4  N   UNL     1     -15.826   4.939  23.649  0.00  0.00    -0.299 NA
ATOM      8  C   UNL     1     -16.545   3.357  25.223  0.00  0.00    +0.070 C 
ATOM      9  C   UNL     1     -15.291   3.889  24.517  0.00  0.00    +0.096 C 
ATOM     10  C   UNL     1     -16.797   5.655  24.476  0.00  0.00    +0.085 C 
ATOM     11  C   UNL     1     -17.544   4.527  25.176  0.00  0.00    +0.028 C 
BRANCH   4   7
ATOM      7  C   UNL     1     -14.782   5.820  23.129  0.00  0.00    +0.057 C 
ATOM     12  C   UNL     1     -15.418   7.015  22.409  0.00  0.00    +0.019 C 
ATOM     13  C   UNL     1     -13.861   5.036  22.188  0.00  0.00    +0.019 C 
ATOM     14  C   UNL     1     -14.356   7.919  21.786  0.00  0.00    +0.002 C 
ATOM     15  C   UNL     1     -12.801   5.942  21.565  0.00  0.00    +0.002 C 
ATOM     16  C   UNL     1     -13.429   7.140  20.858  0.00  0.00    +0.000 C 
ENDBRANCH   4   7
ENDBRANCH  17   8
BRANCH  22  24
ATOM      1  F   UNL     1     -13.147   2.135  32.331  0.00  0.00    -0.166 F 
ATOM      2  F   UNL     1     -14.698   3.606  32.724  0.00  0.00    -0.166 F 
ATOM      3  F   UNL     1     -15.031   1.522  33.224  0.00  0.00    -0.166 F 
ATOM     24  C   UNL     1     -14.494   2.335  32.269  0.00  0.00    +0.417 C 
ENDBRANCH  22  24
TORSDOF 3
ENDMDL
