MODEL 1
REMARK VINA RESULT:      -7.5      0.000      0.000
REMARK  Name = 7051867
REMARK  8 active torsions:
REMARK  status: ('A' for Active; 'I' for Inactive)
REMARK    1  A    between atoms: N_3  and  C_15
REMARK    2  A    between atoms: N_5  and  C_26
REMARK    3  A    between atoms: N_6  and  C_19
REMARK    4  A    between atoms: N_7  and  C_30
REMARK    5  A    between atoms: N_7  and  C_31
REMARK    6  A    between atoms: N_7  and  C_32
REMARK    7  A    between atoms: C_15  and  C_18
REMARK    8  A    between atoms: C_27  and  C_30
REMARK                            x       y       z     vdW  Elec       q    Type
REMARK                         _______ _______ _______ _____ _____    ______ ____
ROOT
ATOM      1  O   UNL     1      -6.572 -11.122  10.757  0.00  0.00    -0.266 OA
ATOM      3  N   UNL     1      -3.230 -11.003  14.491  0.00  0.00    -0.297 NA
ATOM      4  N   UNL     1      -4.371 -11.281  11.524  0.00  0.00    -0.310 N 
ATOM      8  C   UNL     1      -3.595 -13.095  13.160  0.00  0.00    +0.024 C 
ATOM      9  C   UNL     1      -2.000 -11.419  12.358  0.00  0.00    +0.050 C 
ATOM     10  C   UNL     1      -2.243 -12.921  12.479  0.00  0.00    +0.017 C 
ATOM     11  C   UNL     1      -3.576 -12.428  14.551  0.00  0.00    +0.090 C 
ATOM     12  C   UNL     1      -1.969 -10.785  13.767  0.00  0.00    +0.094 C 
ATOM     13  C   UNL     1      -4.686 -12.521  12.247  0.00  0.00    +0.130 C 
ATOM     14  C   UNL     1      -3.070 -10.767  11.504  0.00  0.00    +0.026 A 
ATOM     16  C   UNL     1      -2.780  -9.694  10.750  0.00  0.00    +0.024 A 
ATOM     17  C   UNL     1      -5.417 -10.696  10.782  0.00  0.00    +0.273 A 
ATOM     19  C   UNL     1      -5.056  -9.488   9.973  0.00  0.00    +0.099 A 
ATOM     20  C   UNL     1      -3.796  -9.043   9.971  0.00  0.00    +0.030 A 
ENDROOT
BRANCH  19   6
ATOM      2  O   UNL     1      -5.884 -10.185   7.326  0.00  0.00    -0.274 OA
ATOM      6  N   UNL     1      -6.043  -8.885   9.250  0.00  0.00    -0.280 N 
ATOM     27  C   UNL     1      -6.408  -9.277   7.966  0.00  0.00    +0.231 C 
ATOM     33  H   UNL     1      -6.362  -7.978   9.582  0.00  0.00    +0.155 HD
BRANCH  27  30
ATOM     30  C   UNL     1      -7.532  -8.417   7.426  0.00  0.00    +0.180 C 
BRANCH  30   7
ATOM      7  N   UNL     1      -8.043  -7.572   8.495  0.00  0.00    -0.300 NA
ATOM     31  C   UNL     1      -9.403  -7.969   8.865  0.00  0.00    +0.105 C 
ATOM     32  C   UNL     1      -8.018  -6.162   8.099  0.00  0.00    +0.105 C 
ENDBRANCH  30   7
ENDBRANCH  27  30
ENDBRANCH  19   6
BRANCH   3  15
ATOM     15  C   UNL     1      -3.171 -10.420  15.831  0.00  0.00    +0.121 C 
BRANCH  15  18
ATOM      5  N   UNL     1      -6.643  -9.763  16.748  0.00  0.00    -0.349 N 
ATOM     18  C   UNL     1      -4.538 -10.295  16.449  0.00  0.00    -0.008 A 
ATOM     21  C   UNL     1      -4.921 -10.815  17.699  0.00  0.00    +0.004 A 
ATOM     22  C   UNL     1      -5.592  -9.656  15.877  0.00  0.00    +0.091 A 
ATOM     23  C   UNL     1      -6.262 -10.466  17.869  0.00  0.00    +0.049 A 
ATOM     24  C   UNL     1      -4.277 -11.549  18.714  0.00  0.00    +0.010 A 
ATOM     25  C   UNL     1      -6.994 -10.815  19.008  0.00  0.00    +0.026 A 
ATOM     26  C   UNL     1      -7.960  -9.212  16.508  0.00  0.00    +0.149 C 
ATOM     28  C   UNL     1      -4.997 -11.906  19.860  0.00  0.00    +0.001 A 
ATOM     29  C   UNL     1      -6.335 -11.544  20.003  0.00  0.00    +0.002 A 
ENDBRANCH  15  18
ENDBRANCH   3  15
TORSDOF 5
ENDMDL
MODEL 2
REMARK VINA RESULT:      -6.9     20.165     23.066
REMARK  Name = 7051867
REMARK  8 active torsions:
REMARK  status: ('A' for Active; 'I' for Inactive)
REMARK    1  A    between atoms: N_3  and  C_15
REMARK    2  A    between atoms: N_5  and  C_26
REMARK    3  A    between atoms: N_6  and  C_19
REMARK    4  A    between atoms: N_7  and  C_30
REMARK    5  A    between atoms: N_7  and  C_31
REMARK    6  A    between atoms: N_7  and  C_32
REMARK    7  A    between atoms: C_15  and  C_18
REMARK    8  A    between atoms: C_27  and  C_30
REMARK                            x       y       z     vdW  Elec       q    Type
REMARK                         _______ _______ _______ _____ _____    ______ ____
ROOT
ATOM      1  O   UNL     1     -12.763   4.723  22.729  0.00  0.00    -0.266 OA
ATOM      3  N   UNL     1     -13.313   9.524  21.397  0.00  0.00    -0.297 NA
ATOM      4  N   UNL     1     -13.451   6.343  21.192  0.00  0.00    -0.310 N 
ATOM      8  C   UNL     1     -11.828   7.989  20.084  0.00  0.00    +0.024 C 
ATOM      9  C   UNL     1     -14.217   8.097  19.557  0.00  0.00    +0.050 C 
ATOM     10  C   UNL     1     -12.829   7.971  18.936  0.00  0.00    +0.017 C 
ATOM     11  C   UNL     1     -11.957   9.306  20.877  0.00  0.00    +0.090 C 
ATOM     12  C   UNL     1     -14.318   9.433  20.328  0.00  0.00    +0.094 C 
ATOM     13  C   UNL     1     -12.058   6.749  20.959  0.00  0.00    +0.130 C 
ATOM     14  C   UNL     1     -14.503   6.927  20.479  0.00  0.00    +0.026 A 
ATOM     16  C   UNL     1     -15.757   6.467  20.627  0.00  0.00    +0.024 A 
ATOM     17  C   UNL     1     -13.659   5.278  22.092  0.00  0.00    +0.273 A 
ATOM     19  C   UNL     1     -15.073   4.810  22.245  0.00  0.00    +0.099 A 
ATOM     20  C   UNL     1     -16.044   5.387  21.529  0.00  0.00    +0.030 A 
ENDROOT
BRANCH  19   6
ATOM      2  O   UNL     1     -16.241   5.044  24.846  0.00  0.00    -0.274 OA
ATOM      6  N   UNL     1     -15.319   3.789  23.115  0.00  0.00    -0.280 N 
ATOM     27  C   UNL     1     -15.900   3.965  24.366  0.00  0.00    +0.231 C 
ATOM     33  H   UNL     1     -14.853   2.905  22.924  0.00  0.00    +0.155 HD
BRANCH  27  30
ATOM     30  C   UNL     1     -16.043   2.646  25.098  0.00  0.00    +0.180 C 
BRANCH  30   7
ATOM      7  N   UNL     1     -17.019   1.819  24.405  0.00  0.00    -0.300 NA
ATOM     31  C   UNL     1     -18.305   2.512  24.300  0.00  0.00    +0.105 C 
ATOM     32  C   UNL     1     -17.191   0.535  25.089  0.00  0.00    +0.105 C 
ENDBRANCH  30   7
ENDBRANCH  27  30
ENDBRANCH  19   6
BRANCH   3  15
ATOM     15  C   UNL     1     -13.407  10.805  22.095  0.00  0.00    +0.121 C 
BRANCH  15  18
ATOM      5  N   UNL     1     -15.175  10.329  25.254  0.00  0.00    -0.349 N 
ATOM     18  C   UNL     1     -13.875  10.636  23.516  0.00  0.00    -0.008 A 
ATOM     21  C   UNL     1     -13.053  10.667  24.657  0.00  0.00    +0.004 A 
ATOM     22  C   UNL     1     -15.165  10.430  23.888  0.00  0.00    +0.091 A 
ATOM     23  C   UNL     1     -13.899  10.470  25.749  0.00  0.00    +0.049 A 
ATOM     24  C   UNL     1     -11.674  10.841  24.889  0.00  0.00    +0.010 A 
ATOM     25  C   UNL     1     -13.434  10.439  27.068  0.00  0.00    +0.026 A 
ATOM     26  C   UNL     1     -16.366  10.105  26.046  0.00  0.00    +0.149 C 
ATOM     28  C   UNL     1     -11.194  10.812  26.203  0.00  0.00    +0.001 A 
ATOM     29  C   UNL     1     -12.062  10.614  27.275  0.00  0.00    +0.002 A 
ENDBRANCH  15  18
ENDBRANCH   3  15
TORSDOF 5
ENDMDL
MODEL 3
REMARK VINA RESULT:      -6.8     19.557     22.037
REMARK  Name = 7051867
REMARK  8 active torsions:
REMARK  status: ('A' for Active; 'I' for Inactive)
REMARK    1  A    between atoms: N_3  and  C_15
REMARK    2  A    between atoms: N_5  and  C_26
REMARK    3  A    between atoms: N_6  and  C_19
REMARK    4  A    between atoms: N_7  and  C_30
REMARK    5  A    between atoms: N_7  and  C_31
REMARK    6  A    between atoms: N_7  and  C_32
REMARK    7  A    between atoms: C_15  and  C_18
REMARK    8  A    between atoms: C_27  and  C_30
REMARK                            x       y       z     vdW  Elec       q    Type
REMARK                         _______ _______ _______ _____ _____    ______ ____
ROOT
ATOM      1  O   UNL     1     -14.859   8.918  21.590  0.00  0.00    -0.266 OA
ATOM      3  N   UNL     1     -12.480   9.155  17.184  0.00  0.00    -0.297 NA
ATOM      4  N   UNL     1     -12.886   8.895  20.338  0.00  0.00    -0.310 N 
ATOM      8  C   UNL     1     -12.098  10.898  18.946  0.00  0.00    +0.024 C 
ATOM      9  C   UNL     1     -10.769   8.841  18.976  0.00  0.00    +0.050 C 
ATOM     10  C   UNL     1     -10.704  10.347  19.215  0.00  0.00    +0.017 C 
ATOM     11  C   UNL     1     -12.516  10.590  17.492  0.00  0.00    +0.090 C 
ATOM     12  C   UNL     1     -11.172   8.568  17.509  0.00  0.00    +0.094 C 
ATOM     13  C   UNL     1     -13.071  10.307  19.975  0.00  0.00    +0.130 C 
ATOM     14  C   UNL     1     -11.752   8.186  19.929  0.00  0.00    +0.026 A 
ATOM     16  C   UNL     1     -11.548   6.931  20.361  0.00  0.00    +0.024 A 
ATOM     17  C   UNL     1     -13.854   8.328  21.192  0.00  0.00    +0.273 A 
ATOM     19  C   UNL     1     -13.600   6.919  21.632  0.00  0.00    +0.099 A 
ATOM     20  C   UNL     1     -12.493   6.287  21.229  0.00  0.00    +0.030 A 
ENDROOT
BRANCH  19   6
ATOM      2  O   UNL     1     -15.700   5.153  20.825  0.00  0.00    -0.274 OA
ATOM      6  N   UNL     1     -14.519   6.329  22.450  0.00  0.00    -0.280 N 
ATOM     27  C   UNL     1     -15.513   5.469  21.998  0.00  0.00    +0.231 C 
ATOM     33  H   UNL     1     -14.610   6.715  23.387  0.00  0.00    +0.155 HD
BRANCH  27  30
ATOM     30  C   UNL     1     -16.378   4.976  23.141  0.00  0.00    +0.180 C 
BRANCH  30   7
ATOM      7  N   UNL     1     -16.023   3.598  23.447  0.00  0.00    -0.300 NA
ATOM     31  C   UNL     1     -17.166   2.708  23.233  0.00  0.00    +0.105 C 
ATOM     32  C   UNL     1     -15.543   3.481  24.827  0.00  0.00    +0.105 C 
ENDBRANCH  30   7
ENDBRANCH  27  30
ENDBRANCH  19   6
BRANCH   3  15
ATOM     15  C   UNL     1     -12.830   8.910  15.786  0.00  0.00    +0.121 C 
BRANCH  15  18
ATOM      5  N   UNL     1     -16.112   7.342  16.105  0.00  0.00    -0.349 N 
ATOM     18  C   UNL     1     -14.127   8.156  15.656  0.00  0.00    -0.008 A 
ATOM     21  C   UNL     1     -14.510   7.371  14.554  0.00  0.00    +0.004 A 
ATOM     22  C   UNL     1     -15.108   8.133  16.596  0.00  0.00    +0.091 A 
ATOM     23  C   UNL     1     -15.774   6.864  14.859  0.00  0.00    +0.049 A 
ATOM     24  C   UNL     1     -13.922   7.031  13.318  0.00  0.00    +0.010 A 
ATOM     25  C   UNL     1     -16.483   6.030  13.989  0.00  0.00    +0.026 A 
ATOM     26  C   UNL     1     -17.346   7.062  16.807  0.00  0.00    +0.149 C 
ATOM     28  C   UNL     1     -14.620   6.197  12.438  0.00  0.00    +0.001 A 
ATOM     29  C   UNL     1     -15.880   5.705  12.769  0.00  0.00    +0.002 A 
ENDBRANCH  15  18
ENDBRANCH   3  15
TORSDOF 5
ENDMDL
MODEL 4
REMARK VINA RESULT:      -6.7     23.338     26.143
REMARK  Name = 7051867
REMARK  8 active torsions:
REMARK  status: ('A' for Active; 'I' for Inactive)
REMARK    1  A    between atoms: N_3  and  C_15
REMARK    2  A    between atoms: N_5  and  C_26
REMARK    3  A    between atoms: N_6  and  C_19
REMARK    4  A    between atoms: N_7  and  C_30
REMARK    5  A    between atoms: N_7  and  C_31
REMARK    6  A    between atoms: N_7  and  C_32
REMARK    7  A    between atoms: C_15  and  C_18
REMARK    8  A    between atoms: C_27  and  C_30
REMARK                            x       y       z     vdW  Elec       q    Type
REMARK                         _______ _______ _______ _____ _____    ______ ____
ROOT
ATOM      1  O   UNL     1      10.470   4.064   2.505  0.00  0.00    -0.266 OA
ATOM      3  N   UNL     1       9.063   7.917   5.387  0.00  0.00    -0.297 NA
ATOM      4  N   UNL     1      10.858   5.516   4.294  0.00  0.00    -0.310 N 
ATOM      8  C   UNL     1       9.338   5.622   6.356  0.00  0.00    +0.024 C 
ATOM      9  C   UNL     1      11.280   7.105   6.200  0.00  0.00    +0.050 C 
ATOM     10  C   UNL     1      10.604   6.059   7.082  0.00  0.00    +0.017 C 
ATOM     11  C   UNL     1       8.411   6.834   6.134  0.00  0.00    +0.090 C 
ATOM     12  C   UNL     1      10.333   8.312   6.012  0.00  0.00    +0.094 C 
ATOM     13  C   UNL     1       9.734   4.935   5.042  0.00  0.00    +0.130 C 
ATOM     14  C   UNL     1      11.661   6.513   4.857  0.00  0.00    +0.026 A 
ATOM     16  C   UNL     1      12.748   6.954   4.202  0.00  0.00    +0.024 A 
ATOM     17  C   UNL     1      11.139   4.954   3.032  0.00  0.00    +0.273 A 
ATOM     19  C   UNL     1      12.345   5.489   2.326  0.00  0.00    +0.099 A 
ATOM     20  C   UNL     1      13.094   6.430   2.910  0.00  0.00    +0.030 A 
ENDROOT
BRANCH  19   6
ATOM      2  O   UNL     1      13.887   3.139   1.795  0.00  0.00    -0.274 OA
ATOM      6  N   UNL     1      12.645   4.980   1.096  0.00  0.00    -0.280 N 
ATOM     27  C   UNL     1      13.393   3.824   0.902  0.00  0.00    +0.231 C 
ATOM     33  H   UNL     1      12.502   5.597   0.300  0.00  0.00    +0.155 HD
BRANCH  27  30
ATOM     30  C   UNL     1      13.557   3.515  -0.572  0.00  0.00    +0.180 C 
BRANCH  30   7
ATOM      7  N   UNL     1      14.437   4.507  -1.173  0.00  0.00    -0.300 NA
ATOM     31  C   UNL     1      14.238   4.567  -2.623  0.00  0.00    +0.105 C 
ATOM     32  C   UNL     1      15.839   4.209  -0.867  0.00  0.00    +0.105 C 
ENDBRANCH  30   7
ENDBRANCH  27  30
ENDBRANCH  19   6
BRANCH   3  15
ATOM     15  C   UNL     1       8.171   9.067   5.243  0.00  0.00    +0.121 C 
BRANCH  15  18
ATOM      5  N   UNL     1       6.433   9.710   2.098  0.00  0.00    -0.349 N 
ATOM     18  C   UNL     1       7.697   9.236   3.825  0.00  0.00    -0.008 A 
ATOM     21  C   UNL     1       8.442   8.929   2.671  0.00  0.00    +0.004 A 
ATOM     22  C   UNL     1       6.475   9.710   3.466  0.00  0.00    +0.091 A 
ATOM     23  C   UNL     1       7.620   9.237   1.586  0.00  0.00    +0.049 A 
ATOM     24  C   UNL     1       9.732   8.419   2.422  0.00  0.00    +0.010 A 
ATOM     25  C   UNL     1       8.025   9.062   0.259  0.00  0.00    +0.026 A 
ATOM     26  C   UNL     1       5.295  10.148   1.317  0.00  0.00    +0.149 C 
ATOM     28  C   UNL     1      10.151   8.239   1.100  0.00  0.00    +0.001 A 
ATOM     29  C   UNL     1       9.309   8.556   0.036  0.00  0.00    +0.002 A 
ENDBRANCH  15  18
ENDBRANCH   3  15
TORSDOF 5
ENDMDL
MODEL 5
REMARK VINA RESULT:      -6.4      4.691      9.288
REMARK  Name = 7051867
REMARK  8 active torsions:
REMARK  status: ('A' for Active; 'I' for Inactive)
REMARK    1  A    between atoms: N_3  and  C_15
REMARK    2  A    between atoms: N_5  and  C_26
REMARK    3  A    between atoms: N_6  and  C_19
REMARK    4  A    between atoms: N_7  and  C_30
REMARK    5  A    between atoms: N_7  and  C_31
REMARK    6  A    between atoms: N_7  and  C_32
REMARK    7  A    between atoms: C_15  and  C_18
REMARK    8  A    between atoms: C_27  and  C_30
REMARK                            x       y       z     vdW  Elec       q    Type
REMARK                         _______ _______ _______ _____ _____    ______ ____
ROOT
ATOM      1  O   UNL     1      -6.445  -9.903  14.087  0.00  0.00    -0.266 OA
ATOM      3  N   UNL     1     -10.604  -7.419  15.375  0.00  0.00    -0.297 NA
ATOM      4  N   UNL     1      -8.430  -9.754  15.310  0.00  0.00    -0.310 N 
ATOM      8  C   UNL     1     -10.740  -9.632  14.205  0.00  0.00    +0.024 C 
ATOM      9  C   UNL     1     -10.556  -9.569  16.647  0.00  0.00    +0.050 C 
ATOM     10  C   UNL     1     -11.223 -10.302  15.486  0.00  0.00    +0.017 C 
ATOM     11  C   UNL     1     -11.131  -8.140  14.209  0.00  0.00    +0.090 C 
ATOM     12  C   UNL     1     -10.981  -8.083  16.632  0.00  0.00    +0.094 C 
ATOM     13  C   UNL     1      -9.226  -9.844  14.077  0.00  0.00    +0.130 C 
ATOM     14  C   UNL     1      -9.046  -9.691  16.564  0.00  0.00    +0.026 A 
ATOM     16  C   UNL     1      -8.303  -9.720  17.683  0.00  0.00    +0.024 A 
ATOM     17  C   UNL     1      -7.030  -9.831  15.168  0.00  0.00    +0.273 A 
ATOM     19  C   UNL     1      -6.238  -9.837  16.439  0.00  0.00    +0.099 A 
ATOM     20  C   UNL     1      -6.871  -9.793  17.616  0.00  0.00    +0.030 A 
ENDROOT
BRANCH  19   6
ATOM      2  O   UNL     1      -4.623 -12.180  16.726  0.00  0.00    -0.274 OA
ATOM      6  N   UNL     1      -4.879  -9.898  16.345  0.00  0.00    -0.280 N 
ATOM     27  C   UNL     1      -4.148 -11.073  16.484  0.00  0.00    +0.231 C 
ATOM     33  H   UNL     1      -4.378  -9.014  16.398  0.00  0.00    +0.155 HD
BRANCH  27  30
ATOM     30  C   UNL     1      -2.662 -10.820  16.329  0.00  0.00    +0.180 C 
BRANCH  30   7
ATOM      7  N   UNL     1      -2.378 -10.486  14.941  0.00  0.00    -0.300 NA
ATOM     31  C   UNL     1      -2.309 -11.697  14.120  0.00  0.00    +0.105 C 
ATOM     32  C   UNL     1      -1.126  -9.731  14.835  0.00  0.00    +0.105 C 
ENDBRANCH  30   7
ENDBRANCH  27  30
ENDBRANCH  19   6
BRANCH   3  15
ATOM     15  C   UNL     1     -11.040  -6.024  15.371  0.00  0.00    +0.121 C 
BRANCH  15  18
ATOM      5  N   UNL     1     -14.613  -6.130  14.629  0.00  0.00    -0.349 N 
ATOM     18  C   UNL     1     -12.448  -5.877  14.859  0.00  0.00    -0.008 A 
ATOM     21  C   UNL     1     -12.849  -5.050  13.794  0.00  0.00    +0.004 A 
ATOM     22  C   UNL     1     -13.528  -6.531  15.361  0.00  0.00    +0.091 A 
ATOM     23  C   UNL     1     -14.228  -5.226  13.665  0.00  0.00    +0.049 A 
ATOM     24  C   UNL     1     -12.193  -4.164  12.917  0.00  0.00    +0.010 A 
ATOM     25  C   UNL     1     -14.987  -4.557  12.700  0.00  0.00    +0.026 A 
ATOM     26  C   UNL     1     -15.965  -6.598  14.852  0.00  0.00    +0.149 C 
ATOM     28  C   UNL     1     -12.940  -3.488  11.946  0.00  0.00    +0.001 A 
ATOM     29  C   UNL     1     -14.315  -3.682  11.840  0.00  0.00    +0.002 A 
ENDBRANCH  15  18
ENDBRANCH   3  15
TORSDOF 5
ENDMDL
MODEL 6
REMARK VINA RESULT:      -6.2     20.842     23.141
REMARK  Name = 7051867
REMARK  8 active torsions:
REMARK  status: ('A' for Active; 'I' for Inactive)
REMARK    1  A    between atoms: N_3  and  C_15
REMARK    2  A    between atoms: N_5  and  C_26
REMARK    3  A    between atoms: N_6  and  C_19
REMARK    4  A    between atoms: N_7  and  C_30
REMARK    5  A    between atoms: N_7  and  C_31
REMARK    6  A    between atoms: N_7  and  C_32
REMARK    7  A    between atoms: C_15  and  C_18
REMARK    8  A    between atoms: C_27  and  C_30
REMARK                            x       y       z     vdW  Elec       q    Type
REMARK                         _______ _______ _______ _____ _____    ______ ____
ROOT
ATOM      1  O   UNL     1     -13.701   8.571  17.716  0.00  0.00    -0.266 OA
ATOM      3  N   UNL     1     -16.034   8.372  22.148  0.00  0.00    -0.297 NA
ATOM      4  N   UNL     1     -14.193   7.455  19.709  0.00  0.00    -0.310 N 
ATOM      8  C   UNL     1     -16.564   6.715  20.342  0.00  0.00    +0.024 C 
ATOM      9  C   UNL     1     -14.704   6.275  21.874  0.00  0.00    +0.050 C 
ATOM     10  C   UNL     1     -15.853   5.614  21.117  0.00  0.00    +0.017 C 
ATOM     11  C   UNL     1     -17.094   7.789  21.316  0.00  0.00    +0.090 C 
ATOM     12  C   UNL     1     -15.270   7.331  22.851  0.00  0.00    +0.094 C 
ATOM     13  C   UNL     1     -15.595   7.292  19.301  0.00  0.00    +0.130 C 
ATOM     14  C   UNL     1     -13.722   6.914  20.910  0.00  0.00    +0.026 A 
ATOM     16  C   UNL     1     -12.415   6.979  21.214  0.00  0.00    +0.024 A 
ATOM     17  C   UNL     1     -13.335   8.094  18.791  0.00  0.00    +0.273 A 
ATOM     19  C   UNL     1     -11.890   8.165  19.177  0.00  0.00    +0.099 A 
ATOM     20  C   UNL     1     -11.483   7.619  20.328  0.00  0.00    +0.030 A 
ENDROOT
BRANCH  19   6
ATOM      2  O   UNL     1     -11.111  10.916  19.257  0.00  0.00    -0.274 OA
ATOM      6  N   UNL     1     -11.029   8.787  18.322  0.00  0.00    -0.280 N 
ATOM     27  C   UNL     1     -10.680  10.129  18.418  0.00  0.00    +0.231 C 
ATOM     33  H   UNL     1     -10.816   8.298  17.455  0.00  0.00    +0.155 HD
BRANCH  27  30
ATOM     30  C   UNL     1      -9.707  10.526  17.326  0.00  0.00    +0.180 C 
BRANCH  30   7
ATOM      7  N   UNL     1     -10.144  11.780  16.731  0.00  0.00    -0.300 NA
ATOM     31  C   UNL     1     -10.983  11.533  15.556  0.00  0.00    +0.105 C 
ATOM     32  C   UNL     1      -8.993  12.609  16.365  0.00  0.00    +0.105 C 
ENDBRANCH  30   7
ENDBRANCH  27  30
ENDBRANCH  19   6
BRANCH   3  15
ATOM     15  C   UNL     1     -16.583   9.343  23.092  0.00  0.00    +0.121 C 
BRANCH  15  18
ATOM      5  N   UNL     1     -14.499  10.467  25.871  0.00  0.00    -0.349 N 
ATOM     18  C   UNL     1     -15.531   9.868  24.032  0.00  0.00    -0.008 A 
ATOM     21  C   UNL     1     -14.270  10.363  23.655  0.00  0.00    +0.004 A 
ATOM     22  C   UNL     1     -15.662   9.935  25.383  0.00  0.00    +0.091 A 
ATOM     23  C   UNL     1     -13.630  10.738  24.838  0.00  0.00    +0.049 A 
ATOM     24  C   UNL     1     -13.591  10.538  22.432  0.00  0.00    +0.010 A 
ATOM     25  C   UNL     1     -12.341  11.280  24.860  0.00  0.00    +0.026 A 
ATOM     26  C   UNL     1     -14.235  10.702  27.275  0.00  0.00    +0.149 C 
ATOM     28  C   UNL     1     -12.301  11.079  22.439  0.00  0.00    +0.001 A 
ATOM     29  C   UNL     1     -11.687  11.444  23.635  0.00  0.00    +0.002 A 
ENDBRANCH  15  18
ENDBRANCH   3  15
TORSDOF 5
ENDMDL
MODEL 7
REMARK VINA RESULT:      -6.1     23.310     25.817
REMARK  Name = 7051867
REMARK  8 active torsions:
REMARK  status: ('A' for Active; 'I' for Inactive)
REMARK    1  A    between atoms: N_3  and  C_15
REMARK    2  A    between atoms: N_5  and  C_26
REMARK    3  A    between atoms: N_6  and  C_19
REMARK    4  A    between atoms: N_7  and  C_30
REMARK    5  A    between atoms: N_7  and  C_31
REMARK    6  A    between atoms: N_7  and  C_32
REMARK    7  A    between atoms: C_15  and  C_18
REMARK    8  A    between atoms: C_27  and  C_30
REMARK                            x       y       z     vdW  Elec       q    Type
REMARK                         _______ _______ _______ _____ _____    ______ ____
ROOT
ATOM      1  O   UNL     1      10.675   4.050   2.602  0.00  0.00    -0.266 OA
ATOM      3  N   UNL     1       8.971   7.760   5.511  0.00  0.00    -0.297 NA
ATOM      4  N   UNL     1      10.965   5.541   4.377  0.00  0.00    -0.310 N 
ATOM      8  C   UNL     1       9.496   5.507   6.477  0.00  0.00    +0.024 C 
ATOM      9  C   UNL     1      11.278   7.173   6.268  0.00  0.00    +0.050 C 
ATOM     10  C   UNL     1      10.731   6.069   7.169  0.00  0.00    +0.017 C 
ATOM     11  C   UNL     1       8.448   6.622   6.277  0.00  0.00    +0.090 C 
ATOM     12  C   UNL     1      10.213   8.280   6.102  0.00  0.00    +0.094 C 
ATOM     13  C   UNL     1       9.923   4.855   5.155  0.00  0.00    +0.130 C 
ATOM     14  C   UNL     1      11.680   6.615   4.916  0.00  0.00    +0.026 A 
ATOM     16  C   UNL     1      12.702   7.157   4.232  0.00  0.00    +0.024 A 
ATOM     17  C   UNL     1      11.267   5.003   3.110  0.00  0.00    +0.273 A 
ATOM     19  C   UNL     1      12.397   5.651   2.370  0.00  0.00    +0.099 A 
ATOM     20  C   UNL     1      13.064   6.664   2.933  0.00  0.00    +0.030 A 
ENDROOT
BRANCH  19   6
ATOM      2  O   UNL     1      11.394   6.607  -0.132  0.00  0.00    -0.274 OA
ATOM      6  N   UNL     1      12.713   5.167   1.135  0.00  0.00    -0.280 N 
ATOM     27  C   UNL     1      12.199   5.682  -0.050  0.00  0.00    +0.231 C 
ATOM     33  H   UNL     1      13.166   4.257   1.104  0.00  0.00    +0.155 HD
BRANCH  27  30
ATOM     30  C   UNL     1      12.737   4.937  -1.255  0.00  0.00    +0.180 C 
BRANCH  30   7
ATOM      7  N   UNL     1      11.690   4.079  -1.790  0.00  0.00    -0.300 NA
ATOM     31  C   UNL     1      12.131   2.683  -1.828  0.00  0.00    +0.105 C 
ATOM     32  C   UNL     1      11.293   4.520  -3.130  0.00  0.00    +0.105 C 
ENDBRANCH  30   7
ENDBRANCH  27  30
ENDBRANCH  19   6
BRANCH   3  15
ATOM     15  C   UNL     1       7.968   8.815   5.388  0.00  0.00    +0.121 C 
BRANCH  15  18
ATOM      5  N   UNL     1       7.783   9.199   1.762  0.00  0.00    -0.349 N 
ATOM     18  C   UNL     1       7.654   9.127   3.949  0.00  0.00    -0.008 A 
ATOM     21  C   UNL     1       6.560   9.885   3.496  0.00  0.00    +0.004 A 
ATOM     22  C   UNL     1       8.394   8.713   2.887  0.00  0.00    +0.091 A 
ATOM     23  C   UNL     1       6.660   9.919   2.105  0.00  0.00    +0.049 A 
ATOM     24  C   UNL     1       5.483  10.553   4.115  0.00  0.00    +0.010 A 
ATOM     25  C   UNL     1       5.736  10.589   1.297  0.00  0.00    +0.026 A 
ATOM     26  C   UNL     1       8.262   8.978   0.414  0.00  0.00    +0.149 C 
ATOM     28  C   UNL     1       4.551  11.228   3.319  0.00  0.00    +0.001 A 
ATOM     29  C   UNL     1       4.677  11.245   1.932  0.00  0.00    +0.002 A 
ENDBRANCH  15  18
ENDBRANCH   3  15
TORSDOF 5
ENDMDL
MODEL 8
REMARK VINA RESULT:      -6.1     20.002     23.187
REMARK  Name = 7051867
REMARK  8 active torsions:
REMARK  status: ('A' for Active; 'I' for Inactive)
REMARK    1  A    between atoms: N_3  and  C_15
REMARK    2  A    between atoms: N_5  and  C_26
REMARK    3  A    between atoms: N_6  and  C_19
REMARK    4  A    between atoms: N_7  and  C_30
REMARK    5  A    between atoms: N_7  and  C_31
REMARK    6  A    between atoms: N_7  and  C_32
REMARK    7  A    between atoms: C_15  and  C_18
REMARK    8  A    between atoms: C_27  and  C_30
REMARK                            x       y       z     vdW  Elec       q    Type
REMARK                         _______ _______ _______ _____ _____    ______ ____
ROOT
ATOM      1  O   UNL     1       8.910 -12.375  31.726  0.00  0.00    -0.266 OA
ATOM      3  N   UNL     1       7.248  -8.845  34.874  0.00  0.00    -0.297 NA
ATOM      4  N   UNL     1       8.453 -10.136  32.217  0.00  0.00    -0.310 N 
ATOM      8  C   UNL     1       9.632  -8.856  34.099  0.00  0.00    +0.024 C 
ATOM      9  C   UNL     1       7.929  -7.731  32.745  0.00  0.00    +0.050 C 
ATOM     10  C   UNL     1       9.374  -7.634  33.227  0.00  0.00    +0.017 C 
ATOM     11  C   UNL     1       8.655  -8.868  35.293  0.00  0.00    +0.090 C 
ATOM     12  C   UNL     1       6.977  -7.724  33.962  0.00  0.00    +0.094 C 
ATOM     13  C   UNL     1       9.517 -10.116  33.231  0.00  0.00    +0.130 C 
ATOM     14  C   UNL     1       7.721  -8.983  31.914  0.00  0.00    +0.026 A 
ATOM     16  C   UNL     1       6.829  -8.994  30.910  0.00  0.00    +0.024 A 
ATOM     17  C   UNL     1       8.278 -11.340  31.505  0.00  0.00    +0.273 A 
ATOM     19  C   UNL     1       7.259 -11.316  30.409  0.00  0.00    +0.099 A 
ATOM     20  C   UNL     1       6.595 -10.186  30.144  0.00  0.00    +0.030 A 
ENDROOT
BRANCH  19   6
ATOM      2  O   UNL     1       8.613 -12.107  28.017  0.00  0.00    -0.274 OA
ATOM      6  N   UNL     1       7.050 -12.465  29.704  0.00  0.00    -0.280 N 
ATOM     27  C   UNL     1       7.749 -12.800  28.550  0.00  0.00    +0.231 C 
ATOM     33  H   UNL     1       6.197 -12.980  29.913  0.00  0.00    +0.155 HD
BRANCH  27  30
ATOM     30  C   UNL     1       7.294 -14.135  27.996  0.00  0.00    +0.180 C 
BRANCH  30   7
ATOM      7  N   UNL     1       6.552 -14.849  29.025  0.00  0.00    -0.300 NA
ATOM     31  C   UNL     1       7.321 -15.993  29.520  0.00  0.00    +0.105 C 
ATOM     32  C   UNL     1       5.255 -15.297  28.511  0.00  0.00    +0.105 C 
ENDBRANCH  30   7
ENDBRANCH  27  30
ENDBRANCH  19   6
BRANCH   3  15
ATOM     15  C   UNL     1       6.356  -8.805  36.031  0.00  0.00    +0.121 C 
BRANCH  15  18
ATOM      5  N   UNL     1       2.993 -10.218  35.876  0.00  0.00    -0.349 N 
ATOM     18  C   UNL     1       5.089  -9.582  35.791  0.00  0.00    -0.008 A 
ATOM     21  C   UNL     1       4.971 -10.723  34.978  0.00  0.00    +0.004 A 
ATOM     22  C   UNL     1       3.880  -9.281  36.334  0.00  0.00    +0.091 A 
ATOM     23  C   UNL     1       3.632 -11.111  35.046  0.00  0.00    +0.049 A 
ATOM     24  C   UNL     1       5.857 -11.479  34.184  0.00  0.00    +0.010 A 
ATOM     25  C   UNL     1       3.132 -12.221  34.357  0.00  0.00    +0.026 A 
ATOM     26  C   UNL     1       1.588 -10.248  36.223  0.00  0.00    +0.149 C 
ATOM     28  C   UNL     1       5.371 -12.592  33.490  0.00  0.00    +0.001 A 
ATOM     29  C   UNL     1       4.028 -12.956  33.576  0.00  0.00    +0.002 A 
ENDBRANCH  15  18
ENDBRANCH   3  15
TORSDOF 5
ENDMDL
MODEL 9
REMARK VINA RESULT:      -6.0      8.124     12.429
REMARK  Name = 7051867
REMARK  8 active torsions:
REMARK  status: ('A' for Active; 'I' for Inactive)
REMARK    1  A    between atoms: N_3  and  C_15
REMARK    2  A    between atoms: N_5  and  C_26
REMARK    3  A    between atoms: N_6  and  C_19
REMARK    4  A    between atoms: N_7  and  C_30
REMARK    5  A    between atoms: N_7  and  C_31
REMARK    6  A    between atoms: N_7  and  C_32
REMARK    7  A    between atoms: C_15  and  C_18
REMARK    8  A    between atoms: C_27  and  C_30
REMARK                            x       y       z     vdW  Elec       q    Type
REMARK                         _______ _______ _______ _____ _____    ______ ____
ROOT
ATOM      1  O   UNL     1     -11.502  -7.654   9.047  0.00  0.00    -0.266 OA
ATOM      3  N   UNL     1     -14.626  -4.111  10.727  0.00  0.00    -0.297 NA
ATOM      4  N   UNL     1     -11.905  -5.720  10.296  0.00  0.00    -0.310 N 
ATOM      8  C   UNL     1     -13.479  -5.672  12.318  0.00  0.00    +0.024 C 
ATOM      9  C   UNL     1     -12.343  -3.620  11.613  0.00  0.00    +0.050 C 
ATOM     10  C   UNL     1     -12.578  -4.544  12.805  0.00  0.00    +0.017 C 
ATOM     11  C   UNL     1     -14.813  -5.096  11.800  0.00  0.00    +0.090 C 
ATOM     12  C   UNL     1     -13.695  -3.047  11.130  0.00  0.00    +0.094 C 
ATOM     13  C   UNL     1     -12.730  -6.477  11.248  0.00  0.00    +0.130 C 
ATOM     14  C   UNL     1     -11.645  -4.359  10.487  0.00  0.00    +0.026 A 
ATOM     16  C   UNL     1     -10.801  -3.711   9.668  0.00  0.00    +0.024 A 
ATOM     17  C   UNL     1     -11.315  -6.452   9.245  0.00  0.00    +0.273 A 
ATOM     19  C   UNL     1     -10.399  -5.687   8.341  0.00  0.00    +0.099 A 
ATOM     20  C   UNL     1     -10.168  -4.391   8.573  0.00  0.00    +0.030 A 
ENDROOT
BRANCH  19   6
ATOM      2  O   UNL     1      -7.739  -6.736   8.279  0.00  0.00    -0.274 OA
ATOM      6  N   UNL     1      -9.818  -6.357   7.305  0.00  0.00    -0.280 N 
ATOM     27  C   UNL     1      -8.520  -6.853   7.338  0.00  0.00    +0.231 C 
ATOM     33  H   UNL     1     -10.281  -6.288   6.401  0.00  0.00    +0.155 HD
BRANCH  27  30
ATOM     30  C   UNL     1      -8.160  -7.546   6.039  0.00  0.00    +0.180 C 
BRANCH  30   7
ATOM      7  N   UNL     1      -7.788  -8.924   6.322  0.00  0.00    -0.300 NA
ATOM     31  C   UNL     1      -6.664  -9.341   5.481  0.00  0.00    +0.105 C 
ATOM     32  C   UNL     1      -8.929  -9.821   6.120  0.00  0.00    +0.105 C 
ENDBRANCH  30   7
ENDBRANCH  27  30
ENDBRANCH  19   6
BRANCH   3  15
ATOM     15  C   UNL     1     -15.907  -3.550  10.300  0.00  0.00    +0.121 C 
BRANCH  15  18
ATOM      5  N   UNL     1     -15.202  -1.163   7.629  0.00  0.00    -0.349 N 
ATOM     18  C   UNL     1     -15.725  -2.371   9.382  0.00  0.00    -0.008 A 
ATOM     21  C   UNL     1     -16.070  -1.041   9.680  0.00  0.00    +0.004 A 
ATOM     22  C   UNL     1     -15.197  -2.436   8.131  0.00  0.00    +0.091 A 
ATOM     23  C   UNL     1     -15.730  -0.290   8.554  0.00  0.00    +0.049 A 
ATOM     24  C   UNL     1     -16.638  -0.382  10.789  0.00  0.00    +0.010 A 
ATOM     25  C   UNL     1     -15.930   1.093   8.479  0.00  0.00    +0.026 A 
ATOM     26  C   UNL     1     -14.720  -0.803   6.312  0.00  0.00    +0.149 C 
ATOM     28  C   UNL     1     -16.844   1.001  10.729  0.00  0.00    +0.001 A 
ATOM     29  C   UNL     1     -16.495   1.725   9.591  0.00  0.00    +0.002 A 
ENDBRANCH  15  18
ENDBRANCH   3  15
TORSDOF 5
ENDMDL
MODEL 10
REMARK VINA RESULT:      -6.0     26.681     29.883
REMARK  Name = 7051867
REMARK  8 active torsions:
REMARK  status: ('A' for Active; 'I' for Inactive)
REMARK    1  A    between atoms: N_3  and  C_15
REMARK    2  A    between atoms: N_5  and  C_26
REMARK    3  A    between atoms: N_6  and  C_19
REMARK    4  A    between atoms: N_7  and  C_30
REMARK    5  A    between atoms: N_7  and  C_31
REMARK    6  A    between atoms: N_7  and  C_32
REMARK    7  A    between atoms: C_15  and  C_18
REMARK    8  A    between atoms: C_27  and  C_30
REMARK                            x       y       z     vdW  Elec       q    Type
REMARK                         _______ _______ _______ _____ _____    ______ ____
ROOT
ATOM      1  O   UNL     1      19.597  -2.107  31.353  0.00  0.00    -0.266 OA
ATOM      3  N   UNL     1      18.213  -5.237  27.689  0.00  0.00    -0.297 NA
ATOM      4  N   UNL     1      18.310  -3.899  30.585  0.00  0.00    -0.310 N 
ATOM      8  C   UNL     1      19.337  -6.098  29.758  0.00  0.00    +0.024 C 
ATOM      9  C   UNL     1      16.905  -5.810  29.739  0.00  0.00    +0.050 C 
ATOM     10  C   UNL     1      18.029  -6.715  30.235  0.00  0.00    +0.017 C 
ATOM     11  C   UNL     1      19.347  -6.005  28.218  0.00  0.00    +0.090 C 
ATOM     12  C   UNL     1      16.933  -5.753  28.194  0.00  0.00    +0.094 C 
ATOM     13  C   UNL     1      19.513  -4.730  30.432  0.00  0.00    +0.130 C 
ATOM     14  C   UNL     1      17.037  -4.417  30.325  0.00  0.00    +0.026 A 
ATOM     16  C   UNL     1      15.943  -3.677  30.575  0.00  0.00    +0.024 A 
ATOM     17  C   UNL     1      18.498  -2.599  31.095  0.00  0.00    +0.273 A 
ATOM     19  C   UNL     1      17.255  -1.799  31.338  0.00  0.00    +0.099 A 
ATOM     20  C   UNL     1      16.058  -2.342  31.091  0.00  0.00    +0.030 A 
ENDROOT
BRANCH  19   6
ATOM      2  O   UNL     1      17.084  -0.999  34.078  0.00  0.00    -0.274 OA
ATOM      6  N   UNL     1      17.394  -0.531  31.819  0.00  0.00    -0.280 N 
ATOM     27  C   UNL     1      17.310  -0.204  33.168  0.00  0.00    +0.231 C 
ATOM     33  H   UNL     1      17.333   0.224  31.140  0.00  0.00    +0.155 HD
BRANCH  27  30
ATOM     30  C   UNL     1      17.506   1.282  33.390  0.00  0.00    +0.180 C 
BRANCH  30   7
ATOM      7  N   UNL     1      16.219   1.953  33.282  0.00  0.00    -0.300 NA
ATOM     31  C   UNL     1      16.287   3.055  32.319  0.00  0.00    +0.105 C 
ATOM     32  C   UNL     1      15.783   2.451  34.589  0.00  0.00    +0.105 C 
ENDBRANCH  30   7
ENDBRANCH  27  30
ENDBRANCH  19   6
BRANCH   3  15
ATOM     15  C   UNL     1      18.229  -5.217  26.228  0.00  0.00    +0.121 C 
BRANCH  15  18
ATOM      5  N   UNL     1      19.279  -1.826  25.372  0.00  0.00    -0.349 N 
ATOM     18  C   UNL     1      18.443  -3.828  25.688  0.00  0.00    -0.008 A 
ATOM     21  C   UNL     1      17.669  -3.210  24.689  0.00  0.00    +0.004 A 
ATOM     22  C   UNL     1      19.421  -2.978  26.099  0.00  0.00    +0.091 A 
ATOM     23  C   UNL     1      18.217  -1.940  24.504  0.00  0.00    +0.049 A 
ATOM     24  C   UNL     1      16.555  -3.589  23.913  0.00  0.00    +0.010 A 
ATOM     25  C   UNL     1      17.705  -1.025  23.578  0.00  0.00    +0.026 A 
ATOM     26  C   UNL     1      20.133  -0.665  25.510  0.00  0.00    +0.149 C 
ATOM     28  C   UNL     1      16.032  -2.683  22.983  0.00  0.00    +0.001 A 
ATOM     29  C   UNL     1      16.600  -1.422  22.819  0.00  0.00    +0.002 A 
ENDBRANCH  15  18
ENDBRANCH   3  15
TORSDOF 5
ENDMDL
