MODEL 1
REMARK VINA RESULT:      -8.9      0.000      0.000
REMARK  Name = 45783310
REMARK  7 active torsions:
REMARK  status: ('A' for Active; 'I' for Inactive)
REMARK    1  A    between atoms: O_3  and  C_35
REMARK    2  A    between atoms: N_5  and  C_16
REMARK    3  A    between atoms: C_11  and  C_21
REMARK    4  A    between atoms: C_15  and  C_24
REMARK    5  A    between atoms: C_16  and  C_22
REMARK    6  A    between atoms: C_25  and  C_27
REMARK    7  A    between atoms: C_34  and  C_35
REMARK                            x       y       z     vdW  Elec       q    Type
REMARK                         _______ _______ _______ _____ _____    ______ ____
ROOT
ATOM      1  O   UNL     1      14.177   6.950  20.770  0.00  0.00    -0.336 OA
ATOM      7  N   UNL     1      15.852   7.753  19.520  0.00  0.00    -0.190 NA
ATOM      8  N   UNL     1      15.308   6.964  21.597  0.00  0.00    -0.056 NA
ATOM     21  C   UNL     1      14.584   7.429  19.566  0.00  0.00    +0.245 A 
ATOM     25  C   UNL     1      16.254   7.450  20.788  0.00  0.00    +0.202 A 
ENDROOT
BRANCH  25  27
ATOM      6  N   UNL     1      20.655   5.707  21.739  0.00  0.00    -0.315 N 
ATOM      9  N   UNL     1      20.254   8.021  22.044  0.00  0.00    -0.240 NA
ATOM     15  C   UNL     1      22.490   3.463  21.898  0.00  0.00    +0.078 C 
ATOM     17  C   UNL     1      21.378   3.524  20.853  0.00  0.00    +0.031 C 
ATOM     18  C   UNL     1      22.153   4.322  23.116  0.00  0.00    +0.031 C 
ATOM     19  C   UNL     1      20.935   4.950  20.517  0.00  0.00    +0.107 C 
ATOM     20  C   UNL     1      21.726   5.741  22.743  0.00  0.00    +0.107 C 
ATOM     23  C   UNL     1      19.786   6.804  21.688  0.00  0.00    +0.122 A 
ATOM     26  C   UNL     1      18.486   6.565  21.271  0.00  0.00    +0.055 A 
ATOM     27  C   UNL     1      17.611   7.643  21.216  0.00  0.00    +0.027 A 
ATOM     30  C   UNL     1      18.055   8.911  21.575  0.00  0.00    +0.031 A 
ATOM     31  C   UNL     1      19.374   9.046  21.978  0.00  0.00    +0.113 A 
BRANCH  15  24
ATOM      2  O   UNL     1      24.664   4.457  21.978  0.00  0.00    -0.276 OA
ATOM     10  N   UNL     1      23.961   3.534  19.992  0.00  0.00    -0.329 N 
ATOM     24  C   UNL     1      23.813   3.867  21.317  0.00  0.00    +0.214 C 
ATOM     36  H   UNL     1      24.817   3.757  19.495  0.00  0.00    +0.145 HD
ATOM     37  H   UNL     1      23.223   3.102  19.444  0.00  0.00    +0.145 HD
ENDBRANCH  15  24
ENDBRANCH  25  27
BRANCH  21  11
ATOM      5  N   UNL     1      12.538   8.579  18.739  0.00  0.00    -0.287 NA
ATOM     11  C   UNL     1      13.532   7.517  18.482  0.00  0.00    +0.146 C 
ATOM     12  C   UNL     1      14.125   7.862  17.104  0.00  0.00    +0.030 C 
ATOM     13  C   UNL     1      13.362   9.096  16.640  0.00  0.00    +0.017 C 
ATOM     14  C   UNL     1      12.070   9.034  17.430  0.00  0.00    +0.085 C 
BRANCH   5  16
ATOM     16  C   UNL     1      11.441   8.143  19.593  0.00  0.00    +0.120 C 
BRANCH  16  22
ATOM     22  C   UNL     1      11.311   9.003  20.823  0.00  0.00    -0.033 A 
ATOM     28  C   UNL     1      11.791  10.312  20.813  0.00  0.00    +0.006 A 
ATOM     29  C   UNL     1      10.710   8.488  21.972  0.00  0.00    +0.006 A 
ATOM     32  C   UNL     1      11.670  11.108  21.952  0.00  0.00    +0.015 A 
ATOM     33  C   UNL     1      10.590   9.284  23.112  0.00  0.00    +0.015 A 
ATOM     34  C   UNL     1      11.070  10.593  23.102  0.00  0.00    +0.059 A 
BRANCH  34  35
ATOM      4  O   UNL     1      11.629  11.320  25.312  0.00  0.00    -0.245 OA
ATOM     35  C   UNL     1      10.943  11.423  24.289  0.00  0.00    +0.337 C 
BRANCH  35   3
ATOM      3  O   UNL     1       9.963  12.358  24.169  0.00  0.00    -0.477 OA
ATOM     38  H   UNL     1       9.775  12.573  23.230  0.00  0.00    +0.295 HD
ENDBRANCH  35   3
ENDBRANCH  34  35
ENDBRANCH  16  22
ENDBRANCH   5  16
ENDBRANCH  21  11
TORSDOF 7
ENDMDL
MODEL 2
REMARK VINA RESULT:      -8.3      2.336      4.480
REMARK  Name = 45783310
REMARK  7 active torsions:
REMARK  status: ('A' for Active; 'I' for Inactive)
REMARK    1  A    between atoms: O_3  and  C_35
REMARK    2  A    between atoms: N_5  and  C_16
REMARK    3  A    between atoms: C_11  and  C_21
REMARK    4  A    between atoms: C_15  and  C_24
REMARK    5  A    between atoms: C_16  and  C_22
REMARK    6  A    between atoms: C_25  and  C_27
REMARK    7  A    between atoms: C_34  and  C_35
REMARK                            x       y       z     vdW  Elec       q    Type
REMARK                         _______ _______ _______ _____ _____    ______ ____
ROOT
ATOM      1  O   UNL     1      14.595   6.853  20.483  0.00  0.00    -0.336 OA
ATOM      7  N   UNL     1      15.640   8.478  21.616  0.00  0.00    -0.190 NA
ATOM      8  N   UNL     1      15.963   6.562  20.406  0.00  0.00    -0.056 NA
ATOM     21  C   UNL     1      14.492   7.995  21.211  0.00  0.00    +0.245 A 
ATOM     25  C   UNL     1      16.513   7.565  21.097  0.00  0.00    +0.202 A 
ENDROOT
BRANCH  25  27
ATOM      6  N   UNL     1      20.870   5.561  21.656  0.00  0.00    -0.315 N 
ATOM      9  N   UNL     1      20.693   7.923  21.651  0.00  0.00    -0.240 NA
ATOM     15  C   UNL     1      22.538   3.197  21.894  0.00  0.00    +0.078 C 
ATOM     17  C   UNL     1      21.282   3.215  21.025  0.00  0.00    +0.031 C 
ATOM     18  C   UNL     1      22.463   4.249  22.999  0.00  0.00    +0.031 C 
ATOM     19  C   UNL     1      20.896   4.614  20.539  0.00  0.00    +0.107 C 
ATOM     20  C   UNL     1      22.086   5.635  22.475  0.00  0.00    +0.107 C 
ATOM     23  C   UNL     1      20.086   6.718  21.562  0.00  0.00    +0.122 A 
ATOM     26  C   UNL     1      18.723   6.547  21.381  0.00  0.00    +0.055 A 
ATOM     27  C   UNL     1      17.931   7.686  21.287  0.00  0.00    +0.027 A 
ATOM     30  C   UNL     1      18.518   8.944  21.375  0.00  0.00    +0.031 A 
ATOM     31  C   UNL     1      19.890   9.007  21.555  0.00  0.00    +0.113 A 
BRANCH  15  24
ATOM      2  O   UNL     1      24.623   4.232  21.346  0.00  0.00    -0.276 OA
ATOM     10  N   UNL     1      23.856   2.542  19.987  0.00  0.00    -0.329 N 
ATOM     24  C   UNL     1      23.778   3.385  21.070  0.00  0.00    +0.214 C 
ATOM     36  H   UNL     1      24.653   2.578  19.360  0.00  0.00    +0.145 HD
ATOM     37  H   UNL     1      23.119   1.890  19.739  0.00  0.00    +0.145 HD
ENDBRANCH  15  24
ENDBRANCH  25  27
BRANCH  21  11
ATOM      5  N   UNL     1      12.438   8.965  20.195  0.00  0.00    -0.287 NA
ATOM     11  C   UNL     1      13.093   8.525  21.443  0.00  0.00    +0.146 C 
ATOM     12  C   UNL     1      12.145   7.462  22.028  0.00  0.00    +0.030 C 
ATOM     13  C   UNL     1      10.959   7.418  21.074  0.00  0.00    +0.017 C 
ATOM     14  C   UNL     1      11.001   8.770  20.390  0.00  0.00    +0.085 C 
BRANCH   5  16
ATOM     16  C   UNL     1      12.760  10.339  19.831  0.00  0.00    +0.120 C 
BRANCH  16  22
ATOM     22  C   UNL     1      13.408  10.424  18.474  0.00  0.00    -0.033 A 
ATOM     28  C   UNL     1      14.000  11.615  18.057  0.00  0.00    +0.006 A 
ATOM     29  C   UNL     1      13.415   9.309  17.635  0.00  0.00    +0.006 A 
ATOM     32  C   UNL     1      14.600  11.694  16.801  0.00  0.00    +0.015 A 
ATOM     33  C   UNL     1      14.015   9.388  16.377  0.00  0.00    +0.015 A 
ATOM     34  C   UNL     1      14.607  10.580  15.961  0.00  0.00    +0.059 A 
BRANCH  34  35
ATOM      4  O   UNL     1      15.523  11.706  14.058  0.00  0.00    -0.245 OA
ATOM     35  C   UNL     1      15.234  10.660  14.651  0.00  0.00    +0.337 C 
BRANCH  35   3
ATOM      3  O   UNL     1      15.483   9.434  14.116  0.00  0.00    -0.477 OA
ATOM     38  H   UNL     1      15.169   9.369  13.190  0.00  0.00    +0.295 HD
ENDBRANCH  35   3
ENDBRANCH  34  35
ENDBRANCH  16  22
ENDBRANCH   5  16
ENDBRANCH  21  11
TORSDOF 7
ENDMDL
MODEL 3
REMARK VINA RESULT:      -7.8      1.638      2.190
REMARK  Name = 45783310
REMARK  7 active torsions:
REMARK  status: ('A' for Active; 'I' for Inactive)
REMARK    1  A    between atoms: O_3  and  C_35
REMARK    2  A    between atoms: N_5  and  C_16
REMARK    3  A    between atoms: C_11  and  C_21
REMARK    4  A    between atoms: C_15  and  C_24
REMARK    5  A    between atoms: C_16  and  C_22
REMARK    6  A    between atoms: C_25  and  C_27
REMARK    7  A    between atoms: C_34  and  C_35
REMARK                            x       y       z     vdW  Elec       q    Type
REMARK                         _______ _______ _______ _____ _____    ______ ____
ROOT
ATOM      1  O   UNL     1      14.626   6.725  20.573  0.00  0.00    -0.336 OA
ATOM      7  N   UNL     1      15.661   8.354  21.709  0.00  0.00    -0.190 NA
ATOM      8  N   UNL     1      15.997   6.464  20.464  0.00  0.00    -0.056 NA
ATOM     21  C   UNL     1      14.515   7.855  21.321  0.00  0.00    +0.245 A 
ATOM     25  C   UNL     1      16.541   7.467  21.159  0.00  0.00    +0.202 A 
ENDROOT
BRANCH  25  27
ATOM      6  N   UNL     1      20.943   5.542  21.640  0.00  0.00    -0.315 N 
ATOM      9  N   UNL     1      20.723   7.900  21.634  0.00  0.00    -0.240 NA
ATOM     15  C   UNL     1      22.657   3.209  21.851  0.00  0.00    +0.078 C 
ATOM     17  C   UNL     1      21.385   3.202  21.006  0.00  0.00    +0.031 C 
ATOM     18  C   UNL     1      22.584   4.262  22.955  0.00  0.00    +0.031 C 
ATOM     19  C   UNL     1      20.966   4.593  20.525  0.00  0.00    +0.107 C 
ATOM     20  C   UNL     1      22.173   5.640  22.436  0.00  0.00    +0.107 C 
ATOM     23  C   UNL     1      20.137   6.684  21.558  0.00  0.00    +0.122 A 
ATOM     26  C   UNL     1      18.774   6.489  21.403  0.00  0.00    +0.055 A 
ATOM     27  C   UNL     1      17.960   7.614  21.322  0.00  0.00    +0.027 A 
ATOM     30  C   UNL     1      18.526   8.882  21.396  0.00  0.00    +0.031 A 
ATOM     31  C   UNL     1      19.900   8.970  21.551  0.00  0.00    +0.113 A 
BRANCH  15  24
ATOM      2  O   UNL     1      24.701   4.294  21.249  0.00  0.00    -0.276 OA
ATOM     10  N   UNL     1      23.964   2.555  19.936  0.00  0.00    -0.329 N 
ATOM     24  C   UNL     1      23.878   3.417  21.004  0.00  0.00    +0.214 C 
ATOM     36  H   UNL     1      24.750   2.603  19.296  0.00  0.00    +0.145 HD
ATOM     37  H   UNL     1      23.243   1.877  19.713  0.00  0.00    +0.145 HD
ENDBRANCH  15  24
ENDBRANCH  25  27
BRANCH  21  11
ATOM      5  N   UNL     1      12.552   9.115  20.454  0.00  0.00    -0.287 NA
ATOM     11  C   UNL     1      13.111   8.352  21.589  0.00  0.00    +0.146 C 
ATOM     12  C   UNL     1      12.109   7.206  21.821  0.00  0.00    +0.030 C 
ATOM     13  C   UNL     1      10.993   7.443  20.812  0.00  0.00    +0.017 C 
ATOM     14  C   UNL     1      11.102   8.923  20.501  0.00  0.00    +0.085 C 
BRANCH   5  16
ATOM     16  C   UNL     1      12.918  10.525  20.475  0.00  0.00    +0.120 C 
BRANCH  16  22
ATOM     22  C   UNL     1      12.595  11.170  21.797  0.00  0.00    -0.033 A 
ATOM     28  C   UNL     1      11.289  11.569  22.078  0.00  0.00    +0.006 A 
ATOM     29  C   UNL     1      13.603  11.367  22.741  0.00  0.00    +0.006 A 
ATOM     32  C   UNL     1      10.990  12.166  23.302  0.00  0.00    +0.015 A 
ATOM     33  C   UNL     1      13.304  11.964  23.966  0.00  0.00    +0.015 A 
ATOM     34  C   UNL     1      11.997  12.363  24.246  0.00  0.00    +0.059 A 
BRANCH  34  35
ATOM      4  O   UNL     1      12.439  13.729  26.161  0.00  0.00    -0.245 OA
ATOM     35  C   UNL     1      11.686  12.984  25.524  0.00  0.00    +0.337 C 
BRANCH  35   3
ATOM      3  O   UNL     1      10.443  12.659  25.972  0.00  0.00    -0.477 OA
ATOM     38  H   UNL     1       9.759  13.274  25.632  0.00  0.00    +0.295 HD
ENDBRANCH  35   3
ENDBRANCH  34  35
ENDBRANCH  16  22
ENDBRANCH   5  16
ENDBRANCH  21  11
TORSDOF 7
ENDMDL
MODEL 4
REMARK VINA RESULT:      -7.8     15.078     17.454
REMARK  Name = 45783310
REMARK  7 active torsions:
REMARK  status: ('A' for Active; 'I' for Inactive)
REMARK    1  A    between atoms: O_3  and  C_35
REMARK    2  A    between atoms: N_5  and  C_16
REMARK    3  A    between atoms: C_11  and  C_21
REMARK    4  A    between atoms: C_15  and  C_24
REMARK    5  A    between atoms: C_16  and  C_22
REMARK    6  A    between atoms: C_25  and  C_27
REMARK    7  A    between atoms: C_34  and  C_35
REMARK                            x       y       z     vdW  Elec       q    Type
REMARK                         _______ _______ _______ _____ _____    ______ ____
ROOT
ATOM      1  O   UNL     1      13.037   6.479   6.868  0.00  0.00    -0.336 OA
ATOM      7  N   UNL     1      13.022   8.527   5.962  0.00  0.00    -0.190 NA
ATOM      8  N   UNL     1      14.359   6.939   6.923  0.00  0.00    -0.056 NA
ATOM     21  C   UNL     1      12.316   7.474   6.288  0.00  0.00    +0.245 A 
ATOM     25  C   UNL     1      14.269   8.152   6.370  0.00  0.00    +0.202 A 
ENDROOT
BRANCH  25  27
ATOM      6  N   UNL     1      18.982   8.789   5.536  0.00  0.00    -0.315 N 
ATOM      9  N   UNL     1      17.618  10.693   5.892  0.00  0.00    -0.240 NA
ATOM     15  C   UNL     1      21.617   7.683   5.027  0.00  0.00    +0.078 C 
ATOM     17  C   UNL     1      20.346   7.009   4.514  0.00  0.00    +0.031 C 
ATOM     18  C   UNL     1      21.328   8.558   6.245  0.00  0.00    +0.031 C 
ATOM     19  C   UNL     1      19.174   7.977   4.333  0.00  0.00    +0.107 C 
ATOM     20  C   UNL     1      20.159   9.518   6.023  0.00  0.00    +0.107 C 
ATOM     23  C   UNL     1      17.725   9.348   5.798  0.00  0.00    +0.122 A 
ATOM     26  C   UNL     1      16.660   8.474   5.947  0.00  0.00    +0.055 A 
ATOM     27  C   UNL     1      15.406   9.014   6.209  0.00  0.00    +0.027 A 
ATOM     30  C   UNL     1      15.257  10.392   6.313  0.00  0.00    +0.031 A 
ATOM     31  C   UNL     1      16.383  11.181   6.148  0.00  0.00    +0.113 A 
BRANCH  15  24
ATOM      2  O   UNL     1      22.811   9.571   4.173  0.00  0.00    -0.276 OA
ATOM     10  N   UNL     1      22.234   7.894   2.707  0.00  0.00    -0.329 N 
ATOM     24  C   UNL     1      22.287   8.483   3.949  0.00  0.00    +0.214 C 
ATOM     36  H   UNL     1      22.657   8.346   1.903  0.00  0.00    +0.145 HD
ATOM     37  H   UNL     1      21.743   7.025   2.528  0.00  0.00    +0.145 HD
ENDBRANCH  15  24
ENDBRANCH  25  27
BRANCH  21  11
ATOM      5  N   UNL     1      10.555   6.057   5.246  0.00  0.00    -0.287 NA
ATOM     11  C   UNL     1      10.834   7.220   6.113  0.00  0.00    +0.146 C 
ATOM     12  C   UNL     1      10.126   6.896   7.441  0.00  0.00    +0.030 C 
ATOM     13  C   UNL     1       9.428   5.563   7.205  0.00  0.00    +0.017 C 
ATOM     14  C   UNL     1       9.280   5.500   5.698  0.00  0.00    +0.085 C 
BRANCH   5  16
ATOM     16  C   UNL     1      10.535   6.390   3.828  0.00  0.00    +0.120 C 
BRANCH  16  22
ATOM     22  C   UNL     1      11.641   5.701   3.073  0.00  0.00    -0.033 A 
ATOM     28  C   UNL     1      12.836   6.373   2.818  0.00  0.00    +0.006 A 
ATOM     29  C   UNL     1      11.470   4.389   2.631  0.00  0.00    +0.006 A 
ATOM     32  C   UNL     1      13.860   5.734   2.119  0.00  0.00    +0.015 A 
ATOM     33  C   UNL     1      12.495   3.750   1.932  0.00  0.00    +0.015 A 
ATOM     34  C   UNL     1      13.690   4.423   1.676  0.00  0.00    +0.059 A 
BRANCH  34  35
ATOM      4  O   UNL     1      14.878   3.727  -0.281  0.00  0.00    -0.245 OA
ATOM     35  C   UNL     1      14.758   3.755   0.949  0.00  0.00    +0.337 C 
BRANCH  35   3
ATOM      3  O   UNL     1      15.646   3.142   1.776  0.00  0.00    -0.477 OA
ATOM     38  H   UNL     1      16.509   3.607   1.797  0.00  0.00    +0.295 HD
ENDBRANCH  35   3
ENDBRANCH  34  35
ENDBRANCH  16  22
ENDBRANCH   5  16
ENDBRANCH  21  11
TORSDOF 7
ENDMDL
MODEL 5
REMARK VINA RESULT:      -7.7     27.925     30.317
REMARK  Name = 45783310
REMARK  7 active torsions:
REMARK  status: ('A' for Active; 'I' for Inactive)
REMARK    1  A    between atoms: O_3  and  C_35
REMARK    2  A    between atoms: N_5  and  C_16
REMARK    3  A    between atoms: C_11  and  C_21
REMARK    4  A    between atoms: C_15  and  C_24
REMARK    5  A    between atoms: C_16  and  C_22
REMARK    6  A    between atoms: C_25  and  C_27
REMARK    7  A    between atoms: C_34  and  C_35
REMARK                            x       y       z     vdW  Elec       q    Type
REMARK                         _______ _______ _______ _____ _____    ______ ____
ROOT
ATOM      1  O   UNL     1      -5.830  -8.125   9.015  0.00  0.00    -0.336 OA
ATOM      7  N   UNL     1      -5.453 -10.268   9.544  0.00  0.00    -0.190 NA
ATOM      8  N   UNL     1      -4.960  -8.107  10.112  0.00  0.00    -0.056 NA
ATOM     21  C   UNL     1      -6.071  -9.436   8.745  0.00  0.00    +0.245 A 
ATOM     25  C   UNL     1      -4.785  -9.407  10.366  0.00  0.00    +0.202 A 
ENDROOT
BRANCH  25  27
ATOM      6  N   UNL     1      -4.234 -10.954  14.906  0.00  0.00    -0.315 N 
ATOM      9  N   UNL     1      -2.325 -10.803  13.513  0.00  0.00    -0.240 NA
ATOM     15  C   UNL     1      -5.368 -11.576  17.505  0.00  0.00    +0.078 C 
ATOM     17  C   UNL     1      -6.155 -11.778  16.212  0.00  0.00    +0.031 C 
ATOM     18  C   UNL     1      -4.273 -10.525  17.330  0.00  0.00    +0.031 C 
ATOM     19  C   UNL     1      -5.267 -11.990  14.985  0.00  0.00    +0.107 C 
ATOM     20  C   UNL     1      -3.400 -10.776  16.101  0.00  0.00    +0.107 C 
ATOM     23  C   UNL     1      -3.659 -10.645  13.668  0.00  0.00    +0.122 A 
ATOM     26  C   UNL     1      -4.506 -10.192  12.670  0.00  0.00    +0.055 A 
ATOM     27  C   UNL     1      -3.950  -9.879  11.435  0.00  0.00    +0.027 A 
ATOM     30  C   UNL     1      -2.581 -10.028  11.237  0.00  0.00    +0.031 A 
ATOM     31  C   UNL     1      -1.820 -10.490  12.298  0.00  0.00    +0.113 A 
BRANCH  15  24
ATOM      2  O   UNL     1      -5.151 -13.957  17.567  0.00  0.00    -0.276 OA
ATOM     10  N   UNL     1      -3.836 -12.706  18.982  0.00  0.00    -0.329 N 
ATOM     24  C   UNL     1      -4.785 -12.867  18.000  0.00  0.00    +0.214 C 
ATOM     36  H   UNL     1      -3.373 -13.511  19.390  0.00  0.00    +0.145 HD
ATOM     37  H   UNL     1      -3.591 -11.802  19.372  0.00  0.00    +0.145 HD
ENDBRANCH  15  24
ENDBRANCH  25  27
BRANCH  21  11
ATOM      5  N   UNL     1      -8.002  -8.668   7.377  0.00  0.00    -0.287 NA
ATOM     11  C   UNL     1      -6.995  -9.728   7.583  0.00  0.00    +0.146 C 
ATOM     12  C   UNL     1      -6.248  -9.823   6.240  0.00  0.00    +0.030 C 
ATOM     13  C   UNL     1      -6.945  -8.824   5.326  0.00  0.00    +0.017 C 
ATOM     14  C   UNL     1      -8.318  -8.668   5.949  0.00  0.00    +0.085 C 
BRANCH   5  16
ATOM     16  C   UNL     1      -9.192  -8.840   8.201  0.00  0.00    +0.120 C 
BRANCH  16  22
ATOM     22  C   UNL     1      -9.819  -7.520   8.565  0.00  0.00    -0.033 A 
ATOM     28  C   UNL     1     -11.075  -7.487   9.168  0.00  0.00    +0.006 A 
ATOM     29  C   UNL     1      -9.141  -6.330   8.299  0.00  0.00    +0.006 A 
ATOM     32  C   UNL     1     -11.655  -6.265   9.506  0.00  0.00    +0.015 A 
ATOM     33  C   UNL     1      -9.722  -5.107   8.637  0.00  0.00    +0.015 A 
ATOM     34  C   UNL     1     -10.978  -5.074   9.240  0.00  0.00    +0.059 A 
BRANCH  34  35
ATOM      4  O   UNL     1     -11.690  -3.351  10.740  0.00  0.00    -0.245 OA
ATOM     35  C   UNL     1     -11.582  -3.799   9.593  0.00  0.00    +0.337 C 
BRANCH  35   3
ATOM      3  O   UNL     1     -12.034  -3.118   8.506  0.00  0.00    -0.477 OA
ATOM     38  H   UNL     1     -12.916  -2.720   8.664  0.00  0.00    +0.295 HD
ENDBRANCH  35   3
ENDBRANCH  34  35
ENDBRANCH  16  22
ENDBRANCH   5  16
ENDBRANCH  21  11
TORSDOF 7
ENDMDL
MODEL 6
REMARK VINA RESULT:      -7.5     27.131     30.336
REMARK  Name = 45783310
REMARK  7 active torsions:
REMARK  status: ('A' for Active; 'I' for Inactive)
REMARK    1  A    between atoms: O_3  and  C_35
REMARK    2  A    between atoms: N_5  and  C_16
REMARK    3  A    between atoms: C_11  and  C_21
REMARK    4  A    between atoms: C_15  and  C_24
REMARK    5  A    between atoms: C_16  and  C_22
REMARK    6  A    between atoms: C_25  and  C_27
REMARK    7  A    between atoms: C_34  and  C_35
REMARK                            x       y       z     vdW  Elec       q    Type
REMARK                         _______ _______ _______ _____ _____    ______ ____
ROOT
ATOM      1  O   UNL     1      -5.463 -12.076  18.953  0.00  0.00    -0.336 OA
ATOM      7  N   UNL     1      -5.982 -12.102  16.775  0.00  0.00    -0.190 NA
ATOM      8  N   UNL     1      -4.340 -11.580  18.280  0.00  0.00    -0.056 NA
ATOM     21  C   UNL     1      -6.383 -12.360  17.994  0.00  0.00    +0.245 A 
ATOM     25  C   UNL     1      -4.723 -11.626  17.001  0.00  0.00    +0.202 A 
ENDROOT
BRANCH  25  27
ATOM      6  N   UNL     1      -3.987 -10.768  12.307  0.00  0.00    -0.315 N 
ATOM      9  N   UNL     1      -2.213 -10.384  13.828  0.00  0.00    -0.240 NA
ATOM     15  C   UNL     1      -4.955 -10.767   9.570  0.00  0.00    +0.078 C 
ATOM     17  C   UNL     1      -5.879 -10.486  10.753  0.00  0.00    +0.031 C 
ATOM     18  C   UNL     1      -3.739 -11.586   9.998  0.00  0.00    +0.031 C 
ATOM     19  C   UNL     1      -5.148  -9.938  11.980  0.00  0.00    +0.107 C 
ATOM     20  C   UNL     1      -3.029 -11.002  11.219  0.00  0.00    +0.107 C 
ATOM     23  C   UNL     1      -3.490 -10.776  13.616  0.00  0.00    +0.122 A 
ATOM     26  C   UNL     1      -4.350 -11.191  14.619  0.00  0.00    +0.055 A 
ATOM     27  C   UNL     1      -3.871 -11.206  15.924  0.00  0.00    +0.027 A 
ATOM     30  C   UNL     1      -2.563 -10.810  16.183  0.00  0.00    +0.031 A 
ATOM     31  C   UNL     1      -1.782 -10.411  15.110  0.00  0.00    +0.113 A 
BRANCH  15  24
ATOM      2  O   UNL     1      -3.587  -8.821   9.315  0.00  0.00    -0.276 OA
ATOM     10  N   UNL     1      -5.285  -9.165   7.800  0.00  0.00    -0.329 N 
ATOM     24  C   UNL     1      -4.524  -9.496   8.897  0.00  0.00    +0.214 C 
ATOM     36  H   UNL     1      -5.084  -8.327   7.266  0.00  0.00    +0.145 HD
ATOM     37  H   UNL     1      -6.094  -9.702   7.506  0.00  0.00    +0.145 HD
ENDBRANCH  15  24
ENDBRANCH  25  27
BRANCH  21  11
ATOM      5  N   UNL     1      -8.858 -12.103  18.031  0.00  0.00    -0.287 NA
ATOM     11  C   UNL     1      -7.707 -12.917  18.471  0.00  0.00    +0.146 C 
ATOM     12  C   UNL     1      -7.991 -14.327  17.921  0.00  0.00    +0.030 C 
ATOM     13  C   UNL     1      -9.349 -14.221  17.240  0.00  0.00    +0.017 C 
ATOM     14  C   UNL     1      -9.991 -13.021  17.907  0.00  0.00    +0.085 C 
BRANCH   5  16
ATOM     16  C   UNL     1      -9.150 -10.990  18.925  0.00  0.00    +0.120 C 
BRANCH  16  22
ATOM     22  C   UNL     1      -9.773  -9.831  18.193  0.00  0.00    -0.033 A 
ATOM     28  C   UNL     1     -11.149  -9.618  18.267  0.00  0.00    +0.006 A 
ATOM     29  C   UNL     1      -8.972  -8.969  17.443  0.00  0.00    +0.006 A 
ATOM     32  C   UNL     1     -11.726  -8.544  17.590  0.00  0.00    +0.015 A 
ATOM     33  C   UNL     1      -9.550  -7.895  16.765  0.00  0.00    +0.015 A 
ATOM     34  C   UNL     1     -10.926  -7.683  16.839  0.00  0.00    +0.059 A 
BRANCH  34  35
ATOM      4  O   UNL     1     -12.737  -6.409  15.928  0.00  0.00    -0.245 OA
ATOM     35  C   UNL     1     -11.527  -6.562  16.134  0.00  0.00    +0.337 C 
BRANCH  35   3
ATOM      3  O   UNL     1     -10.602  -5.661  15.703  0.00  0.00    -0.477 OA
ATOM     38  H   UNL     1     -10.969  -5.056  15.025  0.00  0.00    +0.295 HD
ENDBRANCH  35   3
ENDBRANCH  34  35
ENDBRANCH  16  22
ENDBRANCH   5  16
ENDBRANCH  21  11
TORSDOF 7
ENDMDL
MODEL 7
REMARK VINA RESULT:      -7.3     28.535     30.779
REMARK  Name = 45783310
REMARK  7 active torsions:
REMARK  status: ('A' for Active; 'I' for Inactive)
REMARK    1  A    between atoms: O_3  and  C_35
REMARK    2  A    between atoms: N_5  and  C_16
REMARK    3  A    between atoms: C_11  and  C_21
REMARK    4  A    between atoms: C_15  and  C_24
REMARK    5  A    between atoms: C_16  and  C_22
REMARK    6  A    between atoms: C_25  and  C_27
REMARK    7  A    between atoms: C_34  and  C_35
REMARK                            x       y       z     vdW  Elec       q    Type
REMARK                         _______ _______ _______ _____ _____    ______ ____
ROOT
ATOM      1  O   UNL     1      -4.955 -12.065  15.571  0.00  0.00    -0.336 OA
ATOM      7  N   UNL     1      -5.559 -10.126  14.629  0.00  0.00    -0.190 NA
ATOM      8  N   UNL     1      -4.395 -12.066  14.287  0.00  0.00    -0.056 NA
ATOM     21  C   UNL     1      -5.623 -10.888  15.691  0.00  0.00    +0.245 A 
ATOM     25  C   UNL     1      -4.796 -10.890  13.794  0.00  0.00    +0.202 A 
ENDROOT
BRANCH  25  27
ATOM      6  N   UNL     1      -6.088  -9.500   9.355  0.00  0.00    -0.315 N 
ATOM      9  N   UNL     1      -3.784  -9.588   9.897  0.00  0.00    -0.240 NA
ATOM     15  C   UNL     1      -8.157  -8.978   7.386  0.00  0.00    +0.078 C 
ATOM     17  C   UNL     1      -8.382  -8.736   8.877  0.00  0.00    +0.031 C 
ATOM     18  C   UNL     1      -7.059 -10.013   7.152  0.00  0.00    +0.031 C 
ATOM     19  C   UNL     1      -7.090  -8.474   9.654  0.00  0.00    +0.107 C 
ATOM     20  C   UNL     1      -5.781  -9.714   7.935  0.00  0.00    +0.107 C 
ATOM     23  C   UNL     1      -5.070  -9.761  10.280  0.00  0.00    +0.122 A 
ATOM     26  C   UNL     1      -5.452 -10.185  11.542  0.00  0.00    +0.055 A 
ATOM     27  C   UNL     1      -4.453 -10.450  12.471  0.00  0.00    +0.027 A 
ATOM     30  C   UNL     1      -3.119 -10.285  12.115  0.00  0.00    +0.031 A 
ATOM     31  C   UNL     1      -2.840  -9.856  10.828  0.00  0.00    +0.113 A 
BRANCH  15  24
ATOM      2  O   UNL     1      -8.143  -6.600   7.120  0.00  0.00    -0.276 OA
ATOM     10  N   UNL     1      -7.204  -7.888   5.461  0.00  0.00    -0.329 N 
ATOM     24  C   UNL     1      -7.839  -7.700   6.666  0.00  0.00    +0.214 C 
ATOM     36  H   UNL     1      -6.939  -7.094   4.887  0.00  0.00    +0.145 HD
ATOM     37  H   UNL     1      -7.015  -8.805   5.071  0.00  0.00    +0.145 HD
ENDBRANCH  15  24
ENDBRANCH  25  27
BRANCH  21  11
ATOM      5  N   UNL     1      -7.108 -11.807  17.464  0.00  0.00    -0.287 NA
ATOM     11  C   UNL     1      -6.325 -10.641  17.009  0.00  0.00    +0.146 C 
ATOM     12  C   UNL     1      -5.342 -10.356  18.160  0.00  0.00    +0.030 C 
ATOM     13  C   UNL     1      -5.689 -11.373  19.239  0.00  0.00    +0.017 C 
ATOM     14  C   UNL     1      -7.123 -11.751  18.926  0.00  0.00    +0.085 C 
BRANCH   5  16
ATOM     16  C   UNL     1      -8.452 -11.849  16.903  0.00  0.00    +0.120 C 
BRANCH  16  22
ATOM     22  C   UNL     1      -8.999 -10.469  16.650  0.00  0.00    -0.033 A 
ATOM     28  C   UNL     1      -9.329  -9.642  17.723  0.00  0.00    +0.006 A 
ATOM     29  C   UNL     1      -9.173 -10.018  15.341  0.00  0.00    +0.006 A 
ATOM     32  C   UNL     1      -9.834  -8.363  17.488  0.00  0.00    +0.015 A 
ATOM     33  C   UNL     1      -9.680  -8.739  15.107  0.00  0.00    +0.015 A 
ATOM     34  C   UNL     1     -10.010  -7.912  16.180  0.00  0.00    +0.059 A 
BRANCH  34  35
ATOM      4  O   UNL     1     -11.684  -6.202  16.197  0.00  0.00    -0.245 OA
ATOM     35  C   UNL     1     -10.536  -6.579  15.934  0.00  0.00    +0.337 C 
BRANCH  35   3
ATOM      3  O   UNL     1      -9.616  -5.752  15.368  0.00  0.00    -0.477 OA
ATOM     38  H   UNL     1      -9.508  -5.927  14.409  0.00  0.00    +0.295 HD
ENDBRANCH  35   3
ENDBRANCH  34  35
ENDBRANCH  16  22
ENDBRANCH   5  16
ENDBRANCH  21  11
TORSDOF 7
ENDMDL
MODEL 8
REMARK VINA RESULT:      -7.2     16.612     21.078
REMARK  Name = 45783310
REMARK  7 active torsions:
REMARK  status: ('A' for Active; 'I' for Inactive)
REMARK    1  A    between atoms: O_3  and  C_35
REMARK    2  A    between atoms: N_5  and  C_16
REMARK    3  A    between atoms: C_11  and  C_21
REMARK    4  A    between atoms: C_15  and  C_24
REMARK    5  A    between atoms: C_16  and  C_22
REMARK    6  A    between atoms: C_25  and  C_27
REMARK    7  A    between atoms: C_34  and  C_35
REMARK                            x       y       z     vdW  Elec       q    Type
REMARK                         _______ _______ _______ _____ _____    ______ ____
ROOT
ATOM      1  O   UNL     1      10.992   6.980   3.838  0.00  0.00    -0.336 OA
ATOM      7  N   UNL     1      10.956   4.752   3.619  0.00  0.00    -0.190 NA
ATOM      8  N   UNL     1      11.533   6.705   2.576  0.00  0.00    -0.056 NA
ATOM     21  C   UNL     1      10.679   5.777   4.386  0.00  0.00    +0.245 A 
ATOM     25  C   UNL     1      11.479   5.371   2.521  0.00  0.00    +0.202 A 
ENDROOT
BRANCH  25  27
ATOM      6  N   UNL     1      10.810   3.674  -1.949  0.00  0.00    -0.315 N 
ATOM      9  N   UNL     1      12.839   3.178  -0.833  0.00  0.00    -0.240 NA
ATOM     15  C   UNL     1       9.138   3.387  -4.306  0.00  0.00    +0.078 C 
ATOM     17  C   UNL     1       9.098   4.641  -3.435  0.00  0.00    +0.031 C 
ATOM     18  C   UNL     1       9.637   2.179  -3.515  0.00  0.00    +0.031 C 
ATOM     19  C   UNL     1      10.393   4.886  -2.659  0.00  0.00    +0.107 C 
ATOM     20  C   UNL     1      10.937   2.457  -2.761  0.00  0.00    +0.107 C 
ATOM     23  C   UNL     1      11.629   3.782  -0.819  0.00  0.00    +0.122 A 
ATOM     26  C   UNL     1      11.138   4.510   0.253  0.00  0.00    +0.055 A 
ATOM     27  C   UNL     1      11.939   4.626   1.383  0.00  0.00    +0.027 A 
ATOM     30  C   UNL     1      13.190   4.018   1.407  0.00  0.00    +0.031 A 
ATOM     31  C   UNL     1      13.590   3.312   0.284  0.00  0.00    +0.113 A 
BRANCH  15  24
ATOM      2  O   UNL     1      10.512   4.674  -5.781  0.00  0.00    -0.276 OA
ATOM     10  N   UNL     1      10.064   2.487  -6.340  0.00  0.00    -0.329 N 
ATOM     24  C   UNL     1       9.977   3.596  -5.532  0.00  0.00    +0.214 C 
ATOM     36  H   UNL     1      10.608   2.513  -7.197  0.00  0.00    +0.145 HD
ATOM     37  H   UNL     1       9.565   1.625  -6.151  0.00  0.00    +0.145 HD
ENDBRANCH  15  24
ENDBRANCH  25  27
BRANCH  21  11
ATOM      5  N   UNL     1      10.587   6.907   6.601  0.00  0.00    -0.287 NA
ATOM     11  C   UNL     1      10.067   5.803   5.769  0.00  0.00    +0.146 C 
ATOM     12  C   UNL     1       8.543   6.020   5.741  0.00  0.00    +0.030 C 
ATOM     13  C   UNL     1       8.297   7.231   6.631  0.00  0.00    +0.017 C 
ATOM     14  C   UNL     1       9.516   7.266   7.531  0.00  0.00    +0.085 C 
BRANCH   5  16
ATOM     16  C   UNL     1      11.824   6.570   7.293  0.00  0.00    +0.120 C 
BRANCH  16  22
ATOM     22  C   UNL     1      12.943   7.512   6.935  0.00  0.00    -0.033 A 
ATOM     28  C   UNL     1      14.204   7.008   6.618  0.00  0.00    +0.006 A 
ATOM     29  C   UNL     1      12.718   8.888   6.920  0.00  0.00    +0.006 A 
ATOM     32  C   UNL     1      15.241   7.880   6.285  0.00  0.00    +0.015 A 
ATOM     33  C   UNL     1      13.755   9.761   6.588  0.00  0.00    +0.015 A 
ATOM     34  C   UNL     1      15.016   9.256   6.271  0.00  0.00    +0.059 A 
BRANCH  34  35
ATOM      4  O   UNL     1      16.698  10.184   4.844  0.00  0.00    -0.245 OA
ATOM     35  C   UNL     1      16.095  10.167   5.923  0.00  0.00    +0.337 C 
BRANCH  35   3
ATOM      3  O   UNL     1      16.393  11.030   6.931  0.00  0.00    -0.477 OA
ATOM     38  H   UNL     1      15.682  11.065   7.606  0.00  0.00    +0.295 HD
ENDBRANCH  35   3
ENDBRANCH  34  35
ENDBRANCH  16  22
ENDBRANCH   5  16
ENDBRANCH  21  11
TORSDOF 7
ENDMDL
MODEL 9
REMARK VINA RESULT:      -7.0     27.672     30.700
REMARK  Name = 45783310
REMARK  7 active torsions:
REMARK  status: ('A' for Active; 'I' for Inactive)
REMARK    1  A    between atoms: O_3  and  C_35
REMARK    2  A    between atoms: N_5  and  C_16
REMARK    3  A    between atoms: C_11  and  C_21
REMARK    4  A    between atoms: C_15  and  C_24
REMARK    5  A    between atoms: C_16  and  C_22
REMARK    6  A    between atoms: C_25  and  C_27
REMARK    7  A    between atoms: C_34  and  C_35
REMARK                            x       y       z     vdW  Elec       q    Type
REMARK                         _______ _______ _______ _____ _____    ______ ____
ROOT
ATOM      1  O   UNL     1      -8.311 -13.625  17.689  0.00  0.00    -0.336 OA
ATOM      7  N   UNL     1      -7.003 -12.107  18.688  0.00  0.00    -0.190 NA
ATOM      8  N   UNL     1      -7.286 -13.337  16.779  0.00  0.00    -0.056 NA
ATOM     21  C   UNL     1      -8.070 -12.859  18.785  0.00  0.00    +0.245 A 
ATOM     25  C   UNL     1      -6.556 -12.434  17.440  0.00  0.00    +0.202 A 
ENDROOT
BRANCH  25  27
ATOM      6  N   UNL     1      -3.928 -11.076  13.624  0.00  0.00    -0.315 N 
ATOM      9  N   UNL     1      -3.077 -10.672  15.797  0.00  0.00    -0.240 NA
ATOM     15  C   UNL     1      -3.573 -10.909  10.748  0.00  0.00    +0.078 C 
ATOM     17  C   UNL     1      -4.953 -10.827  11.397  0.00  0.00    +0.031 C 
ATOM     18  C   UNL     1      -2.582 -11.647  11.644  0.00  0.00    +0.031 C 
ATOM     19  C   UNL     1      -4.918 -10.330  12.843  0.00  0.00    +0.107 C 
ATOM     20  C   UNL     1      -2.566 -11.117  13.078  0.00  0.00    +0.107 C 
ATOM     23  C   UNL     1      -4.067 -11.160  15.015  0.00  0.00    +0.122 A 
ATOM     26  C   UNL     1      -5.224 -11.746  15.503  0.00  0.00    +0.055 A 
ATOM     27  C   UNL     1      -5.375 -11.838  16.882  0.00  0.00    +0.027 A 
ATOM     30  C   UNL     1      -4.379 -11.348  17.720  0.00  0.00    +0.031 A 
ATOM     31  C   UNL     1      -3.260 -10.779  17.133  0.00  0.00    +0.113 A 
BRANCH  15  24
ATOM      2  O   UNL     1      -1.924  -9.176  10.713  0.00  0.00    -0.276 OA
ATOM     10  N   UNL     1      -3.955  -8.767   9.713  0.00  0.00    -0.329 N 
ATOM     24  C   UNL     1      -3.052  -9.547  10.395  0.00  0.00    +0.214 C 
ATOM     36  H   UNL     1      -3.710  -7.827   9.421  0.00  0.00    +0.145 HD
ATOM     37  H   UNL     1      -4.904  -9.066   9.513  0.00  0.00    +0.145 HD
ENDBRANCH  15  24
ENDBRANCH  25  27
BRANCH  21  11
ATOM      5  N   UNL     1     -10.305 -12.249  19.693  0.00  0.00    -0.287 NA
ATOM     11  C   UNL     1      -9.051 -12.991  19.930  0.00  0.00    +0.146 C 
ATOM     12  C   UNL     1      -9.496 -14.446  20.166  0.00  0.00    +0.030 C 
ATOM     13  C   UNL     1     -11.017 -14.411  20.103  0.00  0.00    +0.017 C 
ATOM     14  C   UNL     1     -11.355 -12.967  20.416  0.00  0.00    +0.085 C 
BRANCH   5  16
ATOM     16  C   UNL     1     -10.228 -10.849  20.089  0.00  0.00    +0.120 C 
BRANCH  16  22
ATOM     22  C   UNL     1     -10.368  -9.923  18.909  0.00  0.00    -0.033 A 
ATOM     28  C   UNL     1     -11.635  -9.545  18.467  0.00  0.00    +0.006 A 
ATOM     29  C   UNL     1      -9.230  -9.443  18.260  0.00  0.00    +0.006 A 
ATOM     32  C   UNL     1     -11.765  -8.687  17.375  0.00  0.00    +0.015 A 
ATOM     33  C   UNL     1      -9.360  -8.586  17.168  0.00  0.00    +0.015 A 
ATOM     34  C   UNL     1     -10.628  -8.208  16.725  0.00  0.00    +0.059 A 
BRANCH  34  35
ATOM      4  O   UNL     1     -11.618  -7.404  14.700  0.00  0.00    -0.245 OA
ATOM     35  C   UNL     1     -10.762  -7.312  15.587  0.00  0.00    +0.337 C 
BRANCH  35   3
ATOM      3  O   UNL     1      -9.826  -6.325  15.587  0.00  0.00    -0.477 OA
ATOM     38  H   UNL     1      -8.927  -6.673  15.772  0.00  0.00    +0.295 HD
ENDBRANCH  35   3
ENDBRANCH  34  35
ENDBRANCH  16  22
ENDBRANCH   5  16
ENDBRANCH  21  11
TORSDOF 7
ENDMDL
MODEL 10
REMARK VINA RESULT:      -7.0     26.935     31.078
REMARK  Name = 45783310
REMARK  7 active torsions:
REMARK  status: ('A' for Active; 'I' for Inactive)
REMARK    1  A    between atoms: O_3  and  C_35
REMARK    2  A    between atoms: N_5  and  C_16
REMARK    3  A    between atoms: C_11  and  C_21
REMARK    4  A    between atoms: C_15  and  C_24
REMARK    5  A    between atoms: C_16  and  C_22
REMARK    6  A    between atoms: C_25  and  C_27
REMARK    7  A    between atoms: C_34  and  C_35
REMARK                            x       y       z     vdW  Elec       q    Type
REMARK                         _______ _______ _______ _____ _____    ______ ____
ROOT
ATOM      1  O   UNL     1      -4.247 -13.075  15.938  0.00  0.00    -0.336 OA
ATOM      7  N   UNL     1      -4.766 -10.916  16.225  0.00  0.00    -0.190 NA
ATOM      8  N   UNL     1      -5.492 -13.056  16.579  0.00  0.00    -0.056 NA
ATOM     21  C   UNL     1      -3.891 -11.775  15.767  0.00  0.00    +0.245 A 
ATOM     25  C   UNL     1      -5.730 -11.749  16.714  0.00  0.00    +0.202 A 
ENDROOT
BRANCH  25  27
ATOM      6  N   UNL     1      -9.780  -9.126  16.531  0.00  0.00    -0.315 N 
ATOM      9  N   UNL     1      -9.242 -10.255  18.542  0.00  0.00    -0.240 NA
ATOM     15  C   UNL     1     -11.577  -7.375  15.071  0.00  0.00    +0.078 C 
ATOM     17  C   UNL     1     -10.777  -8.473  14.374  0.00  0.00    +0.031 C 
ATOM     18  C   UNL     1     -10.907  -6.943  16.374  0.00  0.00    +0.031 C 
ATOM     19  C   UNL     1     -10.394  -9.629  15.300  0.00  0.00    +0.107 C 
ATOM     20  C   UNL     1     -10.549  -8.122  17.278  0.00  0.00    +0.107 C 
ATOM     23  C   UNL     1      -8.921  -9.955  17.264  0.00  0.00    +0.122 A 
ATOM     26  C   UNL     1      -7.785 -10.417  16.620  0.00  0.00    +0.055 A 
ATOM     27  C   UNL     1      -6.921 -11.240  17.335  0.00  0.00    +0.027 A 
ATOM     30  C   UNL     1      -7.217 -11.571  18.653  0.00  0.00    +0.031 A 
ATOM     31  C   UNL     1      -8.379 -11.058  19.205  0.00  0.00    +0.113 A 
BRANCH  15  24
ATOM      2  O   UNL     1     -13.645  -7.376  16.272  0.00  0.00    -0.276 OA
ATOM     10  N   UNL     1     -13.466  -8.717  14.411  0.00  0.00    -0.329 N 
ATOM     24  C   UNL     1     -12.993  -7.802  15.323  0.00  0.00    +0.214 C 
ATOM     36  H   UNL     1     -14.412  -9.076  14.482  0.00  0.00    +0.145 HD
ATOM     37  H   UNL     1     -12.893  -9.105  13.669  0.00  0.00    +0.145 HD
ENDBRANCH  15  24
ENDBRANCH  25  27
BRANCH  21  11
ATOM      5  N   UNL     1      -2.686 -10.618  13.923  0.00  0.00    -0.287 NA
ATOM     11  C   UNL     1      -2.565 -11.523  15.083  0.00  0.00    +0.146 C 
ATOM     12  C   UNL     1      -1.542 -10.837  16.008  0.00  0.00    +0.030 C 
ATOM     13  C   UNL     1      -1.101  -9.588  15.255  0.00  0.00    +0.017 C 
ATOM     14  C   UNL     1      -1.407  -9.917  13.808  0.00  0.00    +0.085 C 
BRANCH   5  16
ATOM     16  C   UNL     1      -3.043 -11.310  12.691  0.00  0.00    +0.120 C 
BRANCH  16  22
ATOM     22  C   UNL     1      -4.029 -10.522  11.869  0.00  0.00    -0.033 A 
ATOM     28  C   UNL     1      -3.634  -9.962  10.655  0.00  0.00    +0.006 A 
ATOM     29  C   UNL     1      -5.337 -10.353  12.323  0.00  0.00    +0.006 A 
ATOM     32  C   UNL     1      -4.548  -9.232   9.894  0.00  0.00    +0.015 A 
ATOM     33  C   UNL     1      -6.250  -9.623  11.562  0.00  0.00    +0.015 A 
ATOM     34  C   UNL     1      -5.856  -9.063  10.348  0.00  0.00    +0.059 A 
BRANCH  34  35
ATOM      4  O   UNL     1      -8.031  -8.484   9.536  0.00  0.00    -0.245 OA
ATOM     35  C   UNL     1      -6.809  -8.303   9.554  0.00  0.00    +0.337 C 
BRANCH  35   3
ATOM      3  O   UNL     1      -6.210  -7.338   8.805  0.00  0.00    -0.477 OA
ATOM     38  H   UNL     1      -5.806  -7.706   7.990  0.00  0.00    +0.295 HD
ENDBRANCH  35   3
ENDBRANCH  34  35
ENDBRANCH  16  22
ENDBRANCH   5  16
ENDBRANCH  21  11
TORSDOF 7
ENDMDL
