MODEL 1
REMARK VINA RESULT:      -6.8      0.000      0.000
REMARK  Name = 7144049
REMARK  3 active torsions:
REMARK  status: ('A' for Active; 'I' for Inactive)
REMARK    1  A    between atoms: N_3  and  C_14
REMARK    2  A    between atoms: C_14  and  C_19
REMARK    3  A    between atoms: C_17  and  C_20
REMARK                            x       y       z     vdW  Elec       q    Type
REMARK                         _______ _______ _______ _____ _____    ______ ____
ROOT
ATOM      2  O   UNL     1      13.900  10.965  22.795  0.00  0.00    -0.267 OA
ATOM      3  N   UNL     1      13.789   8.477  18.442  0.00  0.00    -0.297 NA
ATOM      4  N   UNL     1      13.385   9.060  21.552  0.00  0.00    -0.311 N 
ATOM      7  C   UNL     1      15.172   7.656  20.366  0.00  0.00    +0.024 C 
ATOM      8  C   UNL     1      12.817   7.006  20.213  0.00  0.00    +0.050 C 
ATOM      9  C   UNL     1      14.205   6.502  20.595  0.00  0.00    +0.017 C 
ATOM     10  C   UNL     1      15.134   8.093  18.886  0.00  0.00    +0.090 C 
ATOM     11  C   UNL     1      12.808   7.418  18.723  0.00  0.00    +0.094 C 
ATOM     12  C   UNL     1      14.814   8.798  21.326  0.00  0.00    +0.130 C 
ATOM     13  C   UNL     1      12.408   8.175  21.088  0.00  0.00    +0.026 A 
ATOM     15  C   UNL     1      11.118   8.373  21.402  0.00  0.00    +0.022 A 
ATOM     16  C   UNL     1      13.063  10.181  22.342  0.00  0.00    +0.259 A 
ATOM     17  C   UNL     1      11.606  10.397  22.647  0.00  0.00    +0.050 A 
ATOM     18  C   UNL     1      10.714   9.505  22.188  0.00  0.00    +0.015 A 
ENDROOT
BRANCH  17  20
ATOM      5  N   UNL     1      10.439  13.854  23.510  0.00  0.00    -0.243 NA
ATOM      6  N   UNL     1      10.582  12.558  25.537  0.00  0.00    -0.243 NA
ATOM     20  C   UNL     1      11.152  11.562  23.425  0.00  0.00    +0.024 A 
ATOM     24  C   UNL     1      10.857  12.768  22.829  0.00  0.00    +0.122 A 
ATOM     25  C   UNL     1      10.997  11.511  24.793  0.00  0.00    +0.122 A 
ATOM     26  C   UNL     1      10.325  13.682  24.841  0.00  0.00    +0.221 A 
ENDBRANCH  17  20
BRANCH   3  14
ATOM     14  C   UNL     1      13.786   8.832  17.026  0.00  0.00    +0.126 C 
BRANCH  14  19
ATOM      1  S   UNL     1      13.737  11.367  18.117  0.00  0.00    -0.100 S 
ATOM     19  C   UNL     1      14.061  10.299  16.835  0.00  0.00    +0.004 A 
ATOM     21  C   UNL     1      14.556  10.915  15.725  0.00  0.00    +0.012 A 
ATOM     22  C   UNL     1      14.677  12.320  15.925  0.00  0.00    +0.008 A 
ATOM     23  C   UNL     1      14.266  12.700  17.184  0.00  0.00    +0.045 A 
ENDBRANCH  14  19
ENDBRANCH   3  14
TORSDOF 3
ENDMDL
MODEL 2
REMARK VINA RESULT:      -6.8      3.137      6.793
REMARK  Name = 7144049
REMARK  3 active torsions:
REMARK  status: ('A' for Active; 'I' for Inactive)
REMARK    1  A    between atoms: N_3  and  C_14
REMARK    2  A    between atoms: C_14  and  C_19
REMARK    3  A    between atoms: C_17  and  C_20
REMARK                            x       y       z     vdW  Elec       q    Type
REMARK                         _______ _______ _______ _____ _____    ______ ____
ROOT
ATOM      2  O   UNL     1      14.007  12.063  17.948  0.00  0.00    -0.267 OA
ATOM      3  N   UNL     1      13.958   8.221  21.170  0.00  0.00    -0.297 NA
ATOM      4  N   UNL     1      12.934  10.234  18.919  0.00  0.00    -0.311 N 
ATOM      7  C   UNL     1      12.355  10.133  21.414  0.00  0.00    +0.024 C 
ATOM      8  C   UNL     1      11.775   8.254  19.955  0.00  0.00    +0.050 C 
ATOM      9  C   UNL     1      11.201   9.250  20.959  0.00  0.00    +0.017 C 
ATOM     10  C   UNL     1      13.457   9.270  22.065  0.00  0.00    +0.090 C 
ATOM     11  C   UNL     1      12.861   7.395  20.642  0.00  0.00    +0.094 C 
ATOM     12  C   UNL     1      12.869  10.934  20.210  0.00  0.00    +0.130 C 
ATOM     13  C   UNL     1      12.352   8.975  18.751  0.00  0.00    +0.026 A 
ATOM     15  C   UNL     1      12.324   8.403  17.537  0.00  0.00    +0.022 A 
ATOM     16  C   UNL     1      13.514  10.938  17.845  0.00  0.00    +0.259 A 
ATOM     17  C   UNL     1      13.499  10.257  16.504  0.00  0.00    +0.050 A 
ATOM     18  C   UNL     1      12.912   9.054  16.401  0.00  0.00    +0.015 A 
ENDROOT
BRANCH  17  20
ATOM      5  N   UNL     1      13.905  12.112  13.270  0.00  0.00    -0.243 NA
ATOM      6  N   UNL     1      16.079  11.414  14.040  0.00  0.00    -0.243 NA
ATOM     20  C   UNL     1      14.118  10.881  15.322  0.00  0.00    +0.024 A 
ATOM     24  C   UNL     1      13.372  11.529  14.363  0.00  0.00    +0.122 A 
ATOM     25  C   UNL     1      15.479  10.851  15.110  0.00  0.00    +0.122 A 
ATOM     26  C   UNL     1      15.245  12.017  13.173  0.00  0.00    +0.221 A 
ENDBRANCH  17  20
BRANCH   3  14
ATOM     14  C   UNL     1      14.959   7.395  21.840  0.00  0.00    +0.126 C 
BRANCH  14  19
ATOM      1  S   UNL     1      17.627   6.952  21.288  0.00  0.00    -0.100 S 
ATOM     19  C   UNL     1      15.983   6.885  20.862  0.00  0.00    +0.004 A 
ATOM     21  C   UNL     1      15.761   6.354  19.627  0.00  0.00    +0.012 A 
ATOM     22  C   UNL     1      16.984   5.985  18.997  0.00  0.00    +0.008 A 
ATOM     23  C   UNL     1      18.077   6.256  19.791  0.00  0.00    +0.045 A 
ENDBRANCH  14  19
ENDBRANCH   3  14
TORSDOF 3
ENDMDL
MODEL 3
REMARK VINA RESULT:      -6.5      2.664      6.676
REMARK  Name = 7144049
REMARK  3 active torsions:
REMARK  status: ('A' for Active; 'I' for Inactive)
REMARK    1  A    between atoms: N_3  and  C_14
REMARK    2  A    between atoms: C_14  and  C_19
REMARK    3  A    between atoms: C_17  and  C_20
REMARK                            x       y       z     vdW  Elec       q    Type
REMARK                         _______ _______ _______ _____ _____    ______ ____
ROOT
ATOM      2  O   UNL     1      12.751   8.726  16.454  0.00  0.00    -0.267 OA
ATOM      3  N   UNL     1      11.743   8.794  21.366  0.00  0.00    -0.297 NA
ATOM      4  N   UNL     1      13.419   8.463  18.672  0.00  0.00    -0.311 N 
ATOM      7  C   UNL     1      12.425   6.673  20.215  0.00  0.00    +0.024 C 
ATOM      8  C   UNL     1      14.148   8.189  21.066  0.00  0.00    +0.050 C 
ATOM      9  C   UNL     1      13.786   6.717  20.897  0.00  0.00    +0.017 C 
ATOM     10  C   UNL     1      11.375   7.401  21.080  0.00  0.00    +0.090 C 
ATOM     11  C   UNL     1      13.089   8.885  21.951  0.00  0.00    +0.094 C 
ATOM     12  C   UNL     1      12.556   7.281  18.812  0.00  0.00    +0.130 C 
ATOM     13  C   UNL     1      14.248   8.878  19.718  0.00  0.00    +0.026 A 
ATOM     15  C   UNL     1      15.110   9.890  19.532  0.00  0.00    +0.022 A 
ATOM     16  C   UNL     1      13.443   9.084  17.408  0.00  0.00    +0.259 A 
ATOM     17  C   UNL     1      14.394  10.238  17.241  0.00  0.00    +0.050 A 
ATOM     18  C   UNL     1      15.177  10.581  18.276  0.00  0.00    +0.015 A 
ENDROOT
BRANCH  17  20
ATOM      5  N   UNL     1      15.102  11.105  13.661  0.00  0.00    -0.243 NA
ATOM      6  N   UNL     1      14.046  12.995  14.721  0.00  0.00    -0.243 NA
ATOM     20  C   UNL     1      14.469  10.990  15.976  0.00  0.00    +0.024 A 
ATOM     24  C   UNL     1      15.018  10.447  14.835  0.00  0.00    +0.122 A 
ATOM     25  C   UNL     1      13.994  12.278  15.863  0.00  0.00    +0.122 A 
ATOM     26  C   UNL     1      14.604  12.357  13.675  0.00  0.00    +0.221 A 
ENDBRANCH  17  20
BRANCH   3  14
ATOM     14  C   UNL     1      10.752   9.431  22.229  0.00  0.00    +0.126 C 
BRANCH  14  19
ATOM      1  S   UNL     1      11.140  11.419  24.104  0.00  0.00    -0.100 S 
ATOM     19  C   UNL     1      11.111  10.867  22.496  0.00  0.00    +0.004 A 
ATOM     21  C   UNL     1      11.428  11.829  21.584  0.00  0.00    +0.012 A 
ATOM     22  C   UNL     1      11.708  13.072  22.222  0.00  0.00    +0.008 A 
ATOM     23  C   UNL     1      11.588  12.989  23.592  0.00  0.00    +0.045 A 
ENDBRANCH  14  19
ENDBRANCH   3  14
TORSDOF 3
ENDMDL
MODEL 4
REMARK VINA RESULT:      -6.4     24.886     26.631
REMARK  Name = 7144049
REMARK  3 active torsions:
REMARK  status: ('A' for Active; 'I' for Inactive)
REMARK    1  A    between atoms: N_3  and  C_14
REMARK    2  A    between atoms: C_14  and  C_19
REMARK    3  A    between atoms: C_17  and  C_20
REMARK                            x       y       z     vdW  Elec       q    Type
REMARK                         _______ _______ _______ _____ _____    ______ ____
ROOT
ATOM      2  O   UNL     1     -14.995   8.862  20.526  0.00  0.00    -0.267 OA
ATOM      3  N   UNL     1     -11.689   9.230  16.773  0.00  0.00    -0.297 NA
ATOM      4  N   UNL     1     -12.803   9.070  19.758  0.00  0.00    -0.311 N 
ATOM      7  C   UNL     1     -11.992  11.098  18.417  0.00  0.00    +0.024 C 
ATOM      8  C   UNL     1     -10.434   9.282  18.933  0.00  0.00    +0.050 C 
ATOM      9  C   UNL     1     -10.641  10.789  19.048  0.00  0.00    +0.017 C 
ATOM     10  C   UNL     1     -12.000  10.655  16.939  0.00  0.00    +0.090 C 
ATOM     11  C   UNL     1     -10.429   8.873  17.442  0.00  0.00    +0.094 C 
ATOM     12  C   UNL     1     -13.091  10.416  19.243  0.00  0.00    +0.130 C 
ATOM     13  C   UNL     1     -11.516   8.530  19.685  0.00  0.00    +0.026 A 
ATOM     15  C   UNL     1     -11.248   7.347  20.261  0.00  0.00    +0.022 A 
ATOM     16  C   UNL     1     -13.856   8.403  20.414  0.00  0.00    +0.259 A 
ATOM     17  C   UNL     1     -13.535   7.064  21.020  0.00  0.00    +0.050 A 
ATOM     18  C   UNL     1     -12.277   6.604  20.932  0.00  0.00    +0.015 A 
ENDROOT
BRANCH  17  20
ATOM      5  N   UNL     1     -16.453   4.772  21.563  0.00  0.00    -0.243 NA
ATOM      6  N   UNL     1     -15.613   5.477  23.709  0.00  0.00    -0.243 NA
ATOM     20  C   UNL     1     -14.571   6.260  21.690  0.00  0.00    +0.024 A 
ATOM     24  C   UNL     1     -15.492   5.519  20.983  0.00  0.00    +0.122 A 
ATOM     25  C   UNL     1     -14.677   6.203  23.063  0.00  0.00    +0.122 A 
ATOM     26  C   UNL     1     -16.456   4.796  22.910  0.00  0.00    +0.221 A 
ENDBRANCH  17  20
BRANCH   3  14
ATOM     14  C   UNL     1     -11.655   8.862  15.360  0.00  0.00    +0.126 C 
BRANCH  14  19
ATOM      1  S   UNL     1     -13.033   7.487  13.403  0.00  0.00    -0.100 S 
ATOM     19  C   UNL     1     -12.945   8.214  14.938  0.00  0.00    +0.004 A 
ATOM     21  C   UNL     1     -14.104   8.127  15.649  0.00  0.00    +0.012 A 
ATOM     22  C   UNL     1     -15.110   7.438  14.912  0.00  0.00    +0.008 A 
ATOM     23  C   UNL     1     -14.661   7.036  13.674  0.00  0.00    +0.045 A 
ENDBRANCH  14  19
ENDBRANCH   3  14
TORSDOF 3
ENDMDL
MODEL 5
REMARK VINA RESULT:      -6.3     26.985     28.996
REMARK  Name = 7144049
REMARK  3 active torsions:
REMARK  status: ('A' for Active; 'I' for Inactive)
REMARK    1  A    between atoms: N_3  and  C_14
REMARK    2  A    between atoms: C_14  and  C_19
REMARK    3  A    between atoms: C_17  and  C_20
REMARK                            x       y       z     vdW  Elec       q    Type
REMARK                         _______ _______ _______ _____ _____    ______ ____
ROOT
ATOM      2  O   UNL     1      -6.133 -11.721  10.969  0.00  0.00    -0.267 OA
ATOM      3  N   UNL     1      -3.182 -11.084  14.973  0.00  0.00    -0.297 NA
ATOM      4  N   UNL     1      -4.018 -11.657  11.949  0.00  0.00    -0.311 N 
ATOM      7  C   UNL     1      -3.294 -13.290  13.788  0.00  0.00    +0.024 C 
ATOM      8  C   UNL     1      -1.732 -11.578  13.000  0.00  0.00    +0.050 C 
ATOM      9  C   UNL     1      -1.897 -13.078  13.219  0.00  0.00    +0.017 C 
ATOM     10  C   UNL     1      -3.447 -12.520  15.116  0.00  0.00    +0.090 C 
ATOM     11  C   UNL     1      -1.873 -10.838  14.350  0.00  0.00    +0.094 C 
ATOM     12  C   UNL     1      -4.325 -12.860  12.735  0.00  0.00    +0.130 C 
ATOM     13  C   UNL     1      -2.754 -11.063  12.004  0.00  0.00    +0.026 A 
ATOM     15  C   UNL     1      -2.459 -10.033  11.195  0.00  0.00    +0.022 A 
ATOM     16  C   UNL     1      -5.019 -11.202  11.069  0.00  0.00    +0.259 A 
ATOM     17  C   UNL     1      -4.670 -10.025  10.199  0.00  0.00    +0.050 A 
ATOM     18  C   UNL     1      -3.435  -9.506  10.284  0.00  0.00    +0.015 A 
ENDROOT
BRANCH  17  20
ATOM      5  N   UNL     1      -7.439  -7.885   8.849  0.00  0.00    -0.243 NA
ATOM      6  N   UNL     1      -6.655  -9.336   7.091  0.00  0.00    -0.243 NA
ATOM     20  C   UNL     1      -5.656  -9.439   9.274  0.00  0.00    +0.024 A 
ATOM     24  C   UNL     1      -6.525  -8.445   9.668  0.00  0.00    +0.122 A 
ATOM     25  C   UNL     1      -5.765  -9.852   7.965  0.00  0.00    +0.122 A 
ATOM     26  C   UNL     1      -7.449  -8.372   7.593  0.00  0.00    +0.221 A 
ENDBRANCH  17  20
BRANCH   3  14
ATOM     14  C   UNL     1      -3.286 -10.401  16.260  0.00  0.00    +0.126 C 
BRANCH  14  19
ATOM      1  S   UNL     1      -5.225 -10.891  18.162  0.00  0.00    -0.100 S 
ATOM     19  C   UNL     1      -4.723 -10.240  16.673  0.00  0.00    +0.004 A 
ATOM     21  C   UNL     1      -5.722  -9.618  15.986  0.00  0.00    +0.012 A 
ATOM     22  C   UNL     1      -6.952  -9.672  16.702  0.00  0.00    +0.008 A 
ATOM     23  C   UNL     1      -6.824 -10.336  17.902  0.00  0.00    +0.045 A 
ENDBRANCH  14  19
ENDBRANCH   3  14
TORSDOF 3
ENDMDL
MODEL 6
REMARK VINA RESULT:      -6.1     13.978     18.282
REMARK  Name = 7144049
REMARK  3 active torsions:
REMARK  status: ('A' for Active; 'I' for Inactive)
REMARK    1  A    between atoms: N_3  and  C_14
REMARK    2  A    between atoms: C_14  and  C_19
REMARK    3  A    between atoms: C_17  and  C_20
REMARK                            x       y       z     vdW  Elec       q    Type
REMARK                         _______ _______ _______ _____ _____    ______ ____
ROOT
ATOM      2  O   UNL     1      13.041   7.375   3.424  0.00  0.00    -0.267 OA
ATOM      3  N   UNL     1       9.393   8.469   6.687  0.00  0.00    -0.297 NA
ATOM      4  N   UNL     1      10.970   8.325   3.918  0.00  0.00    -0.311 N 
ATOM      7  C   UNL     1      10.698  10.283   5.549  0.00  0.00    +0.024 C 
ATOM      8  C   UNL     1       8.728   9.343   4.443  0.00  0.00    +0.050 C 
ATOM      9  C   UNL     1       9.492  10.639   4.690  0.00  0.00    +0.017 C 
ATOM     10  C   UNL     1      10.233   9.658   6.881  0.00  0.00    +0.090 C 
ATOM     11  C   UNL     1       8.261   8.752   5.792  0.00  0.00    +0.094 C 
ATOM     12  C   UNL     1      11.617   9.350   4.749  0.00  0.00    +0.130 C 
ATOM     13  C   UNL     1       9.590   8.342   3.696  0.00  0.00    +0.026 A 
ATOM     15  C   UNL     1       9.034   7.466   2.844  0.00  0.00    +0.022 A 
ATOM     16  C   UNL     1      11.817   7.399   3.278  0.00  0.00    +0.259 A 
ATOM     17  C   UNL     1      11.161   6.408   2.356  0.00  0.00    +0.050 A 
ATOM     18  C   UNL     1       9.834   6.483   2.170  0.00  0.00    +0.015 A 
ENDROOT
BRANCH  17  20
ATOM      5  N   UNL     1      12.789   3.118   1.586  0.00  0.00    -0.243 NA
ATOM      6  N   UNL     1      13.316   4.673  -0.178  0.00  0.00    -0.243 NA
ATOM     20  C   UNL     1      11.946   5.366   1.671  0.00  0.00    +0.024 A 
ATOM     24  C   UNL     1      12.080   4.096   2.186  0.00  0.00    +0.122 A 
ATOM     25  C   UNL     1      12.590   5.604   0.476  0.00  0.00    +0.122 A 
ATOM     26  C   UNL     1      13.373   3.471   0.425  0.00  0.00    +0.221 A 
ENDBRANCH  17  20
BRANCH   3  14
ATOM     14  C   UNL     1       8.931   7.939   7.967  0.00  0.00    +0.126 C 
BRANCH  14  19
ATOM      1  S   UNL     1      10.016   5.687   6.797  0.00  0.00    -0.100 S 
ATOM     19  C   UNL     1       9.273   6.481   8.104  0.00  0.00    +0.004 A 
ATOM     21  C   UNL     1       9.059   5.673   9.181  0.00  0.00    +0.012 A 
ATOM     22  C   UNL     1       9.519   4.349   8.932  0.00  0.00    +0.008 A 
ATOM     23  C   UNL     1      10.062   4.217   7.673  0.00  0.00    +0.045 A 
ENDBRANCH  14  19
ENDBRANCH   3  14
TORSDOF 3
ENDMDL
MODEL 7
REMARK VINA RESULT:      -6.1     16.676     19.984
REMARK  Name = 7144049
REMARK  3 active torsions:
REMARK  status: ('A' for Active; 'I' for Inactive)
REMARK    1  A    between atoms: N_3  and  C_14
REMARK    2  A    between atoms: C_14  and  C_19
REMARK    3  A    between atoms: C_17  and  C_20
REMARK                            x       y       z     vdW  Elec       q    Type
REMARK                         _______ _______ _______ _____ _____    ______ ____
ROOT
ATOM      2  O   UNL     1      12.361   7.623   3.110  0.00  0.00    -0.267 OA
ATOM      3  N   UNL     1      13.162   4.568  -0.785  0.00  0.00    -0.297 NA
ATOM      4  N   UNL     1      12.839   5.511   2.245  0.00  0.00    -0.311 N 
ATOM      7  C   UNL     1      14.964   5.014   0.901  0.00  0.00    +0.024 C 
ATOM      8  C   UNL     1      13.344   3.226   1.315  0.00  0.00    +0.050 C 
ATOM      9  C   UNL     1      14.813   3.607   1.464  0.00  0.00    +0.017 C 
ATOM     10  C   UNL     1      14.538   5.038  -0.582  0.00  0.00    +0.090 C 
ATOM     11  C   UNL     1      12.953   3.243  -0.180  0.00  0.00    +0.094 C 
ATOM     12  C   UNL     1      14.146   5.982   1.765  0.00  0.00    +0.130 C 
ATOM     13  C   UNL     1      12.459   4.173   2.105  0.00  0.00    +0.026 A 
ATOM     15  C   UNL     1      11.311   3.739   2.649  0.00  0.00    +0.022 A 
ATOM     16  C   UNL     1      12.044   6.444   2.939  0.00  0.00    +0.259 A 
ATOM     17  C   UNL     1      10.747   5.936   3.508  0.00  0.00    +0.050 A 
ATOM     18  C   UNL     1      10.443   4.638   3.355  0.00  0.00    +0.015 A 
ENDROOT
BRANCH  17  20
ATOM      5  N   UNL     1       9.068   7.873   6.246  0.00  0.00    -0.243 NA
ATOM      6  N   UNL     1       7.943   8.339   4.166  0.00  0.00    -0.243 NA
ATOM     20  C   UNL     1       9.817   6.836   4.212  0.00  0.00    +0.024 A 
ATOM     24  C   UNL     1       9.902   7.056   5.569  0.00  0.00    +0.122 A 
ATOM     25  C   UNL     1       8.811   7.507   3.553  0.00  0.00    +0.122 A 
ATOM     26  C   UNL     1       8.126   8.473   5.493  0.00  0.00    +0.221 A 
ENDBRANCH  17  20
BRANCH   3  14
ATOM     14  C   UNL     1      12.816   4.556  -2.203  0.00  0.00    +0.126 C 
BRANCH  14  19
ATOM      1  S   UNL     1      10.613   4.217  -3.831  0.00  0.00    -0.100 S 
ATOM     19  C   UNL     1      11.342   4.781  -2.402  0.00  0.00    +0.004 A 
ATOM     21  C   UNL     1      10.473   5.402  -1.556  0.00  0.00    +0.012 A 
ATOM     22  C   UNL     1       9.154   5.421  -2.094  0.00  0.00    +0.008 A 
ATOM     23  C   UNL     1       9.089   4.811  -3.327  0.00  0.00    +0.045 A 
ENDBRANCH  14  19
ENDBRANCH   3  14
TORSDOF 3
ENDMDL
MODEL 8
REMARK VINA RESULT:      -6.0     22.897     24.460
REMARK  Name = 7144049
REMARK  3 active torsions:
REMARK  status: ('A' for Active; 'I' for Inactive)
REMARK    1  A    between atoms: N_3  and  C_14
REMARK    2  A    between atoms: C_14  and  C_19
REMARK    3  A    between atoms: C_17  and  C_20
REMARK                            x       y       z     vdW  Elec       q    Type
REMARK                         _______ _______ _______ _____ _____    ______ ____
ROOT
ATOM      2  O   UNL     1      -6.687   9.691   5.202  0.00  0.00    -0.267 OA
ATOM      3  N   UNL     1      -1.904  10.488   3.922  0.00  0.00    -0.297 NA
ATOM      4  N   UNL     1      -4.407   9.308   5.508  0.00  0.00    -0.311 N 
ATOM      7  C   UNL     1      -2.769  11.162   6.177  0.00  0.00    +0.024 C 
ATOM      8  C   UNL     1      -1.948   8.881   5.835  0.00  0.00    +0.050 C 
ATOM      9  C   UNL     1      -1.989  10.031   6.836  0.00  0.00    +0.017 C 
ATOM     10  C   UNL     1      -2.070  11.596   4.872  0.00  0.00    +0.090 C 
ATOM     11  C   UNL     1      -1.227   9.342   4.547  0.00  0.00    +0.094 C 
ATOM     12  C   UNL     1      -4.213  10.697   5.947  0.00  0.00    +0.130 C 
ATOM     13  C   UNL     1      -3.349   8.395   5.513  0.00  0.00    +0.026 A 
ATOM     15  C   UNL     1      -3.571   7.104   5.217  0.00  0.00    +0.022 A 
ATOM     16  C   UNL     1      -5.723   8.922   5.186  0.00  0.00    +0.259 A 
ATOM     17  C   UNL     1      -5.935   7.477   4.825  0.00  0.00    +0.050 A 
ATOM     18  C   UNL     1      -4.883   6.644   4.863  0.00  0.00    +0.015 A 
ENDROOT
BRANCH  17  20
ATOM      5  N   UNL     1      -9.185   7.094   2.993  0.00  0.00    -0.243 NA
ATOM      6  N   UNL     1      -9.082   5.437   4.740  0.00  0.00    -0.243 NA
ATOM     20  C   UNL     1      -7.262   6.975   4.427  0.00  0.00    +0.024 A 
ATOM     24  C   UNL     1      -7.969   7.529   3.384  0.00  0.00    +0.122 A 
ATOM     25  C   UNL     1      -7.869   5.923   5.078  0.00  0.00    +0.122 A 
ATOM     26  C   UNL     1      -9.675   6.061   3.704  0.00  0.00    +0.221 A 
ENDBRANCH  17  20
BRANCH   3  14
ATOM     14  C   UNL     1      -1.194  10.927   2.724  0.00  0.00    +0.126 C 
BRANCH  14  19
ATOM      1  S   UNL     1      -3.438  10.480   1.182  0.00  0.00    -0.100 S 
ATOM     19  C   UNL     1      -1.776  10.298   1.488  0.00  0.00    +0.004 A 
ATOM     21  C   UNL     1      -1.124   9.569   0.540  0.00  0.00    +0.012 A 
ATOM     22  C   UNL     1      -2.017   9.138  -0.483  0.00  0.00    +0.008 A 
ATOM     23  C   UNL     1      -3.307   9.565  -0.258  0.00  0.00    +0.045 A 
ENDBRANCH  14  19
ENDBRANCH   3  14
TORSDOF 3
ENDMDL
MODEL 9
REMARK VINA RESULT:      -6.0     15.333     19.044
REMARK  Name = 7144049
REMARK  3 active torsions:
REMARK  status: ('A' for Active; 'I' for Inactive)
REMARK    1  A    between atoms: N_3  and  C_14
REMARK    2  A    between atoms: C_14  and  C_19
REMARK    3  A    between atoms: C_17  and  C_20
REMARK                            x       y       z     vdW  Elec       q    Type
REMARK                         _______ _______ _______ _____ _____    ______ ____
ROOT
ATOM      2  O   UNL     1      10.572   3.952   2.760  0.00  0.00    -0.267 OA
ATOM      3  N   UNL     1       8.941   7.774   5.567  0.00  0.00    -0.297 NA
ATOM      4  N   UNL     1      10.897   5.508   4.467  0.00  0.00    -0.311 N 
ATOM      7  C   UNL     1       9.467   5.548   6.594  0.00  0.00    +0.024 C 
ATOM      8  C   UNL     1      11.257   7.192   6.302  0.00  0.00    +0.050 C 
ATOM      9  C   UNL     1      10.719   6.122   7.246  0.00  0.00    +0.017 C 
ATOM     10  C   UNL     1       8.424   6.664   6.377  0.00  0.00    +0.090 C 
ATOM     11  C   UNL     1      10.197   8.303   6.120  0.00  0.00    +0.094 C 
ATOM     12  C   UNL     1       9.867   4.853   5.286  0.00  0.00    +0.130 C 
ATOM     13  C   UNL     1      11.630   6.590   4.960  0.00  0.00    +0.026 A 
ATOM     15  C   UNL     1      12.642   7.102   4.241  0.00  0.00    +0.022 A 
ATOM     16  C   UNL     1      11.175   4.927   3.214  0.00  0.00    +0.259 A 
ATOM     17  C   UNL     1      12.291   5.544   2.416  0.00  0.00    +0.050 A 
ATOM     18  C   UNL     1      12.970   6.572   2.948  0.00  0.00    +0.015 A 
ENDROOT
BRANCH  17  20
ATOM      5  N   UNL     1      12.332   5.107  -1.309  0.00  0.00    -0.243 NA
ATOM      6  N   UNL     1      13.920   3.579  -0.333  0.00  0.00    -0.243 NA
ATOM     20  C   UNL     1      12.637   5.045   1.073  0.00  0.00    +0.024 A 
ATOM     24  C   UNL     1      12.039   5.539  -0.065  0.00  0.00    +0.122 A 
ATOM     25  C   UNL     1      13.578   4.058   0.881  0.00  0.00    +0.122 A 
ATOM     26  C   UNL     1      13.267   4.139  -1.369  0.00  0.00    +0.221 A 
ENDBRANCH  17  20
BRANCH   3  14
ATOM     14  C   UNL     1       7.943   8.831   5.430  0.00  0.00    +0.126 C 
BRANCH  14  19
ATOM      1  S   UNL     1       6.308  10.079   3.589  0.00  0.00    -0.100 S 
ATOM     19  C   UNL     1       7.655   9.118   3.981  0.00  0.00    +0.004 A 
ATOM     21  C   UNL     1       8.357   8.694   2.893  0.00  0.00    +0.012 A 
ATOM     22  C   UNL     1       7.773   9.171   1.685  0.00  0.00    +0.008 A 
ATOM     23  C   UNL     1       6.653   9.937   1.918  0.00  0.00    +0.045 A 
ENDBRANCH  14  19
ENDBRANCH   3  14
TORSDOF 3
ENDMDL
MODEL 10
REMARK VINA RESULT:      -5.9     14.664     18.790
REMARK  Name = 7144049
REMARK  3 active torsions:
REMARK  status: ('A' for Active; 'I' for Inactive)
REMARK    1  A    between atoms: N_3  and  C_14
REMARK    2  A    between atoms: C_14  and  C_19
REMARK    3  A    between atoms: C_17  and  C_20
REMARK                            x       y       z     vdW  Elec       q    Type
REMARK                         _______ _______ _______ _____ _____    ______ ____
ROOT
ATOM      2  O   UNL     1      10.721   7.084   1.287  0.00  0.00    -0.267 OA
ATOM      3  N   UNL     1      10.534   7.415   6.287  0.00  0.00    -0.297 NA
ATOM      4  N   UNL     1       9.949   6.319   3.350  0.00  0.00    -0.311 N 
ATOM      7  C   UNL     1       8.477   7.742   4.892  0.00  0.00    +0.024 C 
ATOM      8  C   UNL     1       9.121   5.481   5.575  0.00  0.00    +0.050 C 
ATOM      9  C   UNL     1       7.924   6.401   5.357  0.00  0.00    +0.017 C 
ATOM     10  C   UNL     1       9.428   8.322   5.961  0.00  0.00    +0.090 C 
ATOM     11  C   UNL     1      10.043   6.080   6.662  0.00  0.00    +0.094 C 
ATOM     12  C   UNL     1       9.166   7.549   3.534  0.00  0.00    +0.130 C 
ATOM     13  C   UNL     1       9.889   5.279   4.282  0.00  0.00    +0.026 A 
ATOM     15  C   UNL     1      10.522   4.120   4.040  0.00  0.00    +0.022 A 
ATOM     16  C   UNL     1      10.672   6.202   2.147  0.00  0.00    +0.259 A 
ATOM     17  C   UNL     1      11.400   4.905   1.919  0.00  0.00    +0.050 A 
ATOM     18  C   UNL     1      11.293   3.937   2.842  0.00  0.00    +0.015 A 
ENDROOT
BRANCH  17  20
ATOM      5  N   UNL     1      14.367   4.733  -0.369  0.00  0.00    -0.243 NA
ATOM      6  N   UNL     1      12.407   4.046  -1.591  0.00  0.00    -0.243 NA
ATOM     20  C   UNL     1      12.224   4.692   0.717  0.00  0.00    +0.024 A 
ATOM     24  C   UNL     1      13.582   4.919   0.713  0.00  0.00    +0.122 A 
ATOM     25  C   UNL     1      11.682   4.253  -0.471  0.00  0.00    +0.122 A 
ATOM     26  C   UNL     1      13.723   4.303  -1.471  0.00  0.00    +0.221 A 
ENDBRANCH  17  20
BRANCH   3  14
ATOM     14  C   UNL     1      11.379   7.976   7.338  0.00  0.00    +0.126 C 
BRANCH  14  19
ATOM      1  S   UNL     1      13.523   9.498   6.498  0.00  0.00    -0.100 S 
ATOM     19  C   UNL     1      12.822   8.006   6.914  0.00  0.00    +0.004 A 
ATOM     21  C   UNL     1      13.682   6.954   6.812  0.00  0.00    +0.012 A 
ATOM     22  C   UNL     1      14.969   7.380   6.376  0.00  0.00    +0.008 A 
ATOM     23  C   UNL     1      15.021   8.740   6.168  0.00  0.00    +0.045 A 
ENDBRANCH  14  19
ENDBRANCH   3  14
TORSDOF 3
ENDMDL
