MODEL 1
REMARK VINA RESULT:      -6.0      0.000      0.000
REMARK  Name = 75536930
REMARK  4 active torsions:
REMARK  status: ('A' for Active; 'I' for Inactive)
REMARK    1  A    between atoms: O_2  and  C_8
REMARK    2  A    between atoms: O_2  and  C_15
REMARK    3  A    between atoms: N_3  and  C_11
REMARK    4  A    between atoms: C_11  and  C_13
REMARK                            x       y       z     vdW  Elec       q    Type
REMARK                         _______ _______ _______ _____ _____    ______ ____
ROOT
ATOM      1  O   UNL     1      13.291   8.781  17.056  0.00  0.00    -0.375 OA
ATOM      3  N   UNL     1      12.033   8.374  19.614  0.00  0.00    -0.292 NA
ATOM      7  C   UNL     1      12.875   7.179  19.566  0.00  0.00    +0.131 C 
ATOM      8  C   UNL     1      14.238   7.493  18.935  0.00  0.00    +0.215 C 
ATOM      9  C   UNL     1      11.254   8.617  18.394  0.00  0.00    +0.113 C 
ATOM     10  C   UNL     1      14.217   7.771  17.433  0.00  0.00    +0.205 C 
ATOM     12  C   UNL     1      11.947   8.312  17.068  0.00  0.00    +0.175 C 
ENDROOT
BRANCH   8   2
ATOM      2  O   UNL     1      15.101   6.381  19.177  0.00  0.00    -0.468 OA
BRANCH   2  15
ATOM      5  N   UNL     1      16.304   7.606  20.745  0.00  0.00    -0.219 NA
ATOM      6  N   UNL     1      18.625   6.215  20.006  0.00  0.00    -0.256 NA
ATOM     15  C   UNL     1      16.293   6.655  19.789  0.00  0.00    +0.234 A 
ATOM     18  C   UNL     1      17.433   5.973  19.427  0.00  0.00    +0.177 A 
ATOM     20  C   UNL     1      17.497   7.848  21.324  0.00  0.00    +0.134 A 
ATOM     21  C   UNL     1      18.636   7.166  20.961  0.00  0.00    +0.130 A 
ENDBRANCH   2  15
ENDBRANCH   8   2
BRANCH   3  11
ATOM     11  C   UNL     1      11.148   8.360  20.779  0.00  0.00    +0.121 C 
BRANCH  11  13
ATOM      4  N   UNL     1      10.829  10.799  23.656  0.00  0.00    -0.263 NA
ATOM     13  C   UNL     1      11.273   9.620  21.593  0.00  0.00    -0.015 A 
ATOM     14  C   UNL     1      11.914  10.743  21.080  0.00  0.00    +0.008 A 
ATOM     16  C   UNL     1      10.753   9.699  22.874  0.00  0.00    +0.115 A 
ATOM     17  C   UNL     1      12.014  11.893  21.855  0.00  0.00    +0.020 A 
ATOM     19  C   UNL     1      11.459  11.871  23.125  0.00  0.00    +0.111 A 
ENDBRANCH  11  13
ENDBRANCH   3  11
TORSDOF 4
ENDMDL
MODEL 2
REMARK VINA RESULT:      -5.9      2.304      6.809
REMARK  Name = 75536930
REMARK  4 active torsions:
REMARK  status: ('A' for Active; 'I' for Inactive)
REMARK    1  A    between atoms: O_2  and  C_8
REMARK    2  A    between atoms: O_2  and  C_15
REMARK    3  A    between atoms: N_3  and  C_11
REMARK    4  A    between atoms: C_11  and  C_13
REMARK                            x       y       z     vdW  Elec       q    Type
REMARK                         _______ _______ _______ _____ _____    ______ ____
ROOT
ATOM      1  O   UNL     1      11.397   7.140  22.310  0.00  0.00    -0.375 OA
ATOM      3  N   UNL     1      13.251   8.340  20.464  0.00  0.00    -0.292 NA
ATOM      7  C   UNL     1      12.327   9.460  20.638  0.00  0.00    +0.131 C 
ATOM      8  C   UNL     1      11.850   9.556  22.093  0.00  0.00    +0.215 C 
ATOM      9  C   UNL     1      12.602   7.053  20.188  0.00  0.00    +0.113 C 
ATOM     10  C   UNL     1      10.898   8.451  22.546  0.00  0.00    +0.205 C 
ATOM     12  C   UNL     1      11.305   6.767  20.939  0.00  0.00    +0.175 C 
ENDROOT
BRANCH   8   2
ATOM      2  O   UNL     1      11.194  10.814  22.258  0.00  0.00    -0.468 OA
BRANCH   2  15
ATOM      5  N   UNL     1      10.481  11.799  24.239  0.00  0.00    -0.219 NA
ATOM      6  N   UNL     1      13.120  12.596  24.757  0.00  0.00    -0.256 NA
ATOM     15  C   UNL     1      11.492  11.514  23.394  0.00  0.00    +0.234 A 
ATOM     18  C   UNL     1      12.787  11.905  23.649  0.00  0.00    +0.177 A 
ATOM     20  C   UNL     1      10.814  12.490  25.347  0.00  0.00    +0.134 A 
ATOM     21  C   UNL     1      12.109  12.881  25.602  0.00  0.00    +0.130 A 
ENDBRANCH   2  15
ENDBRANCH   8   2
BRANCH   3  11
ATOM     11  C   UNL     1      14.253   8.626  19.435  0.00  0.00    +0.121 C 
BRANCH  11  13
ATOM      4  N   UNL     1      16.749   5.831  18.901  0.00  0.00    -0.263 NA
ATOM     13  C   UNL     1      15.479   7.768  19.593  0.00  0.00    -0.015 A 
ATOM     14  C   UNL     1      16.455   8.079  20.535  0.00  0.00    +0.008 A 
ATOM     16  C   UNL     1      15.673   6.644  18.808  0.00  0.00    +0.115 A 
ATOM     17  C   UNL     1      17.577   7.268  20.660  0.00  0.00    +0.020 A 
ATOM     19  C   UNL     1      17.676   6.165  19.827  0.00  0.00    +0.111 A 
ENDBRANCH  11  13
ENDBRANCH   3  11
TORSDOF 4
ENDMDL
MODEL 3
REMARK VINA RESULT:      -5.5      2.979      6.149
REMARK  Name = 75536930
REMARK  4 active torsions:
REMARK  status: ('A' for Active; 'I' for Inactive)
REMARK    1  A    between atoms: O_2  and  C_8
REMARK    2  A    between atoms: O_2  and  C_15
REMARK    3  A    between atoms: N_3  and  C_11
REMARK    4  A    between atoms: C_11  and  C_13
REMARK                            x       y       z     vdW  Elec       q    Type
REMARK                         _______ _______ _______ _____ _____    ______ ____
ROOT
ATOM      1  O   UNL     1      13.184  10.645  21.680  0.00  0.00    -0.375 OA
ATOM      3  N   UNL     1      13.901   8.123  20.491  0.00  0.00    -0.292 NA
ATOM      7  C   UNL     1      13.227   8.742  19.352  0.00  0.00    +0.131 C 
ATOM      8  C   UNL     1      13.546  10.241  19.273  0.00  0.00    +0.215 C 
ATOM      9  C   UNL     1      13.160   8.204  21.755  0.00  0.00    +0.113 C 
ATOM     10  C   UNL     1      12.914  11.106  20.362  0.00  0.00    +0.205 C 
ATOM     12  C   UNL     1      12.405   9.504  22.022  0.00  0.00    +0.175 C 
ENDROOT
BRANCH   8   2
ATOM      2  O   UNL     1      13.104  10.719  18.002  0.00  0.00    -0.468 OA
BRANCH   2  15
ATOM      5  N   UNL     1      14.017  10.336  15.899  0.00  0.00    -0.219 NA
ATOM      6  N   UNL     1      16.046  12.185  16.476  0.00  0.00    -0.256 NA
ATOM     15  C   UNL     1      14.075  10.987  17.078  0.00  0.00    +0.234 A 
ATOM     18  C   UNL     1      15.071  11.895  17.361  0.00  0.00    +0.177 A 
ATOM     20  C   UNL     1      14.992  10.626  15.014  0.00  0.00    +0.134 A 
ATOM     21  C   UNL     1      15.988  11.534  15.297  0.00  0.00    +0.130 A 
ENDBRANCH   2  15
ENDBRANCH   8   2
BRANCH   3  11
ATOM     11  C   UNL     1      14.260   6.732  20.210  0.00  0.00    +0.121 C 
BRANCH  11  13
ATOM      4  N   UNL     1      17.729   5.848  18.976  0.00  0.00    -0.263 NA
ATOM     13  C   UNL     1      15.752   6.532  20.189  0.00  0.00    -0.015 A 
ATOM     14  C   UNL     1      16.530   6.821  21.306  0.00  0.00    +0.008 A 
ATOM     16  C   UNL     1      16.395   6.052  19.060  0.00  0.00    +0.115 A 
ATOM     17  C   UNL     1      17.905   6.626  21.259  0.00  0.00    +0.020 A 
ATOM     19  C   UNL     1      18.451   6.141  20.081  0.00  0.00    +0.111 A 
ENDBRANCH  11  13
ENDBRANCH   3  11
TORSDOF 4
ENDMDL
MODEL 4
REMARK VINA RESULT:      -5.4     25.784     27.888
REMARK  Name = 75536930
REMARK  4 active torsions:
REMARK  status: ('A' for Active; 'I' for Inactive)
REMARK    1  A    between atoms: O_2  and  C_8
REMARK    2  A    between atoms: O_2  and  C_15
REMARK    3  A    between atoms: N_3  and  C_11
REMARK    4  A    between atoms: C_11  and  C_13
REMARK                            x       y       z     vdW  Elec       q    Type
REMARK                         _______ _______ _______ _____ _____    ______ ____
ROOT
ATOM      1  O   UNL     1      -2.320 -10.277  16.325  0.00  0.00    -0.375 OA
ATOM      3  N   UNL     1      -3.319 -11.278  13.817  0.00  0.00    -0.292 NA
ATOM      7  C   UNL     1      -3.941 -12.240  14.725  0.00  0.00    +0.131 C 
ATOM      8  C   UNL     1      -4.408 -11.554  16.016  0.00  0.00    +0.215 C 
ATOM      9  C   UNL     1      -1.886 -11.059  14.052  0.00  0.00    +0.113 C 
ATOM     10  C   UNL     1      -3.295 -11.097  16.956  0.00  0.00    +0.205 C 
ATOM     12  C   UNL     1      -1.430 -11.030  15.508  0.00  0.00    +0.175 C 
ENDROOT
BRANCH   8   2
ATOM      2  O   UNL     1      -5.249 -12.468  16.721  0.00  0.00    -0.468 OA
BRANCH   2  15
ATOM      5  N   UNL     1      -6.980 -10.967  17.112  0.00  0.00    -0.219 NA
ATOM      6  N   UNL     1      -7.086 -11.831  19.779  0.00  0.00    -0.256 NA
ATOM     15  C   UNL     1      -6.155 -11.922  17.587  0.00  0.00    +0.234 A 
ATOM     18  C   UNL     1      -6.208 -12.346  18.896  0.00  0.00    +0.177 A 
ATOM     20  C   UNL     1      -7.859 -10.452  17.995  0.00  0.00    +0.134 A 
ATOM     21  C   UNL     1      -7.911 -10.876  19.304  0.00  0.00    +0.130 A 
ENDBRANCH   2  15
ENDBRANCH   8   2
BRANCH   3  11
ATOM     11  C   UNL     1      -3.547 -11.638  12.417  0.00  0.00    +0.121 C 
BRANCH  11  13
ATOM      4  N   UNL     1      -5.671  -8.709  11.301  0.00  0.00    -0.263 NA
ATOM     13  C   UNL     1      -4.038 -10.465  11.611  0.00  0.00    -0.015 A 
ATOM     14  C   UNL     1      -3.365 -10.050  10.466  0.00  0.00    +0.008 A 
ATOM     16  C   UNL     1      -5.176  -9.767  11.981  0.00  0.00    +0.115 A 
ATOM     17  C   UNL     1      -3.842  -8.965   9.741  0.00  0.00    +0.020 A 
ATOM     19  C   UNL     1      -4.989  -8.334  10.196  0.00  0.00    +0.111 A 
ENDBRANCH  11  13
ENDBRANCH   3  11
TORSDOF 4
ENDMDL
MODEL 5
REMARK VINA RESULT:      -5.4     26.106     27.551
REMARK  Name = 75536930
REMARK  4 active torsions:
REMARK  status: ('A' for Active; 'I' for Inactive)
REMARK    1  A    between atoms: O_2  and  C_8
REMARK    2  A    between atoms: O_2  and  C_15
REMARK    3  A    between atoms: N_3  and  C_11
REMARK    4  A    between atoms: C_11  and  C_13
REMARK                            x       y       z     vdW  Elec       q    Type
REMARK                         _______ _______ _______ _____ _____    ______ ____
ROOT
ATOM      1  O   UNL     1      -3.083 -13.243  12.428  0.00  0.00    -0.375 OA
ATOM      3  N   UNL     1      -2.915 -11.342  14.584  0.00  0.00    -0.292 NA
ATOM      7  C   UNL     1      -2.560 -10.470  13.466  0.00  0.00    +0.131 C 
ATOM      8  C   UNL     1      -3.395 -10.805  12.222  0.00  0.00    +0.215 C 
ATOM      9  C   UNL     1      -2.190 -12.618  14.614  0.00  0.00    +0.113 C 
ATOM     10  C   UNL     1      -3.059 -12.130  11.543  0.00  0.00    +0.205 C 
ATOM     12  C   UNL     1      -1.934 -13.290  13.267  0.00  0.00    +0.175 C 
ENDROOT
BRANCH   8   2
ATOM      2  O   UNL     1      -3.213  -9.752  11.274  0.00  0.00    -0.468 OA
BRANCH   2  15
ATOM      5  N   UNL     1      -4.122  -9.718   9.135  0.00  0.00    -0.219 NA
ATOM      6  N   UNL     1      -6.508  -8.695  10.198  0.00  0.00    -0.256 NA
ATOM     15  C   UNL     1      -4.272  -9.479  10.453  0.00  0.00    +0.234 A 
ATOM     18  C   UNL     1      -5.443  -8.977  10.975  0.00  0.00    +0.177 A 
ATOM     20  C   UNL     1      -5.187  -9.436   8.359  0.00  0.00    +0.134 A 
ATOM     21  C   UNL     1      -6.358  -8.934   8.880  0.00  0.00    +0.130 A 
ENDBRANCH   2  15
ENDBRANCH   8   2
BRANCH   3  11
ATOM     11  C   UNL     1      -2.770 -10.654  15.868  0.00  0.00    +0.121 C 
BRANCH  11  13
ATOM      4  N   UNL     1      -6.353  -9.780  16.722  0.00  0.00    -0.263 NA
ATOM     13  C   UNL     1      -4.075 -10.582  16.615  0.00  0.00    -0.015 A 
ATOM     14  C   UNL     1      -4.232 -11.211  17.846  0.00  0.00    +0.008 A 
ATOM     16  C   UNL     1      -5.157  -9.886  16.102  0.00  0.00    +0.115 A 
ATOM     17  C   UNL     1      -5.448 -11.126  18.514  0.00  0.00    +0.020 A 
ATOM     19  C   UNL     1      -6.468 -10.405  17.915  0.00  0.00    +0.111 A 
ENDBRANCH  11  13
ENDBRANCH   3  11
TORSDOF 4
ENDMDL
MODEL 6
REMARK VINA RESULT:      -5.1     13.265     15.914
REMARK  Name = 75536930
REMARK  4 active torsions:
REMARK  status: ('A' for Active; 'I' for Inactive)
REMARK    1  A    between atoms: O_2  and  C_8
REMARK    2  A    between atoms: O_2  and  C_15
REMARK    3  A    between atoms: N_3  and  C_11
REMARK    4  A    between atoms: C_11  and  C_13
REMARK                            x       y       z     vdW  Elec       q    Type
REMARK                         _______ _______ _______ _____ _____    ______ ____
ROOT
ATOM      1  O   UNL     1      15.560   7.804   5.690  0.00  0.00    -0.375 OA
ATOM      3  N   UNL     1      12.738   8.301   5.967  0.00  0.00    -0.292 NA
ATOM      7  C   UNL     1      12.829   8.240   4.509  0.00  0.00    +0.131 C 
ATOM      8  C   UNL     1      13.819   7.154   4.066  0.00  0.00    +0.215 C 
ATOM      9  C   UNL     1      13.744   9.158   6.604  0.00  0.00    +0.113 C 
ATOM     10  C   UNL     1      15.291   7.459   4.337  0.00  0.00    +0.205 C 
ATOM     12  C   UNL     1      15.146   9.130   6.000  0.00  0.00    +0.175 C 
ENDROOT
BRANCH   8   2
ATOM      2  O   UNL     1      13.650   6.951   2.663  0.00  0.00    -0.468 OA
BRANCH   2  15
ATOM      5  N   UNL     1      12.198   5.149   2.434  0.00  0.00    -0.219 NA
ATOM      6  N   UNL     1      14.272   3.665   1.266  0.00  0.00    -0.256 NA
ATOM     15  C   UNL     1      13.431   5.664   2.254  0.00  0.00    +0.234 A 
ATOM     18  C   UNL     1      14.449   4.935   1.681  0.00  0.00    +0.177 A 
ATOM     20  C   UNL     1      12.021   3.879   2.020  0.00  0.00    +0.134 A 
ATOM     21  C   UNL     1      13.039   3.150   1.446  0.00  0.00    +0.130 A 
ENDBRANCH   2  15
ENDBRANCH   8   2
BRANCH   3  11
ATOM     11  C   UNL     1      11.397   8.694   6.404  0.00  0.00    +0.121 C 
BRANCH  11  13
ATOM      4  N   UNL     1      10.875   5.453   8.290  0.00  0.00    -0.263 NA
ATOM     13  C   UNL     1      10.729   7.609   7.206  0.00  0.00    -0.015 A 
ATOM     14  C   UNL     1       9.400   7.725   7.599  0.00  0.00    +0.008 A 
ATOM     16  C   UNL     1      11.416   6.464   7.574  0.00  0.00    +0.115 A 
ATOM     17  C   UNL     1       8.808   6.707   8.338  0.00  0.00    +0.020 A 
ATOM     19  C   UNL     1       9.582   5.601   8.655  0.00  0.00    +0.111 A 
ENDBRANCH  11  13
ENDBRANCH   3  11
TORSDOF 4
ENDMDL
MODEL 7
REMARK VINA RESULT:      -5.0     26.473     28.114
REMARK  Name = 75536930
REMARK  4 active torsions:
REMARK  status: ('A' for Active; 'I' for Inactive)
REMARK    1  A    between atoms: O_2  and  C_8
REMARK    2  A    between atoms: O_2  and  C_15
REMARK    3  A    between atoms: N_3  and  C_11
REMARK    4  A    between atoms: C_11  and  C_13
REMARK                            x       y       z     vdW  Elec       q    Type
REMARK                         _______ _______ _______ _____ _____    ______ ____
ROOT
ATOM      1  O   UNL     1      -7.169 -13.110  17.834  0.00  0.00    -0.375 OA
ATOM      3  N   UNL     1      -7.414 -10.257  17.538  0.00  0.00    -0.292 NA
ATOM      7  C   UNL     1      -5.996 -10.342  17.884  0.00  0.00    +0.131 C 
ATOM      8  C   UNL     1      -5.344 -11.565  17.228  0.00  0.00    +0.215 C 
ATOM      9  C   UNL     1      -8.302 -11.026  18.417  0.00  0.00    +0.113 C 
ATOM     10  C   UNL     1      -5.761 -12.918  17.800  0.00  0.00    +0.205 C 
ATOM     12  C   UNL     1      -7.787 -12.383  18.891  0.00  0.00    +0.175 C 
ENDROOT
BRANCH   8   2
ATOM      2  O   UNL     1      -3.928 -11.434  17.364  0.00  0.00    -0.468 OA
BRANCH   2  15
ATOM      5  N   UNL     1      -3.898 -11.060  15.069  0.00  0.00    -0.219 NA
ATOM      6  N   UNL     1      -1.209 -10.288  15.260  0.00  0.00    -0.256 NA
ATOM     15  C   UNL     1      -3.240 -11.051  16.245  0.00  0.00    +0.234 A 
ATOM     18  C   UNL     1      -1.920 -10.671  16.339  0.00  0.00    +0.177 A 
ATOM     20  C   UNL     1      -3.188 -10.676  13.991  0.00  0.00    +0.134 A 
ATOM     21  C   UNL     1      -1.867 -10.297  14.084  0.00  0.00    +0.130 A 
ENDBRANCH   2  15
ENDBRANCH   8   2
BRANCH   3  11
ATOM     11  C   UNL     1      -7.865  -8.866  17.463  0.00  0.00    +0.121 C 
BRANCH  11  13
ATOM      4  N   UNL     1     -10.241  -9.152  14.529  0.00  0.00    -0.263 NA
ATOM     13  C   UNL     1      -9.104  -8.723  16.619  0.00  0.00    -0.015 A 
ATOM     14  C   UNL     1     -10.226  -8.058  17.101  0.00  0.00    +0.008 A 
ATOM     16  C   UNL     1      -9.162  -9.247  15.338  0.00  0.00    +0.115 A 
ATOM     17  C   UNL     1     -11.356  -7.941  16.300  0.00  0.00    +0.020 A 
ATOM     19  C   UNL     1     -11.313  -8.499  15.032  0.00  0.00    +0.111 A 
ENDBRANCH  11  13
ENDBRANCH   3  11
TORSDOF 4
ENDMDL
MODEL 8
REMARK VINA RESULT:      -4.9     25.298     27.609
REMARK  Name = 75536930
REMARK  4 active torsions:
REMARK  status: ('A' for Active; 'I' for Inactive)
REMARK    1  A    between atoms: O_2  and  C_8
REMARK    2  A    between atoms: O_2  and  C_15
REMARK    3  A    between atoms: N_3  and  C_11
REMARK    4  A    between atoms: C_11  and  C_13
REMARK                            x       y       z     vdW  Elec       q    Type
REMARK                         _______ _______ _______ _____ _____    ______ ____
ROOT
ATOM      1  O   UNL     1     -13.830   9.458  21.496  0.00  0.00    -0.375 OA
ATOM      3  N   UNL     1     -11.847   8.685  19.556  0.00  0.00    -0.292 NA
ATOM      7  C   UNL     1     -11.716   7.569  20.492  0.00  0.00    +0.131 C 
ATOM      8  C   UNL     1     -13.086   7.150  21.042  0.00  0.00    +0.215 C 
ATOM      9  C   UNL     1     -11.843  10.011  20.186  0.00  0.00    +0.113 C 
ATOM     10  C   UNL     1     -13.735   8.136  22.011  0.00  0.00    +0.205 C 
ATOM     12  C   UNL     1     -12.578  10.136  21.518  0.00  0.00    +0.175 C 
ENDROOT
BRANCH   8   2
ATOM      2  O   UNL     1     -12.927   5.897  21.709  0.00  0.00    -0.468 OA
BRANCH   2  15
ATOM      5  N   UNL     1     -14.027   4.915  23.506  0.00  0.00    -0.219 NA
ATOM      6  N   UNL     1     -16.323   4.649  21.918  0.00  0.00    -0.256 NA
ATOM     15  C   UNL     1     -14.061   5.332  22.225  0.00  0.00    +0.234 A 
ATOM     18  C   UNL     1     -15.188   5.201  21.445  0.00  0.00    +0.177 A 
ATOM     20  C   UNL     1     -15.162   4.363  23.979  0.00  0.00    +0.134 A 
ATOM     21  C   UNL     1     -16.289   4.232  23.199  0.00  0.00    +0.130 A 
ENDBRANCH   2  15
ENDBRANCH   8   2
BRANCH   3  11
ATOM     11  C   UNL     1     -10.829   8.627  18.507  0.00  0.00    +0.121 C 
BRANCH  11  13
ATOM      4  N   UNL     1     -11.148   8.514  14.736  0.00  0.00    -0.263 NA
ATOM     13  C   UNL     1     -11.443   8.530  17.135  0.00  0.00    -0.015 A 
ATOM     14  C   UNL     1     -12.817   8.378  16.974  0.00  0.00    +0.008 A 
ATOM     16  C   UNL     1     -10.661   8.592  15.994  0.00  0.00    +0.115 A 
ATOM     17  C   UNL     1     -13.356   8.292  15.696  0.00  0.00    +0.020 A 
ATOM     19  C   UNL     1     -12.487   8.365  14.619  0.00  0.00    +0.111 A 
ENDBRANCH  11  13
ENDBRANCH   3  11
TORSDOF 4
ENDMDL
MODEL 9
REMARK VINA RESULT:      -4.8     26.345     27.981
REMARK  Name = 75536930
REMARK  4 active torsions:
REMARK  status: ('A' for Active; 'I' for Inactive)
REMARK    1  A    between atoms: O_2  and  C_8
REMARK    2  A    between atoms: O_2  and  C_15
REMARK    3  A    between atoms: N_3  and  C_11
REMARK    4  A    between atoms: C_11  and  C_13
REMARK                            x       y       z     vdW  Elec       q    Type
REMARK                         _______ _______ _______ _____ _____    ______ ____
ROOT
ATOM      1  O   UNL     1      -5.346 -12.097  19.188  0.00  0.00    -0.375 OA
ATOM      3  N   UNL     1      -6.479 -10.313  17.233  0.00  0.00    -0.292 NA
ATOM      7  C   UNL     1      -5.059 -10.053  17.002  0.00  0.00    +0.131 C 
ATOM      8  C   UNL     1      -4.239 -11.345  17.116  0.00  0.00    +0.215 C 
ATOM      9  C   UNL     1      -6.882 -10.278  18.644  0.00  0.00    +0.113 C 
ATOM     10  C   UNL     1      -4.101 -11.913  18.527  0.00  0.00    +0.205 C 
ATOM     12  C   UNL     1      -5.899 -10.870  19.650  0.00  0.00    +0.175 C 
ENDROOT
BRANCH   8   2
ATOM      2  O   UNL     1      -2.931 -11.082  16.605  0.00  0.00    -0.468 OA
BRANCH   2  15
ATOM      5  N   UNL     1      -2.119 -10.340  14.557  0.00  0.00    -0.219 NA
ATOM      6  N   UNL     1      -3.016 -12.720  13.373  0.00  0.00    -0.256 NA
ATOM     15  C   UNL     1      -2.743 -11.301  15.268  0.00  0.00    +0.234 A 
ATOM     18  C   UNL     1      -3.183 -12.468  14.687  0.00  0.00    +0.177 A 
ATOM     20  C   UNL     1      -1.952 -10.592  13.243  0.00  0.00    +0.134 A 
ATOM     21  C   UNL     1      -2.392 -11.760  12.662  0.00  0.00    +0.130 A 
ENDBRANCH   2  15
ENDBRANCH   8   2
BRANCH   3  11
ATOM     11  C   UNL     1      -7.324  -9.412  16.449  0.00  0.00    +0.121 C 
BRANCH  11  13
ATOM      4  N   UNL     1     -10.734 -11.019  16.795  0.00  0.00    -0.263 NA
ATOM     13  C   UNL     1      -8.784  -9.591  16.770  0.00  0.00    -0.015 A 
ATOM     14  C   UNL     1      -9.530  -8.551  17.314  0.00  0.00    +0.008 A 
ATOM     16  C   UNL     1      -9.428 -10.794  16.532  0.00  0.00    +0.115 A 
ATOM     17  C   UNL     1     -10.877  -8.744  17.600  0.00  0.00    +0.020 A 
ATOM     19  C   UNL     1     -11.427  -9.986  17.323  0.00  0.00    +0.111 A 
ENDBRANCH  11  13
ENDBRANCH   3  11
TORSDOF 4
ENDMDL
MODEL 10
REMARK VINA RESULT:      -4.7      3.120      5.710
REMARK  Name = 75536930
REMARK  4 active torsions:
REMARK  status: ('A' for Active; 'I' for Inactive)
REMARK    1  A    between atoms: O_2  and  C_8
REMARK    2  A    between atoms: O_2  and  C_15
REMARK    3  A    between atoms: N_3  and  C_11
REMARK    4  A    between atoms: C_11  and  C_13
REMARK                            x       y       z     vdW  Elec       q    Type
REMARK                         _______ _______ _______ _____ _____    ______ ____
ROOT
ATOM      1  O   UNL     1      11.662  10.766  22.911  0.00  0.00    -0.375 OA
ATOM      3  N   UNL     1      12.558   8.463  21.433  0.00  0.00    -0.292 NA
ATOM      7  C   UNL     1      12.353   9.395  20.326  0.00  0.00    +0.131 C 
ATOM      8  C   UNL     1      12.785  10.815  20.715  0.00  0.00    +0.215 C 
ATOM      9  C   UNL     1      11.441   8.391  22.383  0.00  0.00    +0.113 C 
ATOM     10  C   UNL     1      11.886  11.521  21.727  0.00  0.00    +0.205 C 
ATOM     12  C   UNL     1      10.735   9.705  22.707  0.00  0.00    +0.175 C 
ENDROOT
BRANCH   8   2
ATOM      2  O   UNL     1      12.832  11.602  19.525  0.00  0.00    -0.468 OA
BRANCH   2  15
ATOM      5  N   UNL     1      14.165  12.395  17.793  0.00  0.00    -0.219 NA
ATOM      6  N   UNL     1      16.426  12.061  19.420  0.00  0.00    -0.256 NA
ATOM     15  C   UNL     1      14.075  11.922  19.052  0.00  0.00    +0.234 A 
ATOM     18  C   UNL     1      15.185  11.758  19.850  0.00  0.00    +0.177 A 
ATOM     20  C   UNL     1      15.406  12.699  17.363  0.00  0.00    +0.134 A 
ATOM     21  C   UNL     1      16.516  12.534  18.161  0.00  0.00    +0.130 A 
ENDBRANCH   2  15
ENDBRANCH   8   2
BRANCH   3  11
ATOM     11  C   UNL     1      12.892   7.122  20.951  0.00  0.00    +0.121 C 
BRANCH  11  13
ATOM      4  N   UNL     1      16.059   6.578  18.949  0.00  0.00    -0.263 NA
ATOM     13  C   UNL     1      14.353   6.997  20.610  0.00  0.00    -0.015 A 
ATOM     14  C   UNL     1      15.333   7.168  21.583  0.00  0.00    +0.008 A 
ATOM     16  C   UNL     1      14.766   6.706  19.321  0.00  0.00    +0.115 A 
ATOM     17  C   UNL     1      16.674   7.046  21.240  0.00  0.00    +0.020 A 
ATOM     19  C   UNL     1      16.983   6.752  19.921  0.00  0.00    +0.111 A 
ENDBRANCH  11  13
ENDBRANCH   3  11
TORSDOF 4
ENDMDL
