MODEL 1
REMARK VINA RESULT:      -6.8      0.000      0.000
REMARK  Name = 26744515
REMARK  6 active torsions:
REMARK  status: ('A' for Active; 'I' for Inactive)
REMARK    1  A    between atoms: O_4  and  C_12
REMARK    2  A    between atoms: O_6  and  C_22
REMARK    3  A    between atoms: O_6  and  C_23
REMARK    4  A    between atoms: N_7  and  C_15
REMARK    5  A    between atoms: C_10  and  C_14
REMARK    6  A    between atoms: C_16  and  C_17
REMARK                            x       y       z     vdW  Elec       q    Type
REMARK                         _______ _______ _______ _____ _____    ______ ____
ROOT
ATOM      5  O   UNL     1      13.430   7.461  18.723  0.00  0.00    -0.336 OA
ATOM      8  N   UNL     1      14.379   7.275  20.742  0.00  0.00    -0.190 NA
ATOM      9  N   UNL     1      14.753   7.062  18.496  0.00  0.00    -0.056 NA
ATOM     14  C   UNL     1      13.293   7.563  20.070  0.00  0.00    +0.245 A 
ATOM     16  C   UNL     1      15.247   6.974  19.734  0.00  0.00    +0.202 A 
ENDROOT
BRANCH  14  10
ATOM      7  N   UNL     1      11.563   7.310  21.842  0.00  0.00    -0.292 NA
ATOM     10  C   UNL     1      11.932   7.984  20.580  0.00  0.00    +0.148 C 
ATOM     11  C   UNL     1      11.855   9.489  20.900  0.00  0.00    +0.061 C 
ATOM     12  C   UNL     1      11.391   9.561  22.350  0.00  0.00    +0.130 C 
ATOM     13  C   UNL     1      10.689   8.234  22.564  0.00  0.00    +0.116 C 
ATOM     15  C   UNL     1      10.937   6.010  21.637  0.00  0.00    +0.105 C 
BRANCH  12   4
ATOM      4  O   UNL     1      10.517  10.654  22.545  0.00  0.00    -0.390 OA
ATOM     24  H   UNL     1       9.691  10.305  22.923  0.00  0.00    +0.210 HD
ENDBRANCH  12   4
ENDBRANCH  14  10
BRANCH  16  17
ATOM     17  C   UNL     1      16.604   6.590  19.998  0.00  0.00    +0.023 A 
ATOM     18  C   UNL     1      17.298   5.803  19.079  0.00  0.00    +0.015 A 
ATOM     19  C   UNL     1      17.229   7.004  21.174  0.00  0.00    +0.015 A 
ATOM     20  C   UNL     1      18.616   5.428  19.336  0.00  0.00    +0.046 A 
ATOM     21  C   UNL     1      18.549   6.629  21.432  0.00  0.00    +0.046 A 
ATOM     22  C   UNL     1      19.241   5.841  20.513  0.00  0.00    +0.130 A 
BRANCH  22   6
ATOM      6  O   UNL     1      20.528   5.477  20.765  0.00  0.00    -0.406 OA
BRANCH   6  23
ATOM      1  F   UNL     1      21.794   6.890  21.988  0.00  0.00    -0.133 F 
ATOM      2  F   UNL     1      22.682   6.001  20.200  0.00  0.00    -0.133 F 
ATOM      3  F   UNL     1      21.122   7.556  20.018  0.00  0.00    -0.133 F 
ATOM     23  C   UNL     1      21.534   6.482  20.725  0.00  0.00    +0.575 C 
ENDBRANCH   6  23
ENDBRANCH  22   6
ENDBRANCH  16  17
TORSDOF 5
ENDMDL
MODEL 2
REMARK VINA RESULT:      -6.8      4.522      8.473
REMARK  Name = 26744515
REMARK  6 active torsions:
REMARK  status: ('A' for Active; 'I' for Inactive)
REMARK    1  A    between atoms: O_4  and  C_12
REMARK    2  A    between atoms: O_6  and  C_22
REMARK    3  A    between atoms: O_6  and  C_23
REMARK    4  A    between atoms: N_7  and  C_15
REMARK    5  A    between atoms: C_10  and  C_14
REMARK    6  A    between atoms: C_16  and  C_17
REMARK                            x       y       z     vdW  Elec       q    Type
REMARK                         _______ _______ _______ _____ _____    ______ ____
ROOT
ATOM      5  O   UNL     1      19.406   8.043  21.687  0.00  0.00    -0.336 OA
ATOM      8  N   UNL     1      18.305   6.282  20.851  0.00  0.00    -0.190 NA
ATOM      9  N   UNL     1      18.078   8.457  21.520  0.00  0.00    -0.056 NA
ATOM     14  C   UNL     1      19.452   6.751  21.269  0.00  0.00    +0.245 A 
ATOM     16  C   UNL     1      17.492   7.364  21.024  0.00  0.00    +0.202 A 
ENDROOT
BRANCH  14  10
ATOM      7  N   UNL     1      21.056   5.472  22.679  0.00  0.00    -0.292 NA
ATOM     10  C   UNL     1      20.799   6.064  21.350  0.00  0.00    +0.148 C 
ATOM     11  C   UNL     1      20.928   4.888  20.363  0.00  0.00    +0.061 C 
ATOM     12  C   UNL     1      21.304   3.689  21.226  0.00  0.00    +0.130 C 
ATOM     13  C   UNL     1      21.927   4.319  22.457  0.00  0.00    +0.116 C 
ATOM     15  C   UNL     1      21.630   6.418  23.628  0.00  0.00    +0.105 C 
BRANCH  12   4
ATOM      4  O   UNL     1      22.217   2.849  20.547  0.00  0.00    -0.390 OA
ATOM     24  H   UNL     1      22.162   1.968  20.957  0.00  0.00    +0.210 HD
ENDBRANCH  12   4
ENDBRANCH  14  10
BRANCH  16  17
ATOM     17  C   UNL     1      16.098   7.321  20.689  0.00  0.00    +0.023 A 
ATOM     18  C   UNL     1      15.704   7.198  19.356  0.00  0.00    +0.015 A 
ATOM     19  C   UNL     1      15.137   7.402  21.696  0.00  0.00    +0.015 A 
ATOM     20  C   UNL     1      14.348   7.157  19.031  0.00  0.00    +0.046 A 
ATOM     21  C   UNL     1      13.780   7.362  21.371  0.00  0.00    +0.046 A 
ATOM     22  C   UNL     1      13.387   7.240  20.039  0.00  0.00    +0.130 A 
BRANCH  22   6
ATOM      6  O   UNL     1      12.063   7.200  19.722  0.00  0.00    -0.406 OA
BRANCH   6  23
ATOM      1  F   UNL     1      10.422   8.443  20.648  0.00  0.00    -0.133 F 
ATOM      2  F   UNL     1      12.172   9.481  19.850  0.00  0.00    -0.133 F 
ATOM      3  F   UNL     1      10.701   8.557  18.483  0.00  0.00    -0.133 F 
ATOM     23  C   UNL     1      11.347   8.428  19.661  0.00  0.00    +0.575 C 
ENDBRANCH   6  23
ENDBRANCH  22   6
ENDBRANCH  16  17
TORSDOF 5
ENDMDL
MODEL 3
REMARK VINA RESULT:      -6.7      2.099      2.878
REMARK  Name = 26744515
REMARK  6 active torsions:
REMARK  status: ('A' for Active; 'I' for Inactive)
REMARK    1  A    between atoms: O_4  and  C_12
REMARK    2  A    between atoms: O_6  and  C_22
REMARK    3  A    between atoms: O_6  and  C_23
REMARK    4  A    between atoms: N_7  and  C_15
REMARK    5  A    between atoms: C_10  and  C_14
REMARK    6  A    between atoms: C_16  and  C_17
REMARK                            x       y       z     vdW  Elec       q    Type
REMARK                         _______ _______ _______ _____ _____    ______ ____
ROOT
ATOM      5  O   UNL     1      14.687   8.370  21.179  0.00  0.00    -0.336 OA
ATOM      8  N   UNL     1      15.333   6.488  20.150  0.00  0.00    -0.190 NA
ATOM      9  N   UNL     1      16.062   8.250  21.414  0.00  0.00    -0.056 NA
ATOM     14  C   UNL     1      14.338   7.293  20.428  0.00  0.00    +0.245 A 
ATOM     16  C   UNL     1      16.369   7.117  20.776  0.00  0.00    +0.202 A 
ENDROOT
BRANCH  14  10
ATOM      7  N   UNL     1      12.039   8.213  20.688  0.00  0.00    -0.292 NA
ATOM     10  C   UNL     1      12.880   7.189  20.034  0.00  0.00    +0.148 C 
ATOM     11  C   UNL     1      12.655   7.400  18.524  0.00  0.00    +0.061 C 
ATOM     12  C   UNL     1      11.639   8.531  18.432  0.00  0.00    +0.130 C 
ATOM     13  C   UNL     1      10.932   8.485  19.773  0.00  0.00    +0.116 C 
ATOM     15  C   UNL     1      11.573   7.814  22.010  0.00  0.00    +0.105 C 
BRANCH  12   4
ATOM      4  O   UNL     1      10.743   8.316  17.359  0.00  0.00    -0.390 OA
ATOM     24  H   UNL     1      10.947   7.444  16.979  0.00  0.00    +0.210 HD
ENDBRANCH  12   4
ENDBRANCH  14  10
BRANCH  16  17
ATOM     17  C   UNL     1      17.702   6.585  20.745  0.00  0.00    +0.023 A 
ATOM     18  C   UNL     1      18.640   7.002  21.689  0.00  0.00    +0.015 A 
ATOM     19  C   UNL     1      18.057   5.652  19.772  0.00  0.00    +0.015 A 
ATOM     20  C   UNL     1      19.936   6.486  21.659  0.00  0.00    +0.046 A 
ATOM     21  C   UNL     1      19.353   5.136  19.741  0.00  0.00    +0.046 A 
ATOM     22  C   UNL     1      20.292   5.553  20.684  0.00  0.00    +0.130 A 
BRANCH  22   6
ATOM      6  O   UNL     1      21.556   5.048  20.654  0.00  0.00    -0.406 OA
BRANCH   6  23
ATOM      1  F   UNL     1      23.057   3.395  20.986  0.00  0.00    -0.133 F 
ATOM      2  F   UNL     1      21.673   3.870  22.610  0.00  0.00    -0.133 F 
ATOM      3  F   UNL     1      20.950   2.846  20.790  0.00  0.00    -0.133 F 
ATOM     23  C   UNL     1      21.793   3.787  21.268  0.00  0.00    +0.575 C 
ENDBRANCH   6  23
ENDBRANCH  22   6
ENDBRANCH  16  17
TORSDOF 5
ENDMDL
MODEL 4
REMARK VINA RESULT:      -6.6      1.972      2.506
REMARK  Name = 26744515
REMARK  6 active torsions:
REMARK  status: ('A' for Active; 'I' for Inactive)
REMARK    1  A    between atoms: O_4  and  C_12
REMARK    2  A    between atoms: O_6  and  C_22
REMARK    3  A    between atoms: O_6  and  C_23
REMARK    4  A    between atoms: N_7  and  C_15
REMARK    5  A    between atoms: C_10  and  C_14
REMARK    6  A    between atoms: C_16  and  C_17
REMARK                            x       y       z     vdW  Elec       q    Type
REMARK                         _______ _______ _______ _____ _____    ______ ____
ROOT
ATOM      5  O   UNL     1      14.581   6.845  19.296  0.00  0.00    -0.336 OA
ATOM      8  N   UNL     1      15.756   7.480  21.093  0.00  0.00    -0.190 NA
ATOM      9  N   UNL     1      15.854   6.278  19.150  0.00  0.00    -0.056 NA
ATOM     14  C   UNL     1      14.609   7.535  20.465  0.00  0.00    +0.245 A 
ATOM     16  C   UNL     1      16.488   6.698  20.248  0.00  0.00    +0.202 A 
ENDROOT
BRANCH  14  10
ATOM      7  N   UNL     1      12.541   8.684  19.688  0.00  0.00    -0.292 NA
ATOM     10  C   UNL     1      13.332   8.248  20.858  0.00  0.00    +0.148 C 
ATOM     11  C   UNL     1      12.375   7.354  21.669  0.00  0.00    +0.061 C 
ATOM     12  C   UNL     1      11.060   7.385  20.901  0.00  0.00    +0.130 C 
ATOM     13  C   UNL     1      11.142   8.676  20.110  0.00  0.00    +0.116 C 
ATOM     15  C   UNL     1      12.952   9.983  19.170  0.00  0.00    +0.105 C 
BRANCH  12   4
ATOM      4  O   UNL     1       9.959   7.383  21.789  0.00  0.00    -0.390 OA
ATOM     24  H   UNL     1       9.631   8.296  21.850  0.00  0.00    +0.210 HD
ENDBRANCH  12   4
ENDBRANCH  14  10
BRANCH  16  17
ATOM     17  C   UNL     1      17.853   6.356  20.530  0.00  0.00    +0.023 A 
ATOM     18  C   UNL     1      18.541   5.484  19.687  0.00  0.00    +0.015 A 
ATOM     19  C   UNL     1      18.489   6.896  21.648  0.00  0.00    +0.015 A 
ATOM     20  C   UNL     1      19.867   5.151  19.962  0.00  0.00    +0.046 A 
ATOM     21  C   UNL     1      19.816   6.562  21.923  0.00  0.00    +0.046 A 
ATOM     22  C   UNL     1      20.504   5.690  21.081  0.00  0.00    +0.130 A 
BRANCH  22   6
ATOM      6  O   UNL     1      21.799   5.365  21.349  0.00  0.00    -0.406 OA
BRANCH   6  23
ATOM      1  F   UNL     1      23.293   3.690  21.589  0.00  0.00    -0.133 F 
ATOM      2  F   UNL     1      22.062   4.225  23.315  0.00  0.00    -0.133 F 
ATOM      3  F   UNL     1      21.167   3.179  21.586  0.00  0.00    -0.133 F 
ATOM     23  C   UNL     1      22.065   4.112  21.969  0.00  0.00    +0.575 C 
ENDBRANCH   6  23
ENDBRANCH  22   6
ENDBRANCH  16  17
TORSDOF 5
ENDMDL
MODEL 5
REMARK VINA RESULT:      -6.4     16.562     18.580
REMARK  Name = 26744515
REMARK  6 active torsions:
REMARK  status: ('A' for Active; 'I' for Inactive)
REMARK    1  A    between atoms: O_4  and  C_12
REMARK    2  A    between atoms: O_6  and  C_22
REMARK    3  A    between atoms: O_6  and  C_23
REMARK    4  A    between atoms: N_7  and  C_15
REMARK    5  A    between atoms: C_10  and  C_14
REMARK    6  A    between atoms: C_16  and  C_17
REMARK                            x       y       z     vdW  Elec       q    Type
REMARK                         _______ _______ _______ _____ _____    ______ ____
ROOT
ATOM      5  O   UNL     1      13.271   6.676   2.380  0.00  0.00    -0.336 OA
ATOM      8  N   UNL     1      11.537   5.336   2.842  0.00  0.00    -0.190 NA
ATOM      9  N   UNL     1      12.893   6.967   3.697  0.00  0.00    -0.056 NA
ATOM     14  C   UNL     1      12.422   5.706   1.952  0.00  0.00    +0.245 A 
ATOM     16  C   UNL     1      11.865   6.137   3.896  0.00  0.00    +0.202 A 
ENDROOT
BRANCH  14  10
ATOM      7  N   UNL     1      13.275   3.882   0.488  0.00  0.00    -0.292 NA
ATOM     10  C   UNL     1      12.625   5.208   0.537  0.00  0.00    +0.148 C 
ATOM     11  C   UNL     1      11.299   5.026  -0.227  0.00  0.00    +0.061 C 
ATOM     12  C   UNL     1      11.316   3.579  -0.706  0.00  0.00    +0.130 C 
ATOM     13  C   UNL     1      12.791   3.229  -0.728  0.00  0.00    +0.116 C 
ATOM     15  C   UNL     1      14.730   3.954   0.530  0.00  0.00    +0.105 C 
BRANCH  12   4
ATOM      4  O   UNL     1      10.731   3.467  -1.988  0.00  0.00    -0.390 OA
ATOM     24  H   UNL     1       9.768   3.397  -1.864  0.00  0.00    +0.210 HD
ENDBRANCH  12   4
ENDBRANCH  14  10
BRANCH  16  17
ATOM     17  C   UNL     1      11.145   6.086   5.136  0.00  0.00    +0.023 A 
ATOM     18  C   UNL     1       9.870   5.521   5.179  0.00  0.00    +0.015 A 
ATOM     19  C   UNL     1      11.720   6.600   6.298  0.00  0.00    +0.015 A 
ATOM     20  C   UNL     1       9.170   5.472   6.384  0.00  0.00    +0.046 A 
ATOM     21  C   UNL     1      11.019   6.551   7.504  0.00  0.00    +0.046 A 
ATOM     22  C   UNL     1       9.744   5.987   7.546  0.00  0.00    +0.130 A 
BRANCH  22   6
ATOM      6  O   UNL     1       9.061   5.939   8.723  0.00  0.00    -0.406 OA
BRANCH   6  23
ATOM      1  F   UNL     1      10.413   5.078  10.313  0.00  0.00    -0.133 F 
ATOM      2  F   UNL     1       8.269   4.677  10.458  0.00  0.00    -0.133 F 
ATOM      3  F   UNL     1       9.486   3.698   8.894  0.00  0.00    -0.133 F 
ATOM     23  C   UNL     1       9.294   4.837   9.592  0.00  0.00    +0.575 C 
ENDBRANCH   6  23
ENDBRANCH  22   6
ENDBRANCH  16  17
TORSDOF 5
ENDMDL
MODEL 6
REMARK VINA RESULT:      -6.2     17.105     19.298
REMARK  Name = 26744515
REMARK  6 active torsions:
REMARK  status: ('A' for Active; 'I' for Inactive)
REMARK    1  A    between atoms: O_4  and  C_12
REMARK    2  A    between atoms: O_6  and  C_22
REMARK    3  A    between atoms: O_6  and  C_23
REMARK    4  A    between atoms: N_7  and  C_15
REMARK    5  A    between atoms: C_10  and  C_14
REMARK    6  A    between atoms: C_16  and  C_17
REMARK                            x       y       z     vdW  Elec       q    Type
REMARK                         _______ _______ _______ _____ _____    ______ ____
ROOT
ATOM      5  O   UNL     1      13.092   6.226   1.126  0.00  0.00    -0.336 OA
ATOM      8  N   UNL     1      12.517   4.466   2.386  0.00  0.00    -0.190 NA
ATOM      9  N   UNL     1      12.360   6.741   2.203  0.00  0.00    -0.056 NA
ATOM     14  C   UNL     1      13.137   4.881   1.311  0.00  0.00    +0.245 A 
ATOM     16  C   UNL     1      12.056   5.643   2.901  0.00  0.00    +0.202 A 
ENDROOT
BRANCH  14  10
ATOM      7  N   UNL     1      13.920   4.755  -1.049  0.00  0.00    -0.292 NA
ATOM     10  C   UNL     1      13.885   4.081   0.266  0.00  0.00    +0.148 C 
ATOM     11  C   UNL     1      15.365   3.858   0.632  0.00  0.00    +0.061 C 
ATOM     12  C   UNL     1      16.151   4.396  -0.557  0.00  0.00    +0.130 C 
ATOM     13  C   UNL     1      15.157   4.328  -1.700  0.00  0.00    +0.116 C 
ATOM     15  C   UNL     1      12.746   4.477  -1.867  0.00  0.00    +0.105 C 
BRANCH  12   4
ATOM      4  O   UNL     1      17.293   3.600  -0.806  0.00  0.00    -0.390 OA
ATOM     24  H   UNL     1      17.455   3.614  -1.765  0.00  0.00    +0.210 HD
ENDBRANCH  12   4
ENDBRANCH  14  10
BRANCH  16  17
ATOM     17  C   UNL     1      11.293   5.686   4.115  0.00  0.00    +0.023 A 
ATOM     18  C   UNL     1      11.645   6.578   5.129  0.00  0.00    +0.015 A 
ATOM     19  C   UNL     1      10.199   4.837   4.281  0.00  0.00    +0.015 A 
ATOM     20  C   UNL     1      10.904   6.619   6.309  0.00  0.00    +0.046 A 
ATOM     21  C   UNL     1       9.457   4.878   5.463  0.00  0.00    +0.046 A 
ATOM     22  C   UNL     1       9.810   5.769   6.476  0.00  0.00    +0.130 A 
BRANCH  22   6
ATOM      6  O   UNL     1       9.085   5.809   7.628  0.00  0.00    -0.406 OA
BRANCH   6  23
ATOM      1  F   UNL     1       8.660   5.170   9.751  0.00  0.00    -0.133 F 
ATOM      2  F   UNL     1       9.766   3.792   8.464  0.00  0.00    -0.133 F 
ATOM      3  F   UNL     1      10.727   5.637   9.212  0.00  0.00    -0.133 F 
ATOM     23  C   UNL     1       9.576   5.097   8.758  0.00  0.00    +0.575 C 
ENDBRANCH   6  23
ENDBRANCH  22   6
ENDBRANCH  16  17
TORSDOF 5
ENDMDL
MODEL 7
REMARK VINA RESULT:      -6.2     27.741     28.934
REMARK  Name = 26744515
REMARK  6 active torsions:
REMARK  status: ('A' for Active; 'I' for Inactive)
REMARK    1  A    between atoms: O_4  and  C_12
REMARK    2  A    between atoms: O_6  and  C_22
REMARK    3  A    between atoms: O_6  and  C_23
REMARK    4  A    between atoms: N_7  and  C_15
REMARK    5  A    between atoms: C_10  and  C_14
REMARK    6  A    between atoms: C_16  and  C_17
REMARK                            x       y       z     vdW  Elec       q    Type
REMARK                         _______ _______ _______ _____ _____    ______ ____
ROOT
ATOM      5  O   UNL     1      -1.939 -10.524  13.362  0.00  0.00    -0.336 OA
ATOM      8  N   UNL     1      -4.174 -10.594  13.479  0.00  0.00    -0.190 NA
ATOM      9  N   UNL     1      -2.257 -10.535  14.726  0.00  0.00    -0.056 NA
ATOM     14  C   UNL     1      -3.124 -10.561  12.699  0.00  0.00    +0.245 A 
ATOM     16  C   UNL     1      -3.592 -10.576  14.713  0.00  0.00    +0.202 A 
ENDROOT
BRANCH  14  10
ATOM      7  N   UNL     1      -4.075 -11.425  10.567  0.00  0.00    -0.292 NA
ATOM     10  C   UNL     1      -3.051 -10.559  11.187  0.00  0.00    +0.148 C 
ATOM     11  C   UNL     1      -3.295  -9.164  10.580  0.00  0.00    +0.061 C 
ATOM     12  C   UNL     1      -4.444  -9.357   9.598  0.00  0.00    +0.130 C 
ATOM     13  C   UNL     1      -4.383 -10.835   9.265  0.00  0.00    +0.116 C 
ATOM     15  C   UNL     1      -3.658 -12.817  10.454  0.00  0.00    +0.105 C 
BRANCH  12   4
ATOM      4  O   UNL     1      -4.265  -8.552   8.450  0.00  0.00    -0.390 OA
ATOM     24  H   UNL     1      -4.407  -7.627   8.716  0.00  0.00    +0.210 HD
ENDBRANCH  12   4
ENDBRANCH  14  10
BRANCH  16  17
ATOM     17  C   UNL     1      -4.375 -10.599  15.916  0.00  0.00    +0.023 A 
ATOM     18  C   UNL     1      -5.562  -9.870  15.990  0.00  0.00    +0.015 A 
ATOM     19  C   UNL     1      -3.948 -11.351  17.010  0.00  0.00    +0.015 A 
ATOM     20  C   UNL     1      -6.321  -9.892  17.159  0.00  0.00    +0.046 A 
ATOM     21  C   UNL     1      -4.708 -11.373  18.180  0.00  0.00    +0.046 A 
ATOM     22  C   UNL     1      -5.894 -10.643  18.255  0.00  0.00    +0.130 A 
BRANCH  22   6
ATOM      6  O   UNL     1      -6.635 -10.665  19.396  0.00  0.00    -0.406 OA
BRANCH   6  23
ATOM      1  F   UNL     1      -8.829 -10.915  19.866  0.00  0.00    -0.133 F 
ATOM      2  F   UNL     1      -7.972 -12.145  18.276  0.00  0.00    -0.133 F 
ATOM      3  F   UNL     1      -7.474 -12.547  20.392  0.00  0.00    -0.133 F 
ATOM     23  C   UNL     1      -7.719 -11.583  19.478  0.00  0.00    +0.575 C 
ENDBRANCH   6  23
ENDBRANCH  22   6
ENDBRANCH  16  17
TORSDOF 5
ENDMDL
MODEL 8
REMARK VINA RESULT:      -6.2     16.364     17.752
REMARK  Name = 26744515
REMARK  6 active torsions:
REMARK  status: ('A' for Active; 'I' for Inactive)
REMARK    1  A    between atoms: O_4  and  C_12
REMARK    2  A    between atoms: O_6  and  C_22
REMARK    3  A    between atoms: O_6  and  C_23
REMARK    4  A    between atoms: N_7  and  C_15
REMARK    5  A    between atoms: C_10  and  C_14
REMARK    6  A    between atoms: C_16  and  C_17
REMARK                            x       y       z     vdW  Elec       q    Type
REMARK                         _______ _______ _______ _____ _____    ______ ____
ROOT
ATOM      5  O   UNL     1       7.598   8.850   2.522  0.00  0.00    -0.336 OA
ATOM      8  N   UNL     1       7.189   9.193   4.697  0.00  0.00    -0.190 NA
ATOM      9  N   UNL     1       8.374   7.913   3.217  0.00  0.00    -0.056 NA
ATOM     14  C   UNL     1       6.933   9.563   3.468  0.00  0.00    +0.245 A 
ATOM     16  C   UNL     1       8.078   8.179   4.493  0.00  0.00    +0.202 A 
ENDROOT
BRANCH  14  10
ATOM      7  N   UNL     1       4.644  10.164   2.694  0.00  0.00    -0.292 NA
ATOM     10  C   UNL     1       6.012  10.654   2.966  0.00  0.00    +0.148 C 
ATOM     11  C   UNL     1       5.826  11.793   3.987  0.00  0.00    +0.061 C 
ATOM     12  C   UNL     1       4.319  11.898   4.190  0.00  0.00    +0.130 C 
ATOM     13  C   UNL     1       3.747  11.296   2.923  0.00  0.00    +0.116 C 
ATOM     15  C   UNL     1       4.491   9.603   1.358  0.00  0.00    +0.105 C 
BRANCH  12   4
ATOM      4  O   UNL     1       3.928  13.247   4.354  0.00  0.00    -0.390 OA
ATOM     24  H   UNL     1       3.053  13.247   4.780  0.00  0.00    +0.210 HD
ENDBRANCH  12   4
ENDBRANCH  14  10
BRANCH  16  17
ATOM     17  C   UNL     1       8.655   7.450   5.586  0.00  0.00    +0.023 A 
ATOM     18  C   UNL     1       8.909   8.094   6.797  0.00  0.00    +0.015 A 
ATOM     19  C   UNL     1       8.962   6.097   5.437  0.00  0.00    +0.015 A 
ATOM     20  C   UNL     1       9.470   7.386   7.859  0.00  0.00    +0.046 A 
ATOM     21  C   UNL     1       9.524   5.389   6.500  0.00  0.00    +0.046 A 
ATOM     22  C   UNL     1       9.778   6.033   7.710  0.00  0.00    +0.130 A 
BRANCH  22   6
ATOM      6  O   UNL     1      10.326   5.341   8.746  0.00  0.00    -0.406 OA
BRANCH   6  23
ATOM      1  F   UNL     1      10.112   4.315  10.746  0.00  0.00    -0.133 F 
ATOM      2  F   UNL     1       8.361   5.325   9.916  0.00  0.00    -0.133 F 
ATOM      3  F   UNL     1       9.088   3.437   9.026  0.00  0.00    -0.133 F 
ATOM     23  C   UNL     1       9.457   4.603   9.598  0.00  0.00    +0.575 C 
ENDBRANCH   6  23
ENDBRANCH  22   6
ENDBRANCH  16  17
TORSDOF 5
ENDMDL
MODEL 9
REMARK VINA RESULT:      -6.1      4.508      9.005
REMARK  Name = 26744515
REMARK  6 active torsions:
REMARK  status: ('A' for Active; 'I' for Inactive)
REMARK    1  A    between atoms: O_4  and  C_12
REMARK    2  A    between atoms: O_6  and  C_22
REMARK    3  A    between atoms: O_6  and  C_23
REMARK    4  A    between atoms: N_7  and  C_15
REMARK    5  A    between atoms: C_10  and  C_14
REMARK    6  A    between atoms: C_16  and  C_17
REMARK                            x       y       z     vdW  Elec       q    Type
REMARK                         _______ _______ _______ _____ _____    ______ ____
ROOT
ATOM      5  O   UNL     1      20.996   6.494  22.817  0.00  0.00    -0.336 OA
ATOM      8  N   UNL     1      20.291   5.551  20.912  0.00  0.00    -0.190 NA
ATOM      9  N   UNL     1      19.751   7.070  22.535  0.00  0.00    -0.056 NA
ATOM     14  C   UNL     1      21.239   5.611  21.813  0.00  0.00    +0.245 A 
ATOM     16  C   UNL     1      19.400   6.463  21.397  0.00  0.00    +0.202 A 
ENDROOT
BRANCH  14  10
ATOM      7  N   UNL     1      22.499   3.742  22.869  0.00  0.00    -0.292 NA
ATOM     10  C   UNL     1      22.542   4.846  21.888  0.00  0.00    +0.148 C 
ATOM     11  C   UNL     1      22.915   4.171  20.553  0.00  0.00    +0.061 C 
ATOM     12  C   UNL     1      23.105   2.699  20.896  0.00  0.00    +0.130 C 
ATOM     13  C   UNL     1      23.418   2.716  22.379  0.00  0.00    +0.116 C 
ATOM     15  C   UNL     1      22.824   4.168  24.225  0.00  0.00    +0.105 C 
BRANCH  12   4
ATOM      4  O   UNL     1      24.163   2.140  20.142  0.00  0.00    -0.390 OA
ATOM     24  H   UNL     1      24.772   2.864  19.913  0.00  0.00    +0.210 HD
ENDBRANCH  12   4
ENDBRANCH  14  10
BRANCH  16  17
ATOM     17  C   UNL     1      18.167   6.746  20.720  0.00  0.00    +0.023 A 
ATOM     18  C   UNL     1      17.412   7.861  21.084  0.00  0.00    +0.015 A 
ATOM     19  C   UNL     1      17.725   5.906  19.698  0.00  0.00    +0.015 A 
ATOM     20  C   UNL     1      16.213   8.135  20.427  0.00  0.00    +0.046 A 
ATOM     21  C   UNL     1      16.525   6.181  19.041  0.00  0.00    +0.046 A 
ATOM     22  C   UNL     1      15.770   7.294  19.405  0.00  0.00    +0.130 A 
BRANCH  22   6
ATOM      6  O   UNL     1      14.600   7.562  18.763  0.00  0.00    -0.406 OA
BRANCH   6  23
ATOM      1  F   UNL     1      12.465   6.842  18.609  0.00  0.00    -0.133 F 
ATOM      2  F   UNL     1      13.547   6.461  20.469  0.00  0.00    -0.133 F 
ATOM      3  F   UNL     1      12.893   8.509  19.957  0.00  0.00    -0.133 F 
ATOM     23  C   UNL     1      13.381   7.350  19.466  0.00  0.00    +0.575 C 
ENDBRANCH   6  23
ENDBRANCH  22   6
ENDBRANCH  16  17
TORSDOF 5
ENDMDL
MODEL 10
REMARK VINA RESULT:      -5.9     27.495     30.513
REMARK  Name = 26744515
REMARK  6 active torsions:
REMARK  status: ('A' for Active; 'I' for Inactive)
REMARK    1  A    between atoms: O_4  and  C_12
REMARK    2  A    between atoms: O_6  and  C_22
REMARK    3  A    between atoms: O_6  and  C_23
REMARK    4  A    between atoms: N_7  and  C_15
REMARK    5  A    between atoms: C_10  and  C_14
REMARK    6  A    between atoms: C_16  and  C_17
REMARK                            x       y       z     vdW  Elec       q    Type
REMARK                         _______ _______ _______ _____ _____    ______ ____
ROOT
ATOM      5  O   UNL     1     -16.813   4.372  21.588  0.00  0.00    -0.336 OA
ATOM      8  N   UNL     1     -15.208   5.334  22.818  0.00  0.00    -0.190 NA
ATOM      9  N   UNL     1     -16.025   5.107  20.694  0.00  0.00    -0.056 NA
ATOM     14  C   UNL     1     -16.263   4.560  22.816  0.00  0.00    +0.245 A 
ATOM     16  C   UNL     1     -15.101   5.646  21.494  0.00  0.00    +0.202 A 
ENDROOT
BRANCH  14  10
ATOM      7  N   UNL     1     -16.719   2.397  23.961  0.00  0.00    -0.292 NA
ATOM     10  C   UNL     1     -16.940   3.858  23.973  0.00  0.00    +0.148 C 
ATOM     11  C   UNL     1     -16.414   4.324  25.344  0.00  0.00    +0.061 C 
ATOM     12  C   UNL     1     -15.960   3.051  26.047  0.00  0.00    +0.130 C 
ATOM     13  C   UNL     1     -16.757   1.961  25.356  0.00  0.00    +0.116 C 
ATOM     15  C   UNL     1     -17.680   1.678  23.135  0.00  0.00    +0.105 C 
BRANCH  12   4
ATOM      4  O   UNL     1     -16.244   3.112  27.431  0.00  0.00    -0.390 OA
ATOM     24  H   UNL     1     -17.081   2.638  27.578  0.00  0.00    +0.210 HD
ENDBRANCH  12   4
ENDBRANCH  14  10
BRANCH  16  17
ATOM     17  C   UNL     1     -14.058   6.499  21.002  0.00  0.00    +0.023 A 
ATOM     18  C   UNL     1     -12.726   6.220  21.307  0.00  0.00    +0.015 A 
ATOM     19  C   UNL     1     -14.377   7.609  20.219  0.00  0.00    +0.015 A 
ATOM     20  C   UNL     1     -11.712   7.051  20.830  0.00  0.00    +0.046 A 
ATOM     21  C   UNL     1     -13.363   8.441  19.742  0.00  0.00    +0.046 A 
ATOM     22  C   UNL     1     -12.032   8.161  20.048  0.00  0.00    +0.130 A 
BRANCH  22   6
ATOM      6  O   UNL     1     -11.043   8.973  19.581  0.00  0.00    -0.406 OA
BRANCH   6  23
ATOM      1  F   UNL     1     -10.783   7.579  17.824  0.00  0.00    -0.133 F 
ATOM      2  F   UNL     1     -11.506   9.605  17.433  0.00  0.00    -0.133 F 
ATOM      3  F   UNL     1      -9.401   9.262  18.014  0.00  0.00    -0.133 F 
ATOM     23  C   UNL     1     -10.679   8.872  18.209  0.00  0.00    +0.575 C 
ENDBRANCH   6  23
ENDBRANCH  22   6
ENDBRANCH  16  17
TORSDOF 5
ENDMDL
