MODEL 1
REMARK VINA RESULT:      -6.4      0.000      0.000
REMARK  Name = 45783390
REMARK  8 active torsions:
REMARK  status: ('A' for Active; 'I' for Inactive)
REMARK    1  A    between atoms: O_2  and  C_27
REMARK    2  A    between atoms: O_2  and  C_28
REMARK    3  A    between atoms: N_3  and  C_13
REMARK    4  A    between atoms: N_7  and  C_24
REMARK    5  A    between atoms: C_9  and  C_14
REMARK    6  A    between atoms: C_13  and  C_15
REMARK    7  A    between atoms: C_16  and  C_19
REMARK    8  A    between atoms: C_24  and  C_27
REMARK                            x       y       z     vdW  Elec       q    Type
REMARK                         _______ _______ _______ _____ _____    ______ ____
ROOT
ATOM      1  O   UNL     1      13.924   6.540  19.802  0.00  0.00    -0.336 OA
ATOM      4  N   UNL     1      15.521   7.958  19.128  0.00  0.00    -0.190 NA
ATOM      5  N   UNL     1      14.945   6.459  20.757  0.00  0.00    -0.056 NA
ATOM     14  C   UNL     1      14.344   7.444  18.879  0.00  0.00    +0.245 A 
ATOM     16  C   UNL     1      15.851   7.324  20.292  0.00  0.00    +0.205 A 
ENDROOT
BRANCH  16  19
ATOM      7  N   UNL     1      16.443   9.843  21.462  0.00  0.00    -0.326 N 
ATOM      8  N   UNL     1      18.561   9.066  22.175  0.00  0.00    -0.240 NA
ATOM     19  C   UNL     1      17.094   7.576  20.961  0.00  0.00    +0.062 A 
ATOM     21  C   UNL     1      17.399   8.798  21.538  0.00  0.00    +0.130 A 
ATOM     23  C   UNL     1      18.042   6.562  21.043  0.00  0.00    +0.016 A 
ATOM     25  C   UNL     1      19.250   6.799  21.691  0.00  0.00    +0.020 A 
ATOM     26  C   UNL     1      19.458   8.056  22.234  0.00  0.00    +0.113 A 
ATOM     29  H   UNL     1      15.479   9.558  21.327  0.00  0.00    +0.148 HD
BRANCH   7  24
ATOM     24  C   UNL     1      16.668  11.133  22.026  0.00  0.00    +0.131 C 
BRANCH  24  27
ATOM     27  C   UNL     1      15.363  11.705  22.555  0.00  0.00    +0.178 C 
BRANCH  27   2
ATOM      2  O   UNL     1      15.276  11.469  23.955  0.00  0.00    -0.381 OA
ATOM     28  C   UNL     1      14.011  11.859  24.470  0.00  0.00    +0.194 C 
ENDBRANCH  27   2
ENDBRANCH  24  27
ENDBRANCH   7  24
ENDBRANCH  16  19
BRANCH  14   9
ATOM      3  N   UNL     1      12.449   8.803  18.012  0.00  0.00    -0.287 NA
ATOM      9  C   UNL     1      13.403   7.715  17.723  0.00  0.00    +0.146 C 
ATOM     10  C   UNL     1      14.141   8.169  16.450  0.00  0.00    +0.030 C 
ATOM     11  C   UNL     1      13.492   9.491  16.064  0.00  0.00    +0.017 C 
ATOM     12  C   UNL     1      12.131   9.426  16.726  0.00  0.00    +0.085 C 
BRANCH   3  13
ATOM     13  C   UNL     1      11.254   8.349  18.711  0.00  0.00    +0.121 C 
BRANCH  13  15
ATOM      6  N   UNL     1      10.661   8.311  22.450  0.00  0.00    -0.263 NA
ATOM     15  C   UNL     1      11.250   8.783  20.153  0.00  0.00    -0.015 A 
ATOM     17  C   UNL     1      11.800  10.001  20.537  0.00  0.00    +0.008 A 
ATOM     18  C   UNL     1      10.697   7.982  21.139  0.00  0.00    +0.115 A 
ATOM     20  C   UNL     1      11.782  10.376  21.876  0.00  0.00    +0.020 A 
ATOM     22  C   UNL     1      11.206   9.503  22.785  0.00  0.00    +0.111 A 
ENDBRANCH  13  15
ENDBRANCH   3  13
ENDBRANCH  14   9
TORSDOF 7
ENDMDL
MODEL 2
REMARK VINA RESULT:      -6.3     15.695     19.620
REMARK  Name = 45783390
REMARK  8 active torsions:
REMARK  status: ('A' for Active; 'I' for Inactive)
REMARK    1  A    between atoms: O_2  and  C_27
REMARK    2  A    between atoms: O_2  and  C_28
REMARK    3  A    between atoms: N_3  and  C_13
REMARK    4  A    between atoms: N_7  and  C_24
REMARK    5  A    between atoms: C_9  and  C_14
REMARK    6  A    between atoms: C_13  and  C_15
REMARK    7  A    between atoms: C_16  and  C_19
REMARK    8  A    between atoms: C_24  and  C_27
REMARK                            x       y       z     vdW  Elec       q    Type
REMARK                         _______ _______ _______ _____ _____    ______ ____
ROOT
ATOM      1  O   UNL     1      11.587   3.034   2.606  0.00  0.00    -0.336 OA
ATOM      4  N   UNL     1      12.011   5.200   2.220  0.00  0.00    -0.190 NA
ATOM      5  N   UNL     1      10.624   3.754   3.324  0.00  0.00    -0.056 NA
ATOM     14  C   UNL     1      12.362   3.961   1.985  0.00  0.00    +0.245 A 
ATOM     16  C   UNL     1      10.939   5.023   3.047  0.00  0.00    +0.205 A 
ENDROOT
BRANCH  16  19
ATOM      7  N   UNL     1      10.925   5.624   5.823  0.00  0.00    -0.326 N 
ATOM      8  N   UNL     1       9.507   7.483   5.459  0.00  0.00    -0.240 NA
ATOM     19  C   UNL     1      10.206   6.135   3.578  0.00  0.00    +0.062 A 
ATOM     21  C   UNL     1      10.188   6.443   4.929  0.00  0.00    +0.130 A 
ATOM     23  C   UNL     1       9.479   6.947   2.715  0.00  0.00    +0.016 A 
ATOM     25  C   UNL     1       8.765   8.028   3.223  0.00  0.00    +0.020 A 
ATOM     26  C   UNL     1       8.811   8.250   4.589  0.00  0.00    +0.113 A 
ATOM     29  H   UNL     1      11.694   5.100   5.418  0.00  0.00    +0.148 HD
BRANCH   7  24
ATOM     24  C   UNL     1      10.966   5.863   7.228  0.00  0.00    +0.131 C 
BRANCH  24  27
ATOM     27  C   UNL     1      10.022   4.913   7.945  0.00  0.00    +0.178 C 
BRANCH  27   2
ATOM      2  O   UNL     1      10.170   5.070   9.351  0.00  0.00    -0.381 OA
ATOM     28  C   UNL     1       9.113   4.438  10.059  0.00  0.00    +0.194 C 
ENDBRANCH  27   2
ENDBRANCH  24  27
ENDBRANCH   7  24
ENDBRANCH  16  19
BRANCH  14   9
ATOM      3  N   UNL     1      13.427   3.910  -0.264  0.00  0.00    -0.287 NA
ATOM      9  C   UNL     1      13.495   3.430   1.130  0.00  0.00    +0.146 C 
ATOM     10  C   UNL     1      14.880   3.880   1.632  0.00  0.00    +0.030 C 
ATOM     11  C   UNL     1      15.539   4.548   0.434  0.00  0.00    +0.017 C 
ATOM     12  C   UNL     1      14.806   3.957  -0.753  0.00  0.00    +0.085 C 
BRANCH   3  13
ATOM     13  C   UNL     1      12.572   3.091  -1.113  0.00  0.00    +0.121 C 
BRANCH  13  15
ATOM      6  N   UNL     1       9.440   3.945  -3.062  0.00  0.00    -0.263 NA
ATOM     15  C   UNL     1      11.407   3.875  -1.658  0.00  0.00    -0.015 A 
ATOM     17  C   UNL     1      11.204   5.202  -1.295  0.00  0.00    +0.008 A 
ATOM     18  C   UNL     1      10.505   3.298  -2.537  0.00  0.00    +0.115 A 
ATOM     20  C   UNL     1      10.120   5.901  -1.814  0.00  0.00    +0.020 A 
ATOM     22  C   UNL     1       9.275   5.234  -2.685  0.00  0.00    +0.111 A 
ENDBRANCH  13  15
ENDBRANCH   3  13
ENDBRANCH  14   9
TORSDOF 7
ENDMDL
MODEL 3
REMARK VINA RESULT:      -6.2     25.923     29.005
REMARK  Name = 45783390
REMARK  8 active torsions:
REMARK  status: ('A' for Active; 'I' for Inactive)
REMARK    1  A    between atoms: O_2  and  C_27
REMARK    2  A    between atoms: O_2  and  C_28
REMARK    3  A    between atoms: N_3  and  C_13
REMARK    4  A    between atoms: N_7  and  C_24
REMARK    5  A    between atoms: C_9  and  C_14
REMARK    6  A    between atoms: C_13  and  C_15
REMARK    7  A    between atoms: C_16  and  C_19
REMARK    8  A    between atoms: C_24  and  C_27
REMARK                            x       y       z     vdW  Elec       q    Type
REMARK                         _______ _______ _______ _____ _____    ______ ____
ROOT
ATOM      1  O   UNL     1      -5.256  -9.628  15.704  0.00  0.00    -0.336 OA
ATOM      4  N   UNL     1      -5.474 -11.436  17.010  0.00  0.00    -0.190 NA
ATOM      5  N   UNL     1      -6.464  -9.468  16.394  0.00  0.00    -0.056 NA
ATOM     14  C   UNL     1      -4.738 -10.812  16.125  0.00  0.00    +0.245 A 
ATOM     16  C   UNL     1      -6.523 -10.572  17.143  0.00  0.00    +0.205 A 
ENDROOT
BRANCH  16  19
ATOM      7  N   UNL     1      -8.782  -8.859  17.320  0.00  0.00    -0.326 N 
ATOM      8  N   UNL     1      -9.765 -10.250  18.963  0.00  0.00    -0.240 NA
ATOM     19  C   UNL     1      -7.614 -10.844  18.034  0.00  0.00    +0.062 A 
ATOM     21  C   UNL     1      -8.723 -10.020  18.133  0.00  0.00    +0.130 A 
ATOM     23  C   UNL     1      -7.571 -11.978  18.838  0.00  0.00    +0.016 A 
ATOM     25  C   UNL     1      -8.624 -12.249  19.705  0.00  0.00    +0.020 A 
ATOM     26  C   UNL     1      -9.688 -11.362  19.729  0.00  0.00    +0.113 A 
ATOM     29  H   UNL     1      -8.219  -8.876  16.476  0.00  0.00    +0.148 HD
BRANCH   7  24
ATOM     24  C   UNL     1      -9.883  -7.953  17.353  0.00  0.00    +0.131 C 
BRANCH  24  27
ATOM     27  C   UNL     1     -10.088  -7.336  15.980  0.00  0.00    +0.178 C 
BRANCH  27   2
ATOM      2  O   UNL     1     -10.784  -6.102  16.115  0.00  0.00    -0.381 OA
ATOM     28  C   UNL     1     -12.177  -6.262  15.886  0.00  0.00    +0.194 C 
ENDBRANCH  27   2
ENDBRANCH  24  27
ENDBRANCH   7  24
ENDBRANCH  16  19
BRANCH  14   9
ATOM      3  N   UNL     1      -3.141 -10.546  14.236  0.00  0.00    -0.287 NA
ATOM      9  C   UNL     1      -3.412 -11.222  15.519  0.00  0.00    +0.146 C 
ATOM     10  C   UNL     1      -2.212 -10.860  16.413  0.00  0.00    +0.030 C 
ATOM     11  C   UNL     1      -1.293 -10.030  15.528  0.00  0.00    +0.017 C 
ATOM     12  C   UNL     1      -1.686 -10.439  14.123  0.00  0.00    +0.085 C 
BRANCH   3  13
ATOM     13  C   UNL     1      -3.730 -11.228  13.090  0.00  0.00    +0.121 C 
BRANCH  13  15
ATOM      6  N   UNL     1      -5.686  -8.683  11.083  0.00  0.00    -0.263 NA
ATOM     15  C   UNL     1      -4.101 -10.264  11.994  0.00  0.00    -0.015 A 
ATOM     17  C   UNL     1      -3.256 -10.052  10.910  0.00  0.00    +0.008 A 
ATOM     18  C   UNL     1      -5.294  -9.561  12.033  0.00  0.00    +0.115 A 
ATOM     20  C   UNL     1      -3.624  -9.156   9.913  0.00  0.00    +0.020 A 
ATOM     22  C   UNL     1      -4.838  -8.503  10.044  0.00  0.00    +0.111 A 
ENDBRANCH  13  15
ENDBRANCH   3  13
ENDBRANCH  14   9
TORSDOF 7
ENDMDL
MODEL 4
REMARK VINA RESULT:      -6.2      1.678      5.272
REMARK  Name = 45783390
REMARK  8 active torsions:
REMARK  status: ('A' for Active; 'I' for Inactive)
REMARK    1  A    between atoms: O_2  and  C_27
REMARK    2  A    between atoms: O_2  and  C_28
REMARK    3  A    between atoms: N_3  and  C_13
REMARK    4  A    between atoms: N_7  and  C_24
REMARK    5  A    between atoms: C_9  and  C_14
REMARK    6  A    between atoms: C_13  and  C_15
REMARK    7  A    between atoms: C_16  and  C_19
REMARK    8  A    between atoms: C_24  and  C_27
REMARK                            x       y       z     vdW  Elec       q    Type
REMARK                         _______ _______ _______ _____ _____    ______ ____
ROOT
ATOM      1  O   UNL     1      15.351  12.014  21.147  0.00  0.00    -0.336 OA
ATOM      4  N   UNL     1      14.982  10.050  22.159  0.00  0.00    -0.190 NA
ATOM      5  N   UNL     1      16.102  11.064  20.442  0.00  0.00    -0.056 NA
ATOM     14  C   UNL     1      14.723  11.332  22.141  0.00  0.00    +0.245 A 
ATOM     16  C   UNL     1      15.832   9.932  21.097  0.00  0.00    +0.205 A 
ENDROOT
BRANCH  16  19
ATOM      7  N   UNL     1      14.709   8.344  19.027  0.00  0.00    -0.326 N 
ATOM      8  N   UNL     1      16.369   6.686  19.336  0.00  0.00    -0.240 NA
ATOM     19  C   UNL     1      16.395   8.668  20.720  0.00  0.00    +0.062 A 
ATOM     21  C   UNL     1      15.861   7.881  19.713  0.00  0.00    +0.130 A 
ATOM     23  C   UNL     1      17.524   8.200  21.383  0.00  0.00    +0.016 A 
ATOM     25  C   UNL     1      18.076   6.975  21.023  0.00  0.00    +0.020 A 
ATOM     26  C   UNL     1      17.466   6.264  20.003  0.00  0.00    +0.113 A 
ATOM     29  H   UNL     1      14.552   9.347  19.043  0.00  0.00    +0.148 HD
BRANCH   7  24
ATOM     24  C   UNL     1      14.089   7.604  17.977  0.00  0.00    +0.131 C 
BRANCH  24  27
ATOM     27  C   UNL     1      13.366   8.548  17.032  0.00  0.00    +0.178 C 
BRANCH  27   2
ATOM      2  O   UNL     1      14.181   8.794  15.893  0.00  0.00    -0.381 OA
ATOM     28  C   UNL     1      14.266  10.182  15.603  0.00  0.00    +0.194 C 
ENDBRANCH  27   2
ENDBRANCH  24  27
ENDBRANCH   7  24
ENDBRANCH  16  19
BRANCH  14   9
ATOM      3  N   UNL     1      12.682  11.375  23.563  0.00  0.00    -0.287 NA
ATOM      9  C   UNL     1      13.835  12.146  23.059  0.00  0.00    +0.146 C 
ATOM     10  C   UNL     1      14.569  12.625  24.325  0.00  0.00    +0.030 C 
ATOM     11  C   UNL     1      13.723  12.128  25.488  0.00  0.00    +0.017 C 
ATOM     12  C   UNL     1      12.351  11.935  24.874  0.00  0.00    +0.085 C 
BRANCH   3  13
ATOM     13  C   UNL     1      11.541  11.388  22.658  0.00  0.00    +0.121 C 
BRANCH  13  15
ATOM      6  N   UNL     1      10.461   7.767  22.411  0.00  0.00    -0.263 NA
ATOM     15  C   UNL     1      11.266  10.023  22.083  0.00  0.00    -0.015 A 
ATOM     17  C   UNL     1      11.544   9.738  20.750  0.00  0.00    +0.008 A 
ATOM     18  C   UNL     1      10.731   9.012  22.864  0.00  0.00    +0.115 A 
ATOM     20  C   UNL     1      11.281   8.469  20.247  0.00  0.00    +0.020 A 
ATOM     22  C   UNL     1      10.745   7.528  21.110  0.00  0.00    +0.111 A 
ENDBRANCH  13  15
ENDBRANCH   3  13
ENDBRANCH  14   9
TORSDOF 7
ENDMDL
MODEL 5
REMARK VINA RESULT:      -6.0      3.744      7.430
REMARK  Name = 45783390
REMARK  8 active torsions:
REMARK  status: ('A' for Active; 'I' for Inactive)
REMARK    1  A    between atoms: O_2  and  C_27
REMARK    2  A    between atoms: O_2  and  C_28
REMARK    3  A    between atoms: N_3  and  C_13
REMARK    4  A    between atoms: N_7  and  C_24
REMARK    5  A    between atoms: C_9  and  C_14
REMARK    6  A    between atoms: C_13  and  C_15
REMARK    7  A    between atoms: C_16  and  C_19
REMARK    8  A    between atoms: C_24  and  C_27
REMARK                            x       y       z     vdW  Elec       q    Type
REMARK                         _______ _______ _______ _____ _____    ______ ____
ROOT
ATOM      1  O   UNL     1      13.621   8.153  16.035  0.00  0.00    -0.336 OA
ATOM      4  N   UNL     1      13.509  10.065  17.197  0.00  0.00    -0.190 NA
ATOM      5  N   UNL     1      14.235   9.130  15.240  0.00  0.00    -0.056 NA
ATOM     14  C   UNL     1      13.223   8.789  17.168  0.00  0.00    +0.245 A 
ATOM     16  C   UNL     1      14.130  10.229  15.992  0.00  0.00    +0.205 A 
ENDROOT
BRANCH  16  19
ATOM      7  N   UNL     1      12.836  11.766  13.985  0.00  0.00    -0.326 N 
ATOM      8  N   UNL     1      14.465  13.472  14.176  0.00  0.00    -0.240 NA
ATOM     19  C   UNL     1      14.633  11.504  15.571  0.00  0.00    +0.062 A 
ATOM     21  C   UNL     1      14.015  12.267  14.594  0.00  0.00    +0.130 A 
ATOM     23  C   UNL     1      15.788  12.009  16.159  0.00  0.00    +0.016 A 
ATOM     25  C   UNL     1      16.282  13.245  15.756  0.00  0.00    +0.020 A 
ATOM     26  C   UNL     1      15.590  13.930  14.770  0.00  0.00    +0.113 A 
ATOM     29  H   UNL     1      12.312  11.082  14.521  0.00  0.00    +0.148 HD
BRANCH   7  24
ATOM     24  C   UNL     1      12.131  12.480  12.972  0.00  0.00    +0.131 C 
BRANCH  24  27
ATOM     27  C   UNL     1      10.703  11.970  12.874  0.00  0.00    +0.178 C 
BRANCH  27   2
ATOM      2  O   UNL     1      10.085  12.514  11.715  0.00  0.00    -0.381 OA
ATOM     28  C   UNL     1      10.274  11.677  10.583  0.00  0.00    +0.194 C 
ENDBRANCH  27   2
ENDBRANCH  24  27
ENDBRANCH   7  24
ENDBRANCH  16  19
BRANCH  14   9
ATOM      3  N   UNL     1      13.252   7.891  19.489  0.00  0.00    -0.287 NA
ATOM      9  C   UNL     1      12.522   7.938  18.207  0.00  0.00    +0.146 C 
ATOM     10  C   UNL     1      11.125   8.476  18.571  0.00  0.00    +0.030 C 
ATOM     11  C   UNL     1      11.145   8.643  20.084  0.00  0.00    +0.017 C 
ATOM     12  C   UNL     1      12.243   7.700  20.533  0.00  0.00    +0.085 C 
BRANCH   3  13
ATOM     13  C   UNL     1      14.281   6.861  19.527  0.00  0.00    +0.121 C 
BRANCH  13  15
ATOM      6  N   UNL     1      16.920   9.282  20.757  0.00  0.00    -0.263 NA
ATOM     15  C   UNL     1      15.579   7.387  20.084  0.00  0.00    -0.015 A 
ATOM     17  C   UNL     1      16.612   6.523  20.431  0.00  0.00    +0.008 A 
ATOM     18  C   UNL     1      15.781   8.745  20.264  0.00  0.00    +0.115 A 
ATOM     20  C   UNL     1      17.798   7.037  20.941  0.00  0.00    +0.020 A 
ATOM     22  C   UNL     1      17.902   8.411  21.084  0.00  0.00    +0.111 A 
ENDBRANCH  13  15
ENDBRANCH   3  13
ENDBRANCH  14   9
TORSDOF 7
ENDMDL
MODEL 6
REMARK VINA RESULT:      -6.0      2.026      3.787
REMARK  Name = 45783390
REMARK  8 active torsions:
REMARK  status: ('A' for Active; 'I' for Inactive)
REMARK    1  A    between atoms: O_2  and  C_27
REMARK    2  A    between atoms: O_2  and  C_28
REMARK    3  A    between atoms: N_3  and  C_13
REMARK    4  A    between atoms: N_7  and  C_24
REMARK    5  A    between atoms: C_9  and  C_14
REMARK    6  A    between atoms: C_13  and  C_15
REMARK    7  A    between atoms: C_16  and  C_19
REMARK    8  A    between atoms: C_24  and  C_27
REMARK                            x       y       z     vdW  Elec       q    Type
REMARK                         _______ _______ _______ _____ _____    ______ ____
ROOT
ATOM      1  O   UNL     1      14.391   6.696  19.791  0.00  0.00    -0.336 OA
ATOM      4  N   UNL     1      15.598   7.887  21.255  0.00  0.00    -0.190 NA
ATOM      5  N   UNL     1      15.722   6.299  19.614  0.00  0.00    -0.056 NA
ATOM     14  C   UNL     1      14.407   7.633  20.775  0.00  0.00    +0.245 A 
ATOM     16  C   UNL     1      16.373   7.044  20.512  0.00  0.00    +0.205 A 
ENDROOT
BRANCH  16  19
ATOM      7  N   UNL     1      17.845   9.158  21.709  0.00  0.00    -0.326 N 
ATOM      8  N   UNL     1      19.867   7.956  21.454  0.00  0.00    -0.240 NA
ATOM     19  C   UNL     1      17.794   6.973  20.691  0.00  0.00    +0.062 A 
ATOM     21  C   UNL     1      18.527   7.994  21.273  0.00  0.00    +0.130 A 
ATOM     23  C   UNL     1      18.478   5.839  20.268  0.00  0.00    +0.016 A 
ATOM     25  C   UNL     1      19.857   5.762  20.438  0.00  0.00    +0.020 A 
ATOM     26  C   UNL     1      20.497   6.838  21.031  0.00  0.00    +0.113 A 
ATOM     29  H   UNL     1      16.856   9.048  21.909  0.00  0.00    +0.148 HD
BRANCH   7  24
ATOM     24  C   UNL     1      18.514  10.260  22.319  0.00  0.00    +0.131 C 
BRANCH  24  27
ATOM     27  C   UNL     1      18.065  11.562  21.678  0.00  0.00    +0.178 C 
BRANCH  27   2
ATOM      2  O   UNL     1      18.269  11.491  20.272  0.00  0.00    -0.381 OA
ATOM     28  C   UNL     1      17.197  12.093  19.560  0.00  0.00    +0.194 C 
ENDBRANCH  27   2
ENDBRANCH  24  27
ENDBRANCH   7  24
ENDBRANCH  16  19
BRANCH  14   9
ATOM      3  N   UNL     1      12.230   8.546  19.989  0.00  0.00    -0.287 NA
ATOM      9  C   UNL     1      13.069   8.229  21.161  0.00  0.00    +0.146 C 
ATOM     10  C   UNL     1      12.213   7.270  22.008  0.00  0.00    +0.030 C 
ATOM     11  C   UNL     1      10.889   7.156  21.264  0.00  0.00    +0.017 C 
ATOM     12  C   UNL     1      10.840   8.419  20.429  0.00  0.00    +0.085 C 
BRANCH   3  13
ATOM     13  C   UNL     1      12.507   9.859  19.421  0.00  0.00    +0.121 C 
BRANCH  13  15
ATOM      6  N   UNL     1      13.385   8.564  15.973  0.00  0.00    -0.263 NA
ATOM     15  C   UNL     1      13.150   9.757  18.062  0.00  0.00    -0.015 A 
ATOM     17  C   UNL     1      14.070  10.706  17.632  0.00  0.00    +0.008 A 
ATOM     18  C   UNL     1      12.844   8.714  17.203  0.00  0.00    +0.115 A 
ATOM     20  C   UNL     1      14.648  10.586  16.374  0.00  0.00    +0.020 A 
ATOM     22  C   UNL     1      14.276   9.507  15.589  0.00  0.00    +0.111 A 
ENDBRANCH  13  15
ENDBRANCH   3  13
ENDBRANCH  14   9
TORSDOF 7
ENDMDL
MODEL 7
REMARK VINA RESULT:      -5.8      2.327      5.349
REMARK  Name = 45783390
REMARK  8 active torsions:
REMARK  status: ('A' for Active; 'I' for Inactive)
REMARK    1  A    between atoms: O_2  and  C_27
REMARK    2  A    between atoms: O_2  and  C_28
REMARK    3  A    between atoms: N_3  and  C_13
REMARK    4  A    between atoms: N_7  and  C_24
REMARK    5  A    between atoms: C_9  and  C_14
REMARK    6  A    between atoms: C_13  and  C_15
REMARK    7  A    between atoms: C_16  and  C_19
REMARK    8  A    between atoms: C_24  and  C_27
REMARK                            x       y       z     vdW  Elec       q    Type
REMARK                         _______ _______ _______ _____ _____    ______ ____
ROOT
ATOM      1  O   UNL     1      16.518  11.666  21.833  0.00  0.00    -0.336 OA
ATOM      4  N   UNL     1      15.212   9.855  22.014  0.00  0.00    -0.190 NA
ATOM      5  N   UNL     1      17.098  10.684  21.020  0.00  0.00    -0.056 NA
ATOM     14  C   UNL     1      15.413  11.095  22.381  0.00  0.00    +0.245 A 
ATOM     16  C   UNL     1      16.271   9.647  21.178  0.00  0.00    +0.205 A 
ENDROOT
BRANCH  16  19
ATOM      7  N   UNL     1      18.633   8.115  21.558  0.00  0.00    -0.326 N 
ATOM      8  N   UNL     1      17.839   6.442  20.084  0.00  0.00    -0.240 NA
ATOM     19  C   UNL     1      16.475   8.390  20.519  0.00  0.00    +0.062 A 
ATOM     21  C   UNL     1      17.620   7.630  20.692  0.00  0.00    +0.130 A 
ATOM     23  C   UNL     1      15.491   7.900  19.667  0.00  0.00    +0.016 A 
ATOM     25  C   UNL     1      15.680   6.681  19.023  0.00  0.00    +0.020 A 
ATOM     26  C   UNL     1      16.861   5.999  19.264  0.00  0.00    +0.113 A 
ATOM     29  H   UNL     1      18.336   8.778  22.266  0.00  0.00    +0.148 HD
BRANCH   7  24
ATOM     24  C   UNL     1      19.844   7.403  21.799  0.00  0.00    +0.131 C 
BRANCH  24  27
ATOM     27  C   UNL     1      20.148   7.382  23.288  0.00  0.00    +0.178 C 
BRANCH  27   2
ATOM      2  O   UNL     1      20.632   6.095  23.654  0.00  0.00    -0.381 OA
ATOM     28  C   UNL     1      21.925   5.854  23.119  0.00  0.00    +0.194 C 
ENDBRANCH  27   2
ENDBRANCH  24  27
ENDBRANCH   7  24
ENDBRANCH  16  19
BRANCH  14   9
ATOM      3  N   UNL     1      13.302  11.353  23.673  0.00  0.00    -0.287 NA
ATOM      9  C   UNL     1      14.597  11.964  23.315  0.00  0.00    +0.146 C 
ATOM     10  C   UNL     1      15.299  12.212  24.663  0.00  0.00    +0.030 C 
ATOM     11  C   UNL     1      14.299  11.765  25.720  0.00  0.00    +0.017 C 
ATOM     12  C   UNL     1      12.965  11.850  25.008  0.00  0.00    +0.085 C 
BRANCH   3  13
ATOM     13  C   UNL     1      12.249  11.627  22.705  0.00  0.00    +0.121 C 
BRANCH  13  15
ATOM      6  N   UNL     1      10.555   8.261  22.327  0.00  0.00    -0.263 NA
ATOM     15  C   UNL     1      11.724  10.362  22.075  0.00  0.00    -0.015 A 
ATOM     17  C   UNL     1      11.903  10.109  20.720  0.00  0.00    +0.008 A 
ATOM     18  C   UNL     1      11.050   9.415  22.829  0.00  0.00    +0.115 A 
ATOM     20  C   UNL     1      11.408   8.933  20.167  0.00  0.00    +0.020 A 
ATOM     22  C   UNL     1      10.748   8.050  21.005  0.00  0.00    +0.111 A 
ENDBRANCH  13  15
ENDBRANCH   3  13
ENDBRANCH  14   9
TORSDOF 7
ENDMDL
MODEL 8
REMARK VINA RESULT:      -5.7     15.727     19.619
REMARK  Name = 45783390
REMARK  8 active torsions:
REMARK  status: ('A' for Active; 'I' for Inactive)
REMARK    1  A    between atoms: O_2  and  C_27
REMARK    2  A    between atoms: O_2  and  C_28
REMARK    3  A    between atoms: N_3  and  C_13
REMARK    4  A    between atoms: N_7  and  C_24
REMARK    5  A    between atoms: C_9  and  C_14
REMARK    6  A    between atoms: C_13  and  C_15
REMARK    7  A    between atoms: C_16  and  C_19
REMARK    8  A    between atoms: C_24  and  C_27
REMARK                            x       y       z     vdW  Elec       q    Type
REMARK                         _______ _______ _______ _____ _____    ______ ____
ROOT
ATOM      1  O   UNL     1      11.465   3.209   2.509  0.00  0.00    -0.336 OA
ATOM      4  N   UNL     1      12.237   5.312   2.507  0.00  0.00    -0.190 NA
ATOM      5  N   UNL     1      10.575   3.952   3.295  0.00  0.00    -0.056 NA
ATOM     14  C   UNL     1      12.412   4.086   2.084  0.00  0.00    +0.245 A 
ATOM     16  C   UNL     1      11.096   5.182   3.245  0.00  0.00    +0.205 A 
ENDROOT
BRANCH  16  19
ATOM      7  N   UNL     1      12.281   6.338   5.554  0.00  0.00    -0.326 N 
ATOM      8  N   UNL     1      10.535   7.929   5.708  0.00  0.00    -0.240 NA
ATOM     19  C   UNL     1      10.505   6.299   3.922  0.00  0.00    +0.062 A 
ATOM     21  C   UNL     1      11.069   6.876   5.049  0.00  0.00    +0.130 A 
ATOM     23  C   UNL     1       9.317   6.838   3.440  0.00  0.00    +0.016 A 
ATOM     25  C   UNL     1       8.738   7.921   4.091  0.00  0.00    +0.020 A 
ATOM     26  C   UNL     1       9.380   8.425   5.210  0.00  0.00    +0.113 A 
ATOM     29  H   UNL     1      12.851   5.823   4.891  0.00  0.00    +0.148 HD
BRANCH   7  24
ATOM     24  C   UNL     1      12.934   6.865   6.706  0.00  0.00    +0.131 C 
BRANCH  24  27
ATOM     27  C   UNL     1      14.043   7.816   6.286  0.00  0.00    +0.178 C 
BRANCH  27   2
ATOM      2  O   UNL     1      14.333   7.624   4.907  0.00  0.00    -0.381 OA
ATOM     28  C   UNL     1      15.707   7.328   4.701  0.00  0.00    +0.194 C 
ENDBRANCH  27   2
ENDBRANCH  24  27
ENDBRANCH   7  24
ENDBRANCH  16  19
BRANCH  14   9
ATOM      3  N   UNL     1      13.358   3.917  -0.211  0.00  0.00    -0.287 NA
ATOM      9  C   UNL     1      13.507   3.521   1.203  0.00  0.00    +0.146 C 
ATOM     10  C   UNL     1      14.909   4.019   1.604  0.00  0.00    +0.030 C 
ATOM     11  C   UNL     1      15.493   4.625   0.335  0.00  0.00    +0.017 C 
ATOM     12  C   UNL     1      14.709   3.954  -0.774  0.00  0.00    +0.085 C 
BRANCH   3  13
ATOM     13  C   UNL     1      12.475   3.037  -0.964  0.00  0.00    +0.121 C 
BRANCH  13  15
ATOM      6  N   UNL     1       9.660   4.031  -3.294  0.00  0.00    -0.263 NA
ATOM     15  C   UNL     1      11.291   3.780  -1.527  0.00  0.00    -0.015 A 
ATOM     17  C   UNL     1      10.738   4.862  -0.852  0.00  0.00    +0.008 A 
ATOM     18  C   UNL     1      10.721   3.408  -2.733  0.00  0.00    +0.115 A 
ATOM     20  C   UNL     1       9.646   5.529  -1.396  0.00  0.00    +0.020 A 
ATOM     22  C   UNL     1       9.149   5.079  -2.608  0.00  0.00    +0.111 A 
ENDBRANCH  13  15
ENDBRANCH   3  13
ENDBRANCH  14   9
TORSDOF 7
ENDMDL
MODEL 9
REMARK VINA RESULT:      -5.7     27.660     29.031
REMARK  Name = 45783390
REMARK  8 active torsions:
REMARK  status: ('A' for Active; 'I' for Inactive)
REMARK    1  A    between atoms: O_2  and  C_27
REMARK    2  A    between atoms: O_2  and  C_28
REMARK    3  A    between atoms: N_3  and  C_13
REMARK    4  A    between atoms: N_7  and  C_24
REMARK    5  A    between atoms: C_9  and  C_14
REMARK    6  A    between atoms: C_13  and  C_15
REMARK    7  A    between atoms: C_16  and  C_19
REMARK    8  A    between atoms: C_24  and  C_27
REMARK                            x       y       z     vdW  Elec       q    Type
REMARK                         _______ _______ _______ _____ _____    ______ ____
ROOT
ATOM      1  O   UNL     1      -7.512  -9.923  12.031  0.00  0.00    -0.336 OA
ATOM      4  N   UNL     1      -5.537  -9.320  12.900  0.00  0.00    -0.190 NA
ATOM      5  N   UNL     1      -7.544 -10.309  13.377  0.00  0.00    -0.056 NA
ATOM     14  C   UNL     1      -6.296  -9.349  11.834  0.00  0.00    +0.245 A 
ATOM     16  C   UNL     1      -6.346  -9.920  13.822  0.00  0.00    +0.205 A 
ENDROOT
BRANCH  16  19
ATOM      7  N   UNL     1      -7.978  -9.176  16.024  0.00  0.00    -0.326 N 
ATOM      8  N   UNL     1      -6.338  -9.932  17.554  0.00  0.00    -0.240 NA
ATOM     19  C   UNL     1      -5.925 -10.116  15.179  0.00  0.00    +0.062 A 
ATOM     21  C   UNL     1      -6.708  -9.760  16.265  0.00  0.00    +0.130 A 
ATOM     23  C   UNL     1      -4.682 -10.687  15.431  0.00  0.00    +0.016 A 
ATOM     25  C   UNL     1      -4.267 -10.881  16.744  0.00  0.00    +0.020 A 
ATOM     26  C   UNL     1      -5.124 -10.489  17.760  0.00  0.00    +0.113 A 
ATOM     29  H   UNL     1      -8.398  -9.375  15.123  0.00  0.00    +0.148 HD
BRANCH   7  24
ATOM     24  C   UNL     1      -8.853  -8.778  17.078  0.00  0.00    +0.131 C 
BRANCH  24  27
ATOM     27  C   UNL     1     -10.235  -8.479  16.521  0.00  0.00    +0.178 C 
BRANCH  27   2
ATOM      2  O   UNL     1     -10.577  -7.128  16.804  0.00  0.00    -0.381 OA
ATOM     28  C   UNL     1     -10.537  -6.325  15.633  0.00  0.00    +0.194 C 
ENDBRANCH  27   2
ENDBRANCH  24  27
ENDBRANCH   7  24
ENDBRANCH  16  19
BRANCH  14   9
ATOM      3  N   UNL     1      -5.222  -9.796   9.634  0.00  0.00    -0.287 NA
ATOM      9  C   UNL     1      -6.008  -8.839  10.437  0.00  0.00    +0.146 C 
ATOM     10  C   UNL     1      -7.289  -8.599   9.617  0.00  0.00    +0.030 C 
ATOM     11  C   UNL     1      -7.105  -9.413   8.344  0.00  0.00    +0.017 C 
ATOM     12  C   UNL     1      -5.602  -9.575   8.238  0.00  0.00    +0.085 C 
BRANCH   3  13
ATOM     13  C   UNL     1      -3.785  -9.673   9.837  0.00  0.00    +0.121 C 
BRANCH  13  15
ATOM      6  N   UNL     1      -3.225 -13.038  11.480  0.00  0.00    -0.263 NA
ATOM     15  C   UNL     1      -3.260 -10.724  10.779  0.00  0.00    -0.015 A 
ATOM     17  C   UNL     1      -2.361 -10.397  11.788  0.00  0.00    +0.008 A 
ATOM     18  C   UNL     1      -3.657 -12.046  10.668  0.00  0.00    +0.115 A 
ATOM     20  C   UNL     1      -1.894 -11.389  12.644  0.00  0.00    +0.020 A 
ATOM     22  C   UNL     1      -2.352 -12.681  12.450  0.00  0.00    +0.111 A 
ENDBRANCH  13  15
ENDBRANCH   3  13
ENDBRANCH  14   9
TORSDOF 7
ENDMDL
MODEL 10
REMARK VINA RESULT:      -5.6      2.292      7.651
REMARK  Name = 45783390
REMARK  8 active torsions:
REMARK  status: ('A' for Active; 'I' for Inactive)
REMARK    1  A    between atoms: O_2  and  C_27
REMARK    2  A    between atoms: O_2  and  C_28
REMARK    3  A    between atoms: N_3  and  C_13
REMARK    4  A    between atoms: N_7  and  C_24
REMARK    5  A    between atoms: C_9  and  C_14
REMARK    6  A    between atoms: C_13  and  C_15
REMARK    7  A    between atoms: C_16  and  C_19
REMARK    8  A    between atoms: C_24  and  C_27
REMARK                            x       y       z     vdW  Elec       q    Type
REMARK                         _______ _______ _______ _____ _____    ______ ____
ROOT
ATOM      1  O   UNL     1      17.075   7.965  20.288  0.00  0.00    -0.336 OA
ATOM      4  N   UNL     1      15.652   9.148  21.550  0.00  0.00    -0.190 NA
ATOM      5  N   UNL     1      15.789   7.550  19.920  0.00  0.00    -0.056 NA
ATOM     14  C   UNL     1      16.903   8.907  21.252  0.00  0.00    +0.245 A 
ATOM     16  C   UNL     1      15.005   8.292  20.706  0.00  0.00    +0.205 A 
ENDROOT
BRANCH  16  19
ATOM      7  N   UNL     1      13.522   8.713  18.321  0.00  0.00    -0.326 N 
ATOM      8  N   UNL     1      11.486   8.327  19.463  0.00  0.00    -0.240 NA
ATOM     19  C   UNL     1      13.574   8.202  20.676  0.00  0.00    +0.062 A 
ATOM     21  C   UNL     1      12.835   8.405  19.522  0.00  0.00    +0.130 A 
ATOM     23  C   UNL     1      12.885   7.901  21.846  0.00  0.00    +0.016 A 
ATOM     25  C   UNL     1      11.497   7.812  21.826  0.00  0.00    +0.020 A 
ATOM     26  C   UNL     1      10.852   8.032  20.620  0.00  0.00    +0.113 A 
ATOM     29  H   UNL     1      14.493   8.421  18.273  0.00  0.00    +0.148 HD
BRANCH   7  24
ATOM     24  C   UNL     1      12.847   8.937  17.085  0.00  0.00    +0.131 C 
BRANCH  24  27
ATOM     27  C   UNL     1      13.829   8.828  15.929  0.00  0.00    +0.178 C 
BRANCH  27   2
ATOM      2  O   UNL     1      14.627  10.004  15.875  0.00  0.00    -0.381 OA
ATOM     28  C   UNL     1      13.926  11.081  15.269  0.00  0.00    +0.194 C 
ENDBRANCH  27   2
ENDBRANCH  24  27
ENDBRANCH   7  24
ENDBRANCH  16  19
BRANCH  14   9
ATOM      3  N   UNL     1      19.359   8.694  21.588  0.00  0.00    -0.287 NA
ATOM      9  C   UNL     1      18.163   9.524  21.825  0.00  0.00    +0.146 C 
ATOM     10  C   UNL     1      18.499  10.887  21.191  0.00  0.00    +0.030 C 
ATOM     11  C   UNL     1      19.925  10.745  20.678  0.00  0.00    +0.017 C 
ATOM     12  C   UNL     1      20.494   9.616  21.513  0.00  0.00    +0.085 C 
BRANCH   3  13
ATOM     13  C   UNL     1      19.556   7.665  22.601  0.00  0.00    +0.121 C 
BRANCH  13  15
ATOM      6  N   UNL     1      21.861   4.680  22.269  0.00  0.00    -0.263 NA
ATOM     15  C   UNL     1      20.219   6.438  22.032  0.00  0.00    -0.015 A 
ATOM     17  C   UNL     1      19.841   5.928  20.795  0.00  0.00    +0.008 A 
ATOM     18  C   UNL     1      21.226   5.784  22.723  0.00  0.00    +0.115 A 
ATOM     20  C   UNL     1      20.471   4.795  20.294  0.00  0.00    +0.020 A 
ATOM     22  C   UNL     1      21.466   4.213  21.063  0.00  0.00    +0.111 A 
ENDBRANCH  13  15
ENDBRANCH   3  13
ENDBRANCH  14   9
TORSDOF 7
ENDMDL
