MODEL 1
REMARK VINA RESULT:      -7.1      0.000      0.000
REMARK  Name = 56774927
REMARK  10 active torsions:
REMARK  status: ('A' for Active; 'I' for Inactive)
REMARK    1  A    between atoms: O_2  and  C_14
REMARK    2  A    between atoms: O_4  and  C_23
REMARK    3  A    between atoms: O_4  and  C_26
REMARK    4  A    between atoms: N_6  and  C_17
REMARK    5  A    between atoms: N_7  and  C_20
REMARK    6  A    between atoms: C_8  and  C_13
REMARK    7  A    between atoms: C_12  and  C_14
REMARK    8  A    between atoms: C_14  and  C_16
REMARK    9  A    between atoms: C_17  and  C_23
REMARK   10  A    between atoms: C_26  and  C_27
REMARK                            x       y       z     vdW  Elec       q    Type
REMARK                         _______ _______ _______ _____ _____    ______ ____
ROOT
ATOM     14  C   UNL     1      14.569   6.756  19.711  0.00  0.00    +0.167 C 
ENDROOT
BRANCH  14  12
ATOM      1  O   UNL     1      13.294   7.771  17.271  0.00  0.00    -0.369 OA
ATOM      5  O   UNL     1      10.564   8.427  19.543  0.00  0.00    -0.273 OA
ATOM      6  N   UNL     1      12.855   8.516  19.939  0.00  0.00    -0.289 N 
ATOM     12  C   UNL     1      14.203   8.218  19.437  0.00  0.00    +0.135 C 
ATOM     15  C   UNL     1      14.286   8.534  17.948  0.00  0.00    +0.185 C 
ATOM     18  C   UNL     1      11.726   8.361  19.138  0.00  0.00    +0.242 C 
ATOM     19  C   UNL     1      11.997   8.180  17.649  0.00  0.00    +0.255 C 
BRANCH   6  17
ATOM     17  C   UNL     1      12.715   8.805  21.360  0.00  0.00    +0.136 C 
BRANCH  17  23
ATOM     23  C   UNL     1      12.717  10.300  21.627  0.00  0.00    +0.178 C 
BRANCH  23   4
ATOM      4  O   UNL     1      11.382  10.749  21.813  0.00  0.00    -0.378 OA
BRANCH   4  26
ATOM     26  C   UNL     1      10.840  10.280  23.039  0.00  0.00    +0.156 C 
ATOM     27  C   UNL     1      10.831  11.417  24.040  0.00  0.00    +0.034 C 
ENDBRANCH   4  26
ENDBRANCH  23   4
ENDBRANCH  17  23
ENDBRANCH   6  17
ENDBRANCH  14  12
BRANCH  14  16
ATOM     16  C   UNL     1      16.056   6.573  19.877  0.00  0.00    -0.017 A 
ATOM     20  C   UNL     1      18.808   6.237  20.184  0.00  0.00    +0.033 A 
ATOM     21  C   UNL     1      16.708   7.129  20.978  0.00  0.00    +0.008 A 
ATOM     22  C   UNL     1      16.780   5.849  18.929  0.00  0.00    +0.008 A 
ATOM     24  C   UNL     1      18.084   6.960  21.132  0.00  0.00    +0.023 A 
ATOM     25  C   UNL     1      18.156   5.681  19.083  0.00  0.00    +0.023 A 
BRANCH  20   7
ATOM      3  O   UNL     1      20.415   3.749  20.585  0.00  0.00    -0.275 OA
ATOM      7  N   UNL     1      20.185   6.068  20.338  0.00  0.00    -0.285 N 
ATOM     13  C   UNL     1      20.905   4.880  20.523  0.00  0.00    +0.220 C 
ATOM     28  H   UNL     1      20.732   6.926  20.310  0.00  0.00    +0.155 HD
BRANCH  13   8
ATOM      8  C   UNL     1      22.425   5.108  20.654  0.00  0.00    +0.075 C 
ATOM      9  C   UNL     1      23.307   3.870  20.921  0.00  0.00    +0.013 C 
ATOM     10  C   UNL     1      22.945   5.672  21.993  0.00  0.00    +0.013 C 
ATOM     11  C   UNL     1      24.192   4.785  21.794  0.00  0.00    +0.001 C 
ENDBRANCH  13   8
ENDBRANCH  20   7
ENDBRANCH  14  16
BRANCH  14   2
ATOM      2  O   UNL     1      13.902   6.318  20.890  0.00  0.00    -0.385 OA
ATOM     29  H   UNL     1      14.572   6.142  21.572  0.00  0.00    +0.210 HD
ENDBRANCH  14   2
TORSDOF 9
ENDMDL
MODEL 2
REMARK VINA RESULT:      -6.7      1.239      1.615
REMARK  Name = 56774927
REMARK  10 active torsions:
REMARK  status: ('A' for Active; 'I' for Inactive)
REMARK    1  A    between atoms: O_2  and  C_14
REMARK    2  A    between atoms: O_4  and  C_23
REMARK    3  A    between atoms: O_4  and  C_26
REMARK    4  A    between atoms: N_6  and  C_17
REMARK    5  A    between atoms: N_7  and  C_20
REMARK    6  A    between atoms: C_8  and  C_13
REMARK    7  A    between atoms: C_12  and  C_14
REMARK    8  A    between atoms: C_14  and  C_16
REMARK    9  A    between atoms: C_17  and  C_23
REMARK   10  A    between atoms: C_26  and  C_27
REMARK                            x       y       z     vdW  Elec       q    Type
REMARK                         _______ _______ _______ _____ _____    ______ ____
ROOT
ATOM     14  C   UNL     1      14.506   6.722  19.719  0.00  0.00    +0.167 C 
ENDROOT
BRANCH  14  12
ATOM      1  O   UNL     1      13.271   7.790  17.281  0.00  0.00    -0.369 OA
ATOM      5  O   UNL     1      10.537   8.476  19.538  0.00  0.00    -0.273 OA
ATOM      6  N   UNL     1      12.827   8.514  19.953  0.00  0.00    -0.289 N 
ATOM     12  C   UNL     1      14.172   8.194  19.458  0.00  0.00    +0.135 C 
ATOM     15  C   UNL     1      14.273   8.524  17.973  0.00  0.00    +0.185 C 
ATOM     18  C   UNL     1      11.701   8.391  19.141  0.00  0.00    +0.242 C 
ATOM     19  C   UNL     1      11.980   8.220  17.653  0.00  0.00    +0.255 C 
BRANCH   6  17
ATOM     17  C   UNL     1      12.681   8.791  21.375  0.00  0.00    +0.136 C 
BRANCH  17  23
ATOM     23  C   UNL     1      12.868  10.267  21.678  0.00  0.00    +0.178 C 
BRANCH  23   4
ATOM      4  O   UNL     1      13.983  10.435  22.544  0.00  0.00    -0.378 OA
BRANCH   4  26
ATOM     26  C   UNL     1      13.803  11.541  23.417  0.00  0.00    +0.156 C 
ATOM     27  C   UNL     1      12.321  11.823  23.554  0.00  0.00    +0.034 C 
ENDBRANCH   4  26
ENDBRANCH  23   4
ENDBRANCH  17  23
ENDBRANCH   6  17
ENDBRANCH  14  12
BRANCH  14  16
ATOM     16  C   UNL     1      15.986   6.510  19.911  0.00  0.00    -0.017 A 
ATOM     20  C   UNL     1      18.725   6.116  20.265  0.00  0.00    +0.033 A 
ATOM     21  C   UNL     1      16.735   5.881  18.916  0.00  0.00    +0.008 A 
ATOM     22  C   UNL     1      16.607   6.943  21.084  0.00  0.00    +0.008 A 
ATOM     24  C   UNL     1      18.104   5.684  19.093  0.00  0.00    +0.023 A 
ATOM     25  C   UNL     1      17.976   6.745  21.260  0.00  0.00    +0.023 A 
BRANCH  20   7
ATOM      3  O   UNL     1      20.925   8.100  20.662  0.00  0.00    -0.275 OA
ATOM      7  N   UNL     1      20.095   5.919  20.443  0.00  0.00    -0.285 N 
ATOM     13  C   UNL     1      21.100   6.878  20.629  0.00  0.00    +0.220 C 
ATOM     28  H   UNL     1      20.398   4.947  20.436  0.00  0.00    +0.155 HD
BRANCH  13   8
ATOM      8  C   UNL     1      22.504   6.262  20.789  0.00  0.00    +0.075 C 
ATOM      9  C   UNL     1      22.648   4.748  20.529  0.00  0.00    +0.013 C 
ATOM     10  C   UNL     1      22.998   5.984  22.225  0.00  0.00    +0.013 C 
ATOM     11  C   UNL     1      23.700   4.732  21.659  0.00  0.00    +0.001 C 
ENDBRANCH  13   8
ENDBRANCH  20   7
ENDBRANCH  14  16
BRANCH  14   2
ATOM      2  O   UNL     1      13.809   6.281  20.879  0.00  0.00    -0.385 OA
ATOM     29  H   UNL     1      14.456   6.147  21.592  0.00  0.00    +0.210 HD
ENDBRANCH  14   2
TORSDOF 9
ENDMDL
MODEL 3
REMARK VINA RESULT:      -6.6      1.913      2.948
REMARK  Name = 56774927
REMARK  10 active torsions:
REMARK  status: ('A' for Active; 'I' for Inactive)
REMARK    1  A    between atoms: O_2  and  C_14
REMARK    2  A    between atoms: O_4  and  C_23
REMARK    3  A    between atoms: O_4  and  C_26
REMARK    4  A    between atoms: N_6  and  C_17
REMARK    5  A    between atoms: N_7  and  C_20
REMARK    6  A    between atoms: C_8  and  C_13
REMARK    7  A    between atoms: C_12  and  C_14
REMARK    8  A    between atoms: C_14  and  C_16
REMARK    9  A    between atoms: C_17  and  C_23
REMARK   10  A    between atoms: C_26  and  C_27
REMARK                            x       y       z     vdW  Elec       q    Type
REMARK                         _______ _______ _______ _____ _____    ______ ____
ROOT
ATOM     14  C   UNL     1      14.240   6.756  20.122  0.00  0.00    +0.167 C 
ENDROOT
BRANCH  14  12
ATOM      1  O   UNL     1      11.585   7.377  19.037  0.00  0.00    -0.369 OA
ATOM      5  O   UNL     1      11.828  10.162  21.323  0.00  0.00    -0.273 OA
ATOM      6  N   UNL     1      13.511   9.113  20.106  0.00  0.00    -0.289 N 
ATOM     12  C   UNL     1      13.889   7.973  19.260  0.00  0.00    +0.135 C 
ATOM     15  C   UNL     1      12.763   7.649  18.287  0.00  0.00    +0.185 C 
ATOM     18  C   UNL     1      12.188   9.334  20.485  0.00  0.00    +0.242 C 
ATOM     19  C   UNL     1      11.144   8.529  19.721  0.00  0.00    +0.255 C 
BRANCH   6  17
ATOM     17  C   UNL     1      14.585   9.905  20.689  0.00  0.00    +0.136 C 
BRANCH  17  23
ATOM     23  C   UNL     1      15.241  10.802  19.655  0.00  0.00    +0.178 C 
BRANCH  23   4
ATOM      4  O   UNL     1      16.429  11.361  20.198  0.00  0.00    -0.378 OA
BRANCH   4  26
ATOM     26  C   UNL     1      17.126  10.421  21.004  0.00  0.00    +0.156 C 
ATOM     27  C   UNL     1      18.615  10.636  20.834  0.00  0.00    +0.034 C 
ENDBRANCH   4  26
ENDBRANCH  23   4
ENDBRANCH  17  23
ENDBRANCH   6  17
ENDBRANCH  14  12
BRANCH  14  16
ATOM     16  C   UNL     1      15.726   6.504  20.156  0.00  0.00    -0.017 A 
ATOM     20  C   UNL     1      18.475   6.037  20.220  0.00  0.00    +0.033 A 
ATOM     21  C   UNL     1      16.380   6.034  19.018  0.00  0.00    +0.008 A 
ATOM     22  C   UNL     1      16.447   6.742  21.327  0.00  0.00    +0.008 A 
ATOM     24  C   UNL     1      17.755   5.800  19.050  0.00  0.00    +0.023 A 
ATOM     25  C   UNL     1      17.822   6.508  21.359  0.00  0.00    +0.023 A 
BRANCH  20   7
ATOM      3  O   UNL     1      20.735   7.895  20.834  0.00  0.00    -0.275 OA
ATOM      7  N   UNL     1      19.851   5.803  20.252  0.00  0.00    -0.285 N 
ATOM     13  C   UNL     1      20.884   6.703  20.547  0.00  0.00    +0.220 C 
ATOM     28  H   UNL     1      20.134   4.851  20.031  0.00  0.00    +0.155 HD
BRANCH  13   8
ATOM      8  C   UNL     1      22.285   6.061  20.477  0.00  0.00    +0.075 C 
ATOM      9  C   UNL     1      22.408   4.579  20.890  0.00  0.00    +0.013 C 
ATOM     10  C   UNL     1      23.271   6.382  21.621  0.00  0.00    +0.013 C 
ATOM     11  C   UNL     1      23.792   4.937  21.474  0.00  0.00    +0.001 C 
ENDBRANCH  13   8
ENDBRANCH  20   7
ENDBRANCH  14  16
BRANCH  14   2
ATOM      2  O   UNL     1      13.763   6.964  21.446  0.00  0.00    -0.385 OA
ATOM     29  H   UNL     1      13.038   7.611  21.411  0.00  0.00    +0.210 HD
ENDBRANCH  14   2
TORSDOF 9
ENDMDL
MODEL 4
REMARK VINA RESULT:      -6.2      2.542      9.791
REMARK  Name = 56774927
REMARK  10 active torsions:
REMARK  status: ('A' for Active; 'I' for Inactive)
REMARK    1  A    between atoms: O_2  and  C_14
REMARK    2  A    between atoms: O_4  and  C_23
REMARK    3  A    between atoms: O_4  and  C_26
REMARK    4  A    between atoms: N_6  and  C_17
REMARK    5  A    between atoms: N_7  and  C_20
REMARK    6  A    between atoms: C_8  and  C_13
REMARK    7  A    between atoms: C_12  and  C_14
REMARK    8  A    between atoms: C_14  and  C_16
REMARK    9  A    between atoms: C_17  and  C_23
REMARK   10  A    between atoms: C_26  and  C_27
REMARK                            x       y       z     vdW  Elec       q    Type
REMARK                         _______ _______ _______ _____ _____    ______ ____
ROOT
ATOM     14  C   UNL     1      20.054   7.041  22.029  0.00  0.00    +0.167 C 
ENDROOT
BRANCH  14  12
ATOM      1  O   UNL     1      22.520   8.428  21.253  0.00  0.00    -0.369 OA
ATOM      5  O   UNL     1      24.027   5.944  23.399  0.00  0.00    -0.273 OA
ATOM      6  N   UNL     1      22.160   5.756  22.022  0.00  0.00    -0.289 N 
ATOM     12  C   UNL     1      21.181   6.450  21.176  0.00  0.00    +0.135 C 
ATOM     15  C   UNL     1      21.874   7.533  20.357  0.00  0.00    +0.185 C 
ATOM     18  C   UNL     1      23.267   6.416  22.551  0.00  0.00    +0.242 C 
ATOM     19  C   UNL     1      23.566   7.783  21.947  0.00  0.00    +0.255 C 
BRANCH   6  17
ATOM     17  C   UNL     1      21.842   4.398  22.444  0.00  0.00    +0.136 C 
BRANCH  17  23
ATOM     23  C   UNL     1      21.670   3.471  21.255  0.00  0.00    +0.178 C 
BRANCH  23   4
ATOM      4  O   UNL     1      22.937   2.957  20.868  0.00  0.00    -0.378 OA
BRANCH   4  26
ATOM     26  C   UNL     1      23.618   2.366  21.966  0.00  0.00    +0.156 C 
ATOM     27  C   UNL     1      24.393   1.162  21.475  0.00  0.00    +0.034 C 
ENDBRANCH   4  26
ENDBRANCH  23   4
ENDBRANCH  17  23
ENDBRANCH   6  17
ENDBRANCH  14  12
BRANCH  14  16
ATOM     16  C   UNL     1      18.762   7.141  21.258  0.00  0.00    -0.017 A 
ATOM     20  C   UNL     1      16.371   7.326  19.833  0.00  0.00    +0.033 A 
ATOM     21  C   UNL     1      17.903   8.218  21.475  0.00  0.00    +0.008 A 
ATOM     22  C   UNL     1      18.426   6.156  20.328  0.00  0.00    +0.008 A 
ATOM     24  C   UNL     1      16.707   8.311  20.762  0.00  0.00    +0.023 A 
ATOM     25  C   UNL     1      17.230   6.249  19.617  0.00  0.00    +0.023 A 
BRANCH  20   7
ATOM      3  O   UNL     1      13.568   6.733  20.683  0.00  0.00    -0.275 OA
ATOM      7  N   UNL     1      15.175   7.419  19.121  0.00  0.00    -0.285 N 
ATOM     13  C   UNL     1      13.873   7.132  19.556  0.00  0.00    +0.220 C 
ATOM     28  H   UNL     1      15.267   7.738  18.159  0.00  0.00    +0.155 HD
BRANCH  13   8
ATOM      8  C   UNL     1      12.806   7.360  18.465  0.00  0.00    +0.075 C 
ATOM      9  C   UNL     1      13.213   8.203  17.239  0.00  0.00    +0.013 C 
ATOM     10  C   UNL     1      11.724   8.426  18.743  0.00  0.00    +0.013 C 
ATOM     11  C   UNL     1      11.771   8.754  17.236  0.00  0.00    +0.001 C 
ENDBRANCH  13   8
ENDBRANCH  20   7
ENDBRANCH  14  16
BRANCH  14   2
ATOM      2  O   UNL     1      19.859   6.226  23.179  0.00  0.00    -0.385 OA
ATOM     29  H   UNL     1      20.351   5.397  23.053  0.00  0.00    +0.210 HD
ENDBRANCH  14   2
TORSDOF 9
ENDMDL
MODEL 5
REMARK VINA RESULT:      -6.1      3.640      7.570
REMARK  Name = 56774927
REMARK  10 active torsions:
REMARK  status: ('A' for Active; 'I' for Inactive)
REMARK    1  A    between atoms: O_2  and  C_14
REMARK    2  A    between atoms: O_4  and  C_23
REMARK    3  A    between atoms: O_4  and  C_26
REMARK    4  A    between atoms: N_6  and  C_17
REMARK    5  A    between atoms: N_7  and  C_20
REMARK    6  A    between atoms: C_8  and  C_13
REMARK    7  A    between atoms: C_12  and  C_14
REMARK    8  A    between atoms: C_14  and  C_16
REMARK    9  A    between atoms: C_17  and  C_23
REMARK   10  A    between atoms: C_26  and  C_27
REMARK                            x       y       z     vdW  Elec       q    Type
REMARK                         _______ _______ _______ _____ _____    ______ ____
ROOT
ATOM     14  C   UNL     1      11.810   9.445  19.588  0.00  0.00    +0.167 C 
ENDROOT
BRANCH  14  12
ATOM      1  O   UNL     1      10.482   8.996  22.166  0.00  0.00    -0.369 OA
ATOM      5  O   UNL     1      10.958   5.531  21.267  0.00  0.00    -0.273 OA
ATOM      6  N   UNL     1      12.318   7.364  20.812  0.00  0.00    -0.289 N 
ATOM     12  C   UNL     1      12.457   8.826  20.830  0.00  0.00    +0.135 C 
ATOM     15  C   UNL     1      11.847   9.393  22.107  0.00  0.00    +0.185 C 
ATOM     18  C   UNL     1      11.223   6.728  21.394  0.00  0.00    +0.242 C 
ATOM     19  C   UNL     1      10.367   7.597  22.308  0.00  0.00    +0.255 C 
BRANCH   6  17
ATOM     17  C   UNL     1      13.267   6.607  20.008  0.00  0.00    +0.136 C 
BRANCH  17  23
ATOM     23  C   UNL     1      14.689   7.097  20.216  0.00  0.00    +0.178 C 
BRANCH  23   4
ATOM      4  O   UNL     1      15.593   6.219  19.559  0.00  0.00    -0.378 OA
BRANCH   4  26
ATOM     26  C   UNL     1      16.944   6.597  19.786  0.00  0.00    +0.156 C 
ATOM     27  C   UNL     1      17.854   5.618  19.075  0.00  0.00    +0.034 C 
ENDBRANCH   4  26
ENDBRANCH  23   4
ENDBRANCH  17  23
ENDBRANCH   6  17
ENDBRANCH  14  12
BRANCH  14  16
ATOM     16  C   UNL     1      12.838  10.024  18.650  0.00  0.00    -0.017 A 
ATOM     20  C   UNL     1      14.740  11.098  16.915  0.00  0.00    +0.033 A 
ATOM     21  C   UNL     1      13.807  10.903  19.135  0.00  0.00    +0.008 A 
ATOM     22  C   UNL     1      12.820   9.682  17.297  0.00  0.00    +0.008 A 
ATOM     24  C   UNL     1      14.758  11.440  18.268  0.00  0.00    +0.023 A 
ATOM     25  C   UNL     1      13.771  10.220  16.431  0.00  0.00    +0.023 A 
BRANCH  20   7
ATOM      3  O   UNL     1      14.541  13.400  15.020  0.00  0.00    -0.275 OA
ATOM      7  N   UNL     1      15.692  11.636  16.048  0.00  0.00    -0.285 N 
ATOM     13  C   UNL     1      15.561  12.722  15.171  0.00  0.00    +0.220 C 
ATOM     28  H   UNL     1      16.598  11.173  16.058  0.00  0.00    +0.155 HD
BRANCH  13   8
ATOM      8  C   UNL     1      16.848  13.013  14.371  0.00  0.00    +0.075 C 
ATOM      9  C   UNL     1      16.845  12.657  12.870  0.00  0.00    +0.013 C 
ATOM     10  C   UNL     1      18.019  12.019  14.526  0.00  0.00    +0.013 C 
ATOM     11  C   UNL     1      18.331  12.275  13.037  0.00  0.00    +0.001 C 
ENDBRANCH  13   8
ENDBRANCH  20   7
ENDBRANCH  14  16
BRANCH  14   2
ATOM      2  O   UNL     1      11.053   8.450  18.907  0.00  0.00    -0.385 OA
ATOM     29  H   UNL     1      11.668   7.896  18.395  0.00  0.00    +0.210 HD
ENDBRANCH  14   2
TORSDOF 9
ENDMDL
MODEL 6
REMARK VINA RESULT:      -5.9      2.492      9.019
REMARK  Name = 56774927
REMARK  10 active torsions:
REMARK  status: ('A' for Active; 'I' for Inactive)
REMARK    1  A    between atoms: O_2  and  C_14
REMARK    2  A    between atoms: O_4  and  C_23
REMARK    3  A    between atoms: O_4  and  C_26
REMARK    4  A    between atoms: N_6  and  C_17
REMARK    5  A    between atoms: N_7  and  C_20
REMARK    6  A    between atoms: C_8  and  C_13
REMARK    7  A    between atoms: C_12  and  C_14
REMARK    8  A    between atoms: C_14  and  C_16
REMARK    9  A    between atoms: C_17  and  C_23
REMARK   10  A    between atoms: C_26  and  C_27
REMARK                            x       y       z     vdW  Elec       q    Type
REMARK                         _______ _______ _______ _____ _____    ______ ____
ROOT
ATOM     14  C   UNL     1      20.455   5.265  20.880  0.00  0.00    +0.167 C 
ENDROOT
BRANCH  14  12
ATOM      1  O   UNL     1      22.723   4.504  22.579  0.00  0.00    -0.369 OA
ATOM      5  O   UNL     1      24.548   6.575  20.249  0.00  0.00    -0.273 OA
ATOM      6  N   UNL     1      22.369   6.815  21.030  0.00  0.00    -0.289 N 
ATOM     12  C   UNL     1      21.257   6.213  21.777  0.00  0.00    +0.135 C 
ATOM     15  C   UNL     1      21.788   5.486  23.007  0.00  0.00    +0.185 C 
ATOM     18  C   UNL     1      23.628   6.219  20.988  0.00  0.00    +0.242 C 
ATOM     19  C   UNL     1      23.862   5.107  22.003  0.00  0.00    +0.255 C 
BRANCH   6  17
ATOM     17  C   UNL     1      22.068   7.961  20.182  0.00  0.00    +0.136 C 
BRANCH  17  23
ATOM     23  C   UNL     1      21.514   9.121  20.989  0.00  0.00    +0.178 C 
BRANCH  23   4
ATOM      4  O   UNL     1      22.474   9.527  21.956  0.00  0.00    -0.378 OA
BRANCH   4  26
ATOM     26  C   UNL     1      21.861   9.842  23.198  0.00  0.00    +0.156 C 
ATOM     27  C   UNL     1      20.364   9.648  23.071  0.00  0.00    +0.034 C 
ENDBRANCH   4  26
ENDBRANCH  23   4
ENDBRANCH  17  23
ENDBRANCH   6  17
ENDBRANCH  14  12
BRANCH  14  16
ATOM     16  C   UNL     1      19.132   5.864  20.474  0.00  0.00    -0.017 A 
ATOM     20  C   UNL     1      16.685   6.972  19.722  0.00  0.00    +0.033 A 
ATOM     21  C   UNL     1      18.436   5.343  19.384  0.00  0.00    +0.008 A 
ATOM     22  C   UNL     1      18.604   6.940  21.190  0.00  0.00    +0.008 A 
ATOM     24  C   UNL     1      17.213   5.897  19.008  0.00  0.00    +0.023 A 
ATOM     25  C   UNL     1      17.381   7.493  20.813  0.00  0.00    +0.023 A 
BRANCH  20   7
ATOM      3  O   UNL     1      13.963   6.622  20.905  0.00  0.00    -0.275 OA
ATOM      7  N   UNL     1      15.461   7.526  19.346  0.00  0.00    -0.285 N 
ATOM     13  C   UNL     1      14.200   7.339  19.929  0.00  0.00    +0.220 C 
ATOM     28  H   UNL     1      15.496   8.149  18.541  0.00  0.00    +0.155 HD
BRANCH  13   8
ATOM      8  C   UNL     1      13.082   8.130  19.220  0.00  0.00    +0.075 C 
ATOM      9  C   UNL     1      12.753   7.743  17.763  0.00  0.00    +0.013 C 
ATOM     10  C   UNL     1      13.434   9.535  18.686  0.00  0.00    +0.013 C 
ATOM     11  C   UNL     1      12.484   9.241  17.507  0.00  0.00    +0.001 C 
ENDBRANCH  13   8
ENDBRANCH  20   7
ENDBRANCH  14  16
BRANCH  14   2
ATOM      2  O   UNL     1      21.216   4.963  19.717  0.00  0.00    -0.385 OA
ATOM     29  H   UNL     1      21.114   4.015  19.523  0.00  0.00    +0.210 HD
ENDBRANCH  14   2
TORSDOF 9
ENDMDL
MODEL 7
REMARK VINA RESULT:      -5.9     27.076     30.024
REMARK  Name = 56774927
REMARK  10 active torsions:
REMARK  status: ('A' for Active; 'I' for Inactive)
REMARK    1  A    between atoms: O_2  and  C_14
REMARK    2  A    between atoms: O_4  and  C_23
REMARK    3  A    between atoms: O_4  and  C_26
REMARK    4  A    between atoms: N_6  and  C_17
REMARK    5  A    between atoms: N_7  and  C_20
REMARK    6  A    between atoms: C_8  and  C_13
REMARK    7  A    between atoms: C_12  and  C_14
REMARK    8  A    between atoms: C_14  and  C_16
REMARK    9  A    between atoms: C_17  and  C_23
REMARK   10  A    between atoms: C_26  and  C_27
REMARK                            x       y       z     vdW  Elec       q    Type
REMARK                         _______ _______ _______ _____ _____    ______ ____
ROOT
ATOM     14  C   UNL     1     -11.090   9.749  19.694  0.00  0.00    +0.167 C 
ENDROOT
BRANCH  14  12
ATOM      1  O   UNL     1     -10.051  11.836  17.911  0.00  0.00    -0.369 OA
ATOM      5  O   UNL     1     -10.319   9.202  15.454  0.00  0.00    -0.273 OA
ATOM      6  N   UNL     1     -11.672   9.631  17.299  0.00  0.00    -0.289 N 
ATOM     12  C   UNL     1     -11.856  10.399  18.537  0.00  0.00    +0.135 C 
ATOM     15  C   UNL     1     -11.412  11.841  18.327  0.00  0.00    +0.185 C 
ATOM     18  C   UNL     1     -10.632   9.909  16.414  0.00  0.00    +0.242 C 
ATOM     19  C   UNL     1      -9.912  11.233  16.644  0.00  0.00    +0.255 C 
BRANCH   6  17
ATOM     17  C   UNL     1     -12.501   8.448  17.110  0.00  0.00    +0.136 C 
BRANCH  17  23
ATOM     23  C   UNL     1     -13.659   8.723  16.168  0.00  0.00    +0.178 C 
BRANCH  23   4
ATOM      4  O   UNL     1     -14.854   8.185  16.717  0.00  0.00    -0.378 OA
BRANCH   4  26
ATOM     26  C   UNL     1     -14.778   8.082  18.132  0.00  0.00    +0.156 C 
ATOM     27  C   UNL     1     -16.134   7.675  18.669  0.00  0.00    +0.034 C 
ENDBRANCH   4  26
ENDBRANCH  23   4
ENDBRANCH  17  23
ENDBRANCH   6  17
ENDBRANCH  14  12
BRANCH  14  16
ATOM     16  C   UNL     1     -11.941   8.751  20.437  0.00  0.00    -0.017 A 
ATOM     20  C   UNL     1     -13.513   6.904  21.815  0.00  0.00    +0.033 A 
ATOM     21  C   UNL     1     -13.071   9.179  21.134  0.00  0.00    +0.008 A 
ATOM     22  C   UNL     1     -11.597   7.398  20.430  0.00  0.00    +0.008 A 
ATOM     24  C   UNL     1     -13.857   8.256  21.822  0.00  0.00    +0.023 A 
ATOM     25  C   UNL     1     -12.384   6.476  21.119  0.00  0.00    +0.023 A 
BRANCH  20   7
ATOM      3  O   UNL     1     -15.716   5.136  20.838  0.00  0.00    -0.275 OA
ATOM      7  N   UNL     1     -14.300   5.981  22.504  0.00  0.00    -0.285 N 
ATOM     13  C   UNL     1     -15.327   5.165  22.009  0.00  0.00    +0.220 C 
ATOM     28  H   UNL     1     -14.096   5.893  23.498  0.00  0.00    +0.155 HD
BRANCH  13   8
ATOM      8  C   UNL     1     -15.966   4.270  23.092  0.00  0.00    +0.075 C 
ATOM      9  C   UNL     1     -17.016   4.918  24.018  0.00  0.00    +0.013 C 
ATOM     10  C   UNL     1     -15.133   3.988  24.361  0.00  0.00    +0.013 C 
ATOM     11  C   UNL     1     -16.461   4.022  25.146  0.00  0.00    +0.001 C 
ENDBRANCH  13   8
ENDBRANCH  20   7
ENDBRANCH  14  16
BRANCH  14   2
ATOM      2  O   UNL     1      -9.932   9.099  19.183  0.00  0.00    -0.385 OA
ATOM     29  H   UNL     1      -9.809   9.375  18.259  0.00  0.00    +0.210 HD
ENDBRANCH  14   2
TORSDOF 9
ENDMDL
MODEL 8
REMARK VINA RESULT:      -5.9      1.893      3.145
REMARK  Name = 56774927
REMARK  10 active torsions:
REMARK  status: ('A' for Active; 'I' for Inactive)
REMARK    1  A    between atoms: O_2  and  C_14
REMARK    2  A    between atoms: O_4  and  C_23
REMARK    3  A    between atoms: O_4  and  C_26
REMARK    4  A    between atoms: N_6  and  C_17
REMARK    5  A    between atoms: N_7  and  C_20
REMARK    6  A    between atoms: C_8  and  C_13
REMARK    7  A    between atoms: C_12  and  C_14
REMARK    8  A    between atoms: C_14  and  C_16
REMARK    9  A    between atoms: C_17  and  C_23
REMARK   10  A    between atoms: C_26  and  C_27
REMARK                            x       y       z     vdW  Elec       q    Type
REMARK                         _______ _______ _______ _____ _____    ______ ____
ROOT
ATOM     14  C   UNL     1      16.305   9.477  20.986  0.00  0.00    +0.167 C 
ENDROOT
BRANCH  14  12
ATOM      1  O   UNL     1      14.312  10.792  22.691  0.00  0.00    -0.369 OA
ATOM      5  O   UNL     1      12.346  10.679  19.663  0.00  0.00    -0.273 OA
ATOM      6  N   UNL     1      13.919   9.153  20.450  0.00  0.00    -0.289 N 
ATOM     12  C   UNL     1      14.972   8.870  21.434  0.00  0.00    +0.135 C 
ATOM     15  C   UNL     1      14.561   9.396  22.803  0.00  0.00    +0.185 C 
ATOM     18  C   UNL     1      13.124  10.295  20.539  0.00  0.00    +0.242 C 
ATOM     19  C   UNL     1      13.195  11.042  21.866  0.00  0.00    +0.255 C 
BRANCH   6  17
ATOM     17  C   UNL     1      13.850   8.299  19.272  0.00  0.00    +0.136 C 
BRANCH  17  23
ATOM     23  C   UNL     1      13.381   6.900  19.625  0.00  0.00    +0.178 C 
BRANCH  23   4
ATOM      4  O   UNL     1      11.975   6.910  19.837  0.00  0.00    -0.378 OA
BRANCH   4  26
ATOM     26  C   UNL     1      11.643   6.485  21.150  0.00  0.00    +0.156 C 
ATOM     27  C   UNL     1      10.857   7.582  21.838  0.00  0.00    +0.034 C 
ENDBRANCH   4  26
ENDBRANCH  23   4
ENDBRANCH  17  23
ENDBRANCH   6  17
ENDBRANCH  14  12
BRANCH  14  16
ATOM     16  C   UNL     1      17.382   8.430  20.857  0.00  0.00    -0.017 A 
ATOM     20  C   UNL     1      19.375   6.493  20.618  0.00  0.00    +0.033 A 
ATOM     21  C   UNL     1      18.667   8.690  21.331  0.00  0.00    +0.008 A 
ATOM     22  C   UNL     1      17.092   7.200  20.264  0.00  0.00    +0.008 A 
ATOM     24  C   UNL     1      19.664   7.721  21.211  0.00  0.00    +0.023 A 
ATOM     25  C   UNL     1      18.089   6.233  20.144  0.00  0.00    +0.023 A 
BRANCH  20   7
ATOM      3  O   UNL     1      21.079   5.209  22.710  0.00  0.00    -0.275 OA
ATOM      7  N   UNL     1      20.372   5.524  20.498  0.00  0.00    -0.285 N 
ATOM     13  C   UNL     1      21.152   4.942  21.507  0.00  0.00    +0.220 C 
ATOM     28  H   UNL     1      20.551   5.201  19.549  0.00  0.00    +0.155 HD
BRANCH  13   8
ATOM      8  C   UNL     1      22.156   3.901  20.972  0.00  0.00    +0.075 C 
ATOM      9  C   UNL     1      22.857   2.995  22.005  0.00  0.00    +0.013 C 
ATOM     10  C   UNL     1      23.560   4.407  20.578  0.00  0.00    +0.013 C 
ATOM     11  C   UNL     1      24.108   3.064  21.103  0.00  0.00    +0.001 C 
ENDBRANCH  13   8
ENDBRANCH  20   7
ENDBRANCH  14  16
BRANCH  14   2
ATOM      2  O   UNL     1      16.127  10.132  19.736  0.00  0.00    -0.385 OA
ATOM     29  H   UNL     1      16.325  11.077  19.855  0.00  0.00    +0.210 HD
ENDBRANCH  14   2
TORSDOF 9
ENDMDL
MODEL 9
REMARK VINA RESULT:      -5.9     15.331     18.674
REMARK  Name = 56774927
REMARK  10 active torsions:
REMARK  status: ('A' for Active; 'I' for Inactive)
REMARK    1  A    between atoms: O_2  and  C_14
REMARK    2  A    between atoms: O_4  and  C_23
REMARK    3  A    between atoms: O_4  and  C_26
REMARK    4  A    between atoms: N_6  and  C_17
REMARK    5  A    between atoms: N_7  and  C_20
REMARK    6  A    between atoms: C_8  and  C_13
REMARK    7  A    between atoms: C_12  and  C_14
REMARK    8  A    between atoms: C_14  and  C_16
REMARK    9  A    between atoms: C_17  and  C_23
REMARK   10  A    between atoms: C_26  and  C_27
REMARK                            x       y       z     vdW  Elec       q    Type
REMARK                         _______ _______ _______ _____ _____    ______ ____
ROOT
ATOM     14  C   UNL     1       9.620   6.375   4.532  0.00  0.00    +0.167 C 
ENDROOT
BRANCH  14  12
ATOM      1  O   UNL     1      10.604   9.106   4.099  0.00  0.00    -0.369 OA
ATOM      5  O   UNL     1       9.204   9.620   7.389  0.00  0.00    -0.273 OA
ATOM      6  N   UNL     1      10.224   7.722   6.509  0.00  0.00    -0.289 N 
ATOM     12  C   UNL     1      10.751   7.052   5.313  0.00  0.00    +0.135 C 
ATOM     15  C   UNL     1      11.498   8.053   4.441  0.00  0.00    +0.185 C 
ATOM     18  C   UNL     1       9.810   9.052   6.478  0.00  0.00    +0.242 C 
ATOM     19  C   UNL     1      10.230   9.842   5.243  0.00  0.00    +0.255 C 
BRANCH   6  17
ATOM     17  C   UNL     1       9.975   6.902   7.687  0.00  0.00    +0.136 C 
BRANCH  17  23
ATOM     23  C   UNL     1      11.165   6.018   8.011  0.00  0.00    +0.178 C 
BRANCH  23   4
ATOM      4  O   UNL     1      10.751   4.962   8.868  0.00  0.00    -0.378 OA
BRANCH   4  26
ATOM     26  C   UNL     1       9.336   4.837   8.895  0.00  0.00    +0.156 C 
ATOM     27  C   UNL     1       8.889   4.619  10.325  0.00  0.00    +0.034 C 
ENDBRANCH   4  26
ENDBRANCH  23   4
ENDBRANCH  17  23
ENDBRANCH   6  17
ENDBRANCH  14  12
BRANCH  14  16
ATOM     16  C   UNL     1      10.121   5.737   3.262  0.00  0.00    -0.017 A 
ATOM     20  C   UNL     1      11.047   4.555   0.911  0.00  0.00    +0.033 A 
ATOM     21  C   UNL     1       9.881   6.349   2.032  0.00  0.00    +0.008 A 
ATOM     22  C   UNL     1      10.825   4.532   3.316  0.00  0.00    +0.008 A 
ATOM     24  C   UNL     1      10.344   5.758   0.857  0.00  0.00    +0.023 A 
ATOM     25  C   UNL     1      11.287   3.942   2.141  0.00  0.00    +0.023 A 
BRANCH  20   7
ATOM      3  O   UNL     1      13.754   3.493   0.222  0.00  0.00    -0.275 OA
ATOM      7  N   UNL     1      11.510   3.964  -0.265  0.00  0.00    -0.285 N 
ATOM     13  C   UNL     1      12.792   3.474  -0.552  0.00  0.00    +0.220 C 
ATOM     28  H   UNL     1      10.821   3.879  -1.009  0.00  0.00    +0.155 HD
BRANCH  13   8
ATOM      8  C   UNL     1      12.913   2.890  -1.974  0.00  0.00    +0.075 C 
ATOM      9  C   UNL     1      12.870   3.882  -3.155  0.00  0.00    +0.013 C 
ATOM     10  C   UNL     1      11.655   2.232  -2.581  0.00  0.00    +0.013 C 
ATOM     11  C   UNL     1      12.115   2.791  -3.944  0.00  0.00    +0.001 C 
ENDBRANCH  13   8
ENDBRANCH  20   7
ENDBRANCH  14  16
BRANCH  14   2
ATOM      2  O   UNL     1       9.009   5.386   5.352  0.00  0.00    -0.385 OA
ATOM     29  H   UNL     1       8.066   5.335   5.118  0.00  0.00    +0.210 HD
ENDBRANCH  14   2
TORSDOF 9
ENDMDL
MODEL 10
REMARK VINA RESULT:      -5.9     27.337     30.509
REMARK  Name = 56774927
REMARK  10 active torsions:
REMARK  status: ('A' for Active; 'I' for Inactive)
REMARK    1  A    between atoms: O_2  and  C_14
REMARK    2  A    between atoms: O_4  and  C_23
REMARK    3  A    between atoms: O_4  and  C_26
REMARK    4  A    between atoms: N_6  and  C_17
REMARK    5  A    between atoms: N_7  and  C_20
REMARK    6  A    between atoms: C_8  and  C_13
REMARK    7  A    between atoms: C_12  and  C_14
REMARK    8  A    between atoms: C_14  and  C_16
REMARK    9  A    between atoms: C_17  and  C_23
REMARK   10  A    between atoms: C_26  and  C_27
REMARK                            x       y       z     vdW  Elec       q    Type
REMARK                         _______ _______ _______ _____ _____    ______ ____
ROOT
ATOM     14  C   UNL     1      -3.670 -10.599  15.926  0.00  0.00    +0.167 C 
ENDROOT
BRANCH  14  12
ATOM      1  O   UNL     1      -1.686 -10.906  13.785  0.00  0.00    -0.369 OA
ATOM      5  O   UNL     1      -2.288 -14.417  14.383  0.00  0.00    -0.273 OA
ATOM      6  N   UNL     1      -3.771 -12.629  14.527  0.00  0.00    -0.289 N 
ATOM     12  C   UNL     1      -3.942 -11.170  14.531  0.00  0.00    +0.135 C 
ATOM     15  C   UNL     1      -3.027 -10.535  13.490  0.00  0.00    +0.185 C 
ATOM     18  C   UNL     1      -2.543 -13.220  14.237  0.00  0.00    +0.242 C 
ATOM     19  C   UNL     1      -1.498 -12.295  13.623  0.00  0.00    +0.255 C 
BRANCH   6  17
ATOM     17  C   UNL     1      -4.880 -13.438  15.014  0.00  0.00    +0.136 C 
BRANCH  17  23
ATOM     23  C   UNL     1      -6.182 -13.070  14.327  0.00  0.00    +0.178 C 
BRANCH  23   4
ATOM      4  O   UNL     1      -7.230 -13.030  15.287  0.00  0.00    -0.378 OA
BRANCH   4  26
ATOM     26  C   UNL     1      -6.856 -13.681  16.493  0.00  0.00    +0.156 C 
ATOM     27  C   UNL     1      -7.940 -14.666  16.876  0.00  0.00    +0.034 C 
ENDBRANCH   4  26
ENDBRANCH  23   4
ENDBRANCH  17  23
ENDBRANCH   6  17
ENDBRANCH  14  12
BRANCH  14  16
ATOM     16  C   UNL     1      -4.939 -10.445  16.725  0.00  0.00    -0.017 A 
ATOM     20  C   UNL     1      -7.286 -10.158  18.204  0.00  0.00    +0.033 A 
ATOM     21  C   UNL     1      -6.050  -9.825  16.155  0.00  0.00    +0.008 A 
ATOM     22  C   UNL     1      -5.001 -10.921  18.035  0.00  0.00    +0.008 A 
ATOM     24  C   UNL     1      -7.224  -9.681  16.894  0.00  0.00    +0.023 A 
ATOM     25  C   UNL     1      -6.174 -10.777  18.774  0.00  0.00    +0.023 A 
BRANCH  20   7
ATOM      3  O   UNL     1      -9.606 -12.015  18.522  0.00  0.00    -0.275 OA
ATOM      7  N   UNL     1      -8.461 -10.014  18.943  0.00  0.00    -0.285 N 
ATOM     13  C   UNL     1      -9.530 -10.912  19.071  0.00  0.00    +0.220 C 
ATOM     28  H   UNL     1      -8.546  -9.139  19.457  0.00  0.00    +0.155 HD
BRANCH  13   8
ATOM      8  C   UNL     1     -10.656 -10.387  19.984  0.00  0.00    +0.075 C 
ATOM      9  C   UNL     1     -11.728 -11.399  20.440  0.00  0.00    +0.013 C 
ATOM     10  C   UNL     1     -11.799  -9.593  19.317  0.00  0.00    +0.013 C 
ATOM     11  C   UNL     1     -12.748 -10.244  20.346  0.00  0.00    +0.001 C 
ENDBRANCH  13   8
ENDBRANCH  20   7
ENDBRANCH  14  16
BRANCH  14   2
ATOM      2  O   UNL     1      -2.773 -11.459  16.619  0.00  0.00    -0.385 OA
ATOM     29  H   UNL     1      -1.949 -11.518  16.107  0.00  0.00    +0.210 HD
ENDBRANCH  14   2
TORSDOF 9
ENDMDL
