MODEL 1
REMARK VINA RESULT:      -7.9      0.000      0.000
REMARK  Name = 75536316
REMARK  7 active torsions:
REMARK  status: ('A' for Active; 'I' for Inactive)
REMARK    1  A    between atoms: O_2  and  C_8
REMARK    2  A    between atoms: N_4  and  C_6
REMARK    3  A    between atoms: N_4  and  C_11
REMARK    4  A    between atoms: C_7  and  C_11
REMARK    5  A    between atoms: C_12  and  C_18
REMARK    6  A    between atoms: C_18  and  C_19
REMARK    7  A    between atoms: C_21  and  C_22
REMARK                            x       y       z     vdW  Elec       q    Type
REMARK                         _______ _______ _______ _____ _____    ______ ____
ROOT
ATOM      1  O   UNL     1      10.684   8.290  19.742  0.00  0.00    -0.369 OA
ATOM      7  C   UNL     1      10.888   8.148  21.155  0.00  0.00    +0.161 C 
ATOM      8  C   UNL     1      11.692   6.882  21.477  0.00  0.00    +0.145 C 
ATOM     12  C   UNL     1      11.875   8.285  18.953  0.00  0.00    +0.125 C 
ATOM     13  C   UNL     1      12.959   6.767  20.633  0.00  0.00    +0.036 C 
ATOM     14  C   UNL     1      12.651   6.984  19.155  0.00  0.00    +0.034 C 
ENDROOT
BRANCH   8   2
ATOM      2  O   UNL     1      10.881   5.737  21.204  0.00  0.00    -0.389 OA
ATOM     29  H   UNL     1      11.474   5.005  20.965  0.00  0.00    +0.210 HD
ENDBRANCH   8   2
BRANCH   7  11
ATOM     11  C   UNL     1      11.501   9.413  21.752  0.00  0.00    +0.115 C 
BRANCH  11   4
ATOM      4  N   UNL     1      11.206   9.509  23.174  0.00  0.00    -0.311 NA
ATOM     28  H   UNL     1      12.056   9.306  23.701  0.00  0.00    +0.122 HD
BRANCH   4   6
ATOM      6  C   UNL     1      10.718  10.843  23.518  0.00  0.00    +0.054 C 
ATOM      9  C   UNL     1      11.194  11.224  24.925  0.00  0.00    +0.019 C 
ATOM     10  C   UNL     1      11.201  11.860  22.478  0.00  0.00    +0.019 C 
ATOM     15  C   UNL     1      10.767  12.645  25.292  0.00  0.00    +0.002 C 
ATOM     16  C   UNL     1      10.773  13.279  22.848  0.00  0.00    +0.002 C 
ATOM     17  C   UNL     1      11.235  13.659  24.252  0.00  0.00    +0.000 C 
ENDBRANCH   4   6
ENDBRANCH  11   4
ENDBRANCH   7  11
BRANCH  12  18
ATOM     18  C   UNL     1      11.459   8.447  17.495  0.00  0.00    +0.090 C 
BRANCH  18  19
ATOM      3  O   UNL     1      13.533   9.949  14.958  0.00  0.00    -0.354 OA
ATOM      5  N   UNL     1      12.452   9.176  15.363  0.00  0.00    -0.083 NA
ATOM     19  C   UNL     1      12.496   9.193  16.699  0.00  0.00    +0.087 A 
ATOM     20  C   UNL     1      13.574   9.953  17.187  0.00  0.00    +0.076 A 
ATOM     21  C   UNL     1      14.193  10.405  16.053  0.00  0.00    +0.167 A 
BRANCH  21  22
ATOM     22  C   UNL     1      15.340  11.226  15.791  0.00  0.00    +0.020 A 
ATOM     23  C   UNL     1      15.768  12.151  16.743  0.00  0.00    +0.011 A 
ATOM     24  C   UNL     1      16.027  11.099  14.584  0.00  0.00    +0.011 A 
ATOM     25  C   UNL     1      16.884  12.948  16.488  0.00  0.00    +0.001 A 
ATOM     26  C   UNL     1      17.142  11.896  14.328  0.00  0.00    +0.001 A 
ATOM     27  C   UNL     1      17.571  12.821  15.281  0.00  0.00    +0.000 A 
ENDBRANCH  21  22
ENDBRANCH  18  19
ENDBRANCH  12  18
TORSDOF 7
ENDMDL
MODEL 2
REMARK VINA RESULT:      -7.7      1.803      2.704
REMARK  Name = 75536316
REMARK  7 active torsions:
REMARK  status: ('A' for Active; 'I' for Inactive)
REMARK    1  A    between atoms: O_2  and  C_8
REMARK    2  A    between atoms: N_4  and  C_6
REMARK    3  A    between atoms: N_4  and  C_11
REMARK    4  A    between atoms: C_7  and  C_11
REMARK    5  A    between atoms: C_12  and  C_18
REMARK    6  A    between atoms: C_18  and  C_19
REMARK    7  A    between atoms: C_21  and  C_22
REMARK                            x       y       z     vdW  Elec       q    Type
REMARK                         _______ _______ _______ _____ _____    ______ ____
ROOT
ATOM      1  O   UNL     1      10.610   8.455  19.699  0.00  0.00    -0.369 OA
ATOM      7  C   UNL     1      10.782   8.379  21.121  0.00  0.00    +0.161 C 
ATOM      8  C   UNL     1      11.505   7.088  21.526  0.00  0.00    +0.145 C 
ATOM     12  C   UNL     1      11.812   8.338  18.934  0.00  0.00    +0.125 C 
ATOM     13  C   UNL     1      12.776   6.854  20.715  0.00  0.00    +0.036 C 
ATOM     14  C   UNL     1      12.507   7.007  19.221  0.00  0.00    +0.034 C 
ENDROOT
BRANCH   8   2
ATOM      2  O   UNL     1      10.633   5.979  21.299  0.00  0.00    -0.389 OA
ATOM     29  H   UNL     1      11.148   5.285  20.854  0.00  0.00    +0.210 HD
ENDBRANCH   8   2
BRANCH   7  11
ATOM     11  C   UNL     1      11.459   9.637  21.661  0.00  0.00    +0.115 C 
BRANCH  11   4
ATOM      4  N   UNL     1      12.524   9.293  22.590  0.00  0.00    -0.311 NA
ATOM     28  H   UNL     1      12.685   8.286  22.549  0.00  0.00    +0.122 HD
BRANCH   4   6
ATOM      6  C   UNL     1      13.757  10.003  22.260  0.00  0.00    +0.054 C 
ATOM      9  C   UNL     1      14.930   9.017  22.215  0.00  0.00    +0.019 C 
ATOM     10  C   UNL     1      13.597  10.733  20.922  0.00  0.00    +0.019 C 
ATOM     15  C   UNL     1      16.226   9.712  21.797  0.00  0.00    +0.002 C 
ATOM     16  C   UNL     1      14.894  11.425  20.507  0.00  0.00    +0.002 C 
ATOM     17  C   UNL     1      16.066  10.449  20.471  0.00  0.00    +0.000 C 
ENDBRANCH   4   6
ENDBRANCH  11   4
ENDBRANCH   7  11
BRANCH  12  18
ATOM     18  C   UNL     1      11.430   8.443  17.462  0.00  0.00    +0.090 C 
BRANCH  18  19
ATOM      3  O   UNL     1      13.518   9.932  14.930  0.00  0.00    -0.354 OA
ATOM      5  N   UNL     1      12.436   9.159  15.332  0.00  0.00    -0.083 NA
ATOM     19  C   UNL     1      12.471   9.186  16.668  0.00  0.00    +0.087 A 
ATOM     20  C   UNL     1      13.543   9.951  17.159  0.00  0.00    +0.076 A 
ATOM     21  C   UNL     1      14.170  10.398  16.025  0.00  0.00    +0.167 A 
BRANCH  21  22
ATOM     22  C   UNL     1      15.317  11.219  15.765  0.00  0.00    +0.020 A 
ATOM     23  C   UNL     1      15.951  11.158  14.525  0.00  0.00    +0.011 A 
ATOM     24  C   UNL     1      15.798  12.077  16.754  0.00  0.00    +0.011 A 
ATOM     25  C   UNL     1      17.066  11.957  14.272  0.00  0.00    +0.001 A 
ATOM     26  C   UNL     1      16.914  12.875  16.502  0.00  0.00    +0.001 A 
ATOM     27  C   UNL     1      17.548  12.815  15.260  0.00  0.00    +0.000 A 
ENDBRANCH  21  22
ENDBRANCH  18  19
ENDBRANCH  12  18
TORSDOF 7
ENDMDL
MODEL 3
REMARK VINA RESULT:      -7.6      4.306      5.429
REMARK  Name = 75536316
REMARK  7 active torsions:
REMARK  status: ('A' for Active; 'I' for Inactive)
REMARK    1  A    between atoms: O_2  and  C_8
REMARK    2  A    between atoms: N_4  and  C_6
REMARK    3  A    between atoms: N_4  and  C_11
REMARK    4  A    between atoms: C_7  and  C_11
REMARK    5  A    between atoms: C_12  and  C_18
REMARK    6  A    between atoms: C_18  and  C_19
REMARK    7  A    between atoms: C_21  and  C_22
REMARK                            x       y       z     vdW  Elec       q    Type
REMARK                         _______ _______ _______ _____ _____    ______ ____
ROOT
ATOM      1  O   UNL     1      13.174   8.945  19.651  0.00  0.00    -0.369 OA
ATOM      7  C   UNL     1      12.266   9.374  20.675  0.00  0.00    +0.161 C 
ATOM      8  C   UNL     1      11.142   8.351  20.886  0.00  0.00    +0.145 C 
ATOM     12  C   UNL     1      13.754   7.655  19.855  0.00  0.00    +0.125 C 
ATOM     13  C   UNL     1      11.672   6.930  21.055  0.00  0.00    +0.036 C 
ATOM     14  C   UNL     1      12.669   6.584  19.953  0.00  0.00    +0.034 C 
ENDROOT
BRANCH   8   2
ATOM      2  O   UNL     1      10.285   8.363  19.742  0.00  0.00    -0.389 OA
ATOM     29  H   UNL     1       9.953   9.270  19.631  0.00  0.00    +0.210 HD
ENDBRANCH   8   2
BRANCH   7  11
ATOM     11  C   UNL     1      13.011   9.716  21.964  0.00  0.00    +0.115 C 
BRANCH  11   4
ATOM      4  N   UNL     1      12.089   9.806  23.086  0.00  0.00    -0.311 NA
ATOM     28  H   UNL     1      12.458   9.254  23.861  0.00  0.00    +0.122 HD
BRANCH   4   6
ATOM      6  C   UNL     1      11.912  11.193  23.509  0.00  0.00    +0.054 C 
ATOM      9  C   UNL     1      11.107  11.960  22.453  0.00  0.00    +0.019 C 
ATOM     10  C   UNL     1      11.215  11.238  24.873  0.00  0.00    +0.019 C 
ATOM     15  C   UNL     1      10.836  13.398  22.896  0.00  0.00    +0.002 C 
ATOM     16  C   UNL     1      10.945  12.676  25.313  0.00  0.00    +0.002 C 
ATOM     17  C   UNL     1      10.154  13.447  24.260  0.00  0.00    +0.000 C 
ENDBRANCH   4   6
ENDBRANCH  11   4
ENDBRANCH   7  11
BRANCH  12  18
ATOM     18  C   UNL     1      14.682   7.380  18.677  0.00  0.00    +0.090 C 
BRANCH  18  19
ATOM      3  O   UNL     1      17.729   5.512  19.143  0.00  0.00    -0.354 OA
ATOM      5  N   UNL     1      16.538   5.774  18.479  0.00  0.00    -0.083 NA
ATOM     19  C   UNL     1      16.001   6.812  19.127  0.00  0.00    +0.087 A 
ATOM     20  C   UNL     1      16.802   7.242  20.200  0.00  0.00    +0.076 A 
ATOM     21  C   UNL     1      17.876   6.392  20.166  0.00  0.00    +0.167 A 
BRANCH  21  22
ATOM     22  C   UNL     1      19.069   6.245  20.948  0.00  0.00    +0.020 A 
ATOM     23  C   UNL     1      19.258   7.029  22.086  0.00  0.00    +0.011 A 
ATOM     24  C   UNL     1      20.041   5.319  20.570  0.00  0.00    +0.011 A 
ATOM     25  C   UNL     1      20.418   6.886  22.847  0.00  0.00    +0.001 A 
ATOM     26  C   UNL     1      21.201   5.176  21.329  0.00  0.00    +0.001 A 
ATOM     27  C   UNL     1      21.390   5.960  22.469  0.00  0.00    +0.000 A 
ENDBRANCH  21  22
ENDBRANCH  18  19
ENDBRANCH  12  18
TORSDOF 7
ENDMDL
MODEL 4
REMARK VINA RESULT:      -7.0     29.821     31.541
REMARK  Name = 75536316
REMARK  7 active torsions:
REMARK  status: ('A' for Active; 'I' for Inactive)
REMARK    1  A    between atoms: O_2  and  C_8
REMARK    2  A    between atoms: N_4  and  C_6
REMARK    3  A    between atoms: N_4  and  C_11
REMARK    4  A    between atoms: C_7  and  C_11
REMARK    5  A    between atoms: C_12  and  C_18
REMARK    6  A    between atoms: C_18  and  C_19
REMARK    7  A    between atoms: C_21  and  C_22
REMARK                            x       y       z     vdW  Elec       q    Type
REMARK                         _______ _______ _______ _____ _____    ______ ____
ROOT
ATOM      1  O   UNL     1     -13.933   1.884  31.185  0.00  0.00    -0.369 OA
ATOM      7  C   UNL     1     -13.969   1.471  29.812  0.00  0.00    +0.161 C 
ATOM      8  C   UNL     1     -13.992  -0.058  29.690  0.00  0.00    +0.145 C 
ATOM     12  C   UNL     1     -14.987   1.370  32.002  0.00  0.00    +0.125 C 
ATOM     13  C   UNL     1     -15.056  -0.696  30.579  0.00  0.00    +0.036 C 
ATOM     14  C   UNL     1     -14.973  -0.158  32.004  0.00  0.00    +0.034 C 
ENDROOT
BRANCH   8   2
ATOM      2  O   UNL     1     -12.721  -0.572  30.095  0.00  0.00    -0.389 OA
ATOM     29  H   UNL     1     -12.459  -0.107  30.907  0.00  0.00    +0.210 HD
ENDBRANCH   8   2
BRANCH   7  11
ATOM     11  C   UNL     1     -15.118   2.146  29.065  0.00  0.00    +0.115 C 
BRANCH  11   4
ATOM      4  N   UNL     1     -14.958   3.592  29.067  0.00  0.00    -0.311 NA
ATOM     28  H   UNL     1     -14.550   3.880  28.176  0.00  0.00    +0.122 HD
BRANCH   4   6
ATOM      6  C   UNL     1     -16.242   4.261  29.260  0.00  0.00    +0.054 C 
ATOM      9  C   UNL     1     -17.248   3.286  29.883  0.00  0.00    +0.019 C 
ATOM     10  C   UNL     1     -16.057   5.501  30.141  0.00  0.00    +0.019 C 
ATOM     15  C   UNL     1     -18.583   3.972  30.171  0.00  0.00    +0.002 C 
ATOM     16  C   UNL     1     -17.394   6.184  30.428  0.00  0.00    +0.002 C 
ATOM     17  C   UNL     1     -18.402   5.215  31.038  0.00  0.00    +0.000 C 
ENDBRANCH   4   6
ENDBRANCH  11   4
ENDBRANCH   7  11
BRANCH  12  18
ATOM     18  C   UNL     1     -14.782   1.915  33.411  0.00  0.00    +0.090 C 
BRANCH  18  19
ATOM      3  O   UNL     1     -15.767   5.380  33.526  0.00  0.00    -0.354 OA
ATOM      5  N   UNL     1     -16.053   4.021  33.511  0.00  0.00    -0.083 NA
ATOM     19  C   UNL     1     -14.863   3.418  33.445  0.00  0.00    +0.087 A 
ATOM     20  C   UNL     1     -13.800   4.338  33.414  0.00  0.00    +0.076 A 
ATOM     21  C   UNL     1     -14.423   5.557  33.467  0.00  0.00    +0.167 A 
BRANCH  21  22
ATOM     22  C   UNL     1     -13.972   6.918  33.475  0.00  0.00    +0.020 A 
ATOM     23  C   UNL     1     -14.130   7.712  32.339  0.00  0.00    +0.011 A 
ATOM     24  C   UNL     1     -13.376   7.449  34.619  0.00  0.00    +0.011 A 
ATOM     25  C   UNL     1     -13.692   9.036  32.347  0.00  0.00    +0.001 A 
ATOM     26  C   UNL     1     -12.938   8.772  34.628  0.00  0.00    +0.001 A 
ATOM     27  C   UNL     1     -13.096   9.567  33.491  0.00  0.00    +0.000 A 
ENDBRANCH  21  22
ENDBRANCH  18  19
ENDBRANCH  12  18
TORSDOF 7
ENDMDL
MODEL 5
REMARK VINA RESULT:      -7.0      3.309      7.881
REMARK  Name = 75536316
REMARK  7 active torsions:
REMARK  status: ('A' for Active; 'I' for Inactive)
REMARK    1  A    between atoms: O_2  and  C_8
REMARK    2  A    between atoms: N_4  and  C_6
REMARK    3  A    between atoms: N_4  and  C_11
REMARK    4  A    between atoms: C_7  and  C_11
REMARK    5  A    between atoms: C_12  and  C_18
REMARK    6  A    between atoms: C_18  and  C_19
REMARK    7  A    between atoms: C_21  and  C_22
REMARK                            x       y       z     vdW  Elec       q    Type
REMARK                         _______ _______ _______ _____ _____    ______ ____
ROOT
ATOM      1  O   UNL     1      12.009   7.308  20.611  0.00  0.00    -0.369 OA
ATOM      7  C   UNL     1      13.059   6.718  19.833  0.00  0.00    +0.161 C 
ATOM      8  C   UNL     1      13.156   7.366  18.445  0.00  0.00    +0.145 C 
ATOM     12  C   UNL     1      12.090   8.726  20.767  0.00  0.00    +0.125 C 
ATOM     13  C   UNL     1      13.190   8.890  18.516  0.00  0.00    +0.036 C 
ATOM     14  C   UNL     1      12.070   9.421  19.406  0.00  0.00    +0.034 C 
ENDROOT
BRANCH   8   2
ATOM      2  O   UNL     1      12.008   6.991  17.680  0.00  0.00    -0.389 OA
ATOM     29  H   UNL     1      12.045   6.029  17.545  0.00  0.00    +0.210 HD
ENDBRANCH   8   2
BRANCH   7  11
ATOM     11  C   UNL     1      14.384   6.737  20.593  0.00  0.00    +0.115 C 
BRANCH  11   4
ATOM      4  N   UNL     1      15.475   6.287  19.741  0.00  0.00    -0.311 NA
ATOM     28  H   UNL     1      15.187   6.370  18.766  0.00  0.00    +0.122 HD
BRANCH   4   6
ATOM      6  C   UNL     1      16.679   7.083  19.969  0.00  0.00    +0.054 C 
ATOM      9  C   UNL     1      16.368   8.235  20.932  0.00  0.00    +0.019 C 
ATOM     10  C   UNL     1      17.798   6.191  20.518  0.00  0.00    +0.019 C 
ATOM     15  C   UNL     1      17.623   9.046  21.255  0.00  0.00    +0.002 C 
ATOM     16  C   UNL     1      19.050   7.005  20.841  0.00  0.00    +0.002 C 
ATOM     17  C   UNL     1      18.743   8.159  21.791  0.00  0.00    +0.000 C 
ENDBRANCH   4   6
ENDBRANCH  11   4
ENDBRANCH   7  11
BRANCH  12  18
ATOM     18  C   UNL     1      10.902   9.162  21.616  0.00  0.00    +0.090 C 
BRANCH  18  19
ATOM      3  O   UNL     1      11.528  12.595  22.516  0.00  0.00    -0.354 OA
ATOM      5  N   UNL     1      11.307  11.590  21.583  0.00  0.00    -0.083 NA
ATOM     19  C   UNL     1      11.161  10.475  22.305  0.00  0.00    +0.087 A 
ATOM     20  C   UNL     1      11.280  10.714  23.686  0.00  0.00    +0.076 A 
ATOM     21  C   UNL     1      11.510  12.062  23.764  0.00  0.00    +0.167 A 
BRANCH  21  22
ATOM     22  C   UNL     1      11.724  12.986  24.840  0.00  0.00    +0.020 A 
ATOM     23  C   UNL     1      10.690  13.824  25.256  0.00  0.00    +0.011 A 
ATOM     24  C   UNL     1      12.967  13.046  25.470  0.00  0.00    +0.011 A 
ATOM     25  C   UNL     1      10.898  14.722  26.302  0.00  0.00    +0.001 A 
ATOM     26  C   UNL     1      13.176  13.945  26.516  0.00  0.00    +0.001 A 
ATOM     27  C   UNL     1      12.140  14.783  26.932  0.00  0.00    +0.000 A 
ENDBRANCH  21  22
ENDBRANCH  18  19
ENDBRANCH  12  18
TORSDOF 7
ENDMDL
MODEL 6
REMARK VINA RESULT:      -6.9     26.676     28.975
REMARK  Name = 75536316
REMARK  7 active torsions:
REMARK  status: ('A' for Active; 'I' for Inactive)
REMARK    1  A    between atoms: O_2  and  C_8
REMARK    2  A    between atoms: N_4  and  C_6
REMARK    3  A    between atoms: N_4  and  C_11
REMARK    4  A    between atoms: C_7  and  C_11
REMARK    5  A    between atoms: C_12  and  C_18
REMARK    6  A    between atoms: C_18  and  C_19
REMARK    7  A    between atoms: C_21  and  C_22
REMARK                            x       y       z     vdW  Elec       q    Type
REMARK                         _______ _______ _______ _____ _____    ______ ____
ROOT
ATOM      1  O   UNL     1      -2.309 -11.439  15.704  0.00  0.00    -0.369 OA
ATOM      7  C   UNL     1      -1.973 -11.712  14.337  0.00  0.00    +0.161 C 
ATOM      8  C   UNL     1      -2.614 -13.021  13.856  0.00  0.00    +0.145 C 
ATOM     12  C   UNL     1      -3.709 -11.401  15.990  0.00  0.00    +0.125 C 
ATOM     13  C   UNL     1      -4.105 -13.089  14.174  0.00  0.00    +0.036 C 
ATOM     14  C   UNL     1      -4.369 -12.733  15.634  0.00  0.00    +0.034 C 
ENDROOT
BRANCH   8   2
ATOM      2  O   UNL     1      -1.977 -14.117  14.516  0.00  0.00    -0.389 OA
ATOM     29  H   UNL     1      -1.123 -13.800  14.856  0.00  0.00    +0.210 HD
ENDBRANCH   8   2
BRANCH   7  11
ATOM     11  C   UNL     1      -2.305 -10.521  13.440  0.00  0.00    +0.115 C 
BRANCH  11   4
ATOM      4  N   UNL     1      -2.097 -10.855  12.039  0.00  0.00    -0.311 NA
ATOM     28  H   UNL     1      -1.950 -11.861  11.958  0.00  0.00    +0.122 HD
BRANCH   4   6
ATOM      6  C   UNL     1      -3.247 -10.458  11.229  0.00  0.00    +0.054 C 
ATOM      9  C   UNL     1      -4.398 -10.017  12.141  0.00  0.00    +0.019 C 
ATOM     10  C   UNL     1      -2.845  -9.337  10.265  0.00  0.00    +0.019 C 
ATOM     15  C   UNL     1      -5.594  -9.522  11.328  0.00  0.00    +0.002 C 
ATOM     16  C   UNL     1      -4.043  -8.844   9.455  0.00  0.00    +0.002 C 
ATOM     17  C   UNL     1      -5.194  -8.413  10.358  0.00  0.00    +0.000 C 
ENDBRANCH   4   6
ENDBRANCH  11   4
ENDBRANCH   7  11
BRANCH  12  18
ATOM     18  C   UNL     1      -3.865 -11.099  17.476  0.00  0.00    +0.090 C 
BRANCH  18  19
ATOM      3  O   UNL     1      -7.101 -10.705  19.013  0.00  0.00    -0.354 OA
ATOM      5  N   UNL     1      -5.787 -11.158  19.012  0.00  0.00    -0.083 NA
ATOM     19  C   UNL     1      -5.291 -10.775  17.832  0.00  0.00    +0.087 A 
ATOM     20  C   UNL     1      -6.237 -10.084  17.054  0.00  0.00    +0.076 A 
ATOM     21  C   UNL     1      -7.357 -10.068  17.842  0.00  0.00    +0.167 A 
BRANCH  21  22
ATOM     22  C   UNL     1      -8.683  -9.541  17.697  0.00  0.00    +0.020 A 
ATOM     23  C   UNL     1      -8.916  -8.469  16.836  0.00  0.00    +0.011 A 
ATOM     24  C   UNL     1      -9.738 -10.099  18.418  0.00  0.00    +0.011 A 
ATOM     25  C   UNL     1     -10.206  -7.956  16.695  0.00  0.00    +0.001 A 
ATOM     26  C   UNL     1     -11.027  -9.587  18.278  0.00  0.00    +0.001 A 
ATOM     27  C   UNL     1     -11.261  -8.515  17.415  0.00  0.00    +0.000 A 
ENDBRANCH  21  22
ENDBRANCH  18  19
ENDBRANCH  12  18
TORSDOF 7
ENDMDL
MODEL 7
REMARK VINA RESULT:      -6.9      4.263      8.413
REMARK  Name = 75536316
REMARK  7 active torsions:
REMARK  status: ('A' for Active; 'I' for Inactive)
REMARK    1  A    between atoms: O_2  and  C_8
REMARK    2  A    between atoms: N_4  and  C_6
REMARK    3  A    between atoms: N_4  and  C_11
REMARK    4  A    between atoms: C_7  and  C_11
REMARK    5  A    between atoms: C_12  and  C_18
REMARK    6  A    between atoms: C_18  and  C_19
REMARK    7  A    between atoms: C_21  and  C_22
REMARK                            x       y       z     vdW  Elec       q    Type
REMARK                         _______ _______ _______ _____ _____    ______ ____
ROOT
ATOM      1  O   UNL     1      12.456   8.372  22.343  0.00  0.00    -0.369 OA
ATOM      7  C   UNL     1      13.485   7.608  21.699  0.00  0.00    +0.161 C 
ATOM      8  C   UNL     1      12.913   6.746  20.566  0.00  0.00    +0.145 C 
ATOM     12  C   UNL     1      11.683   9.203  21.474  0.00  0.00    +0.125 C 
ATOM     13  C   UNL     1      12.023   7.547  19.619  0.00  0.00    +0.036 C 
ATOM     14  C   UNL     1      10.997   8.367  20.396  0.00  0.00    +0.034 C 
ENDROOT
BRANCH   8   2
ATOM      2  O   UNL     1      12.117   5.704  21.135  0.00  0.00    -0.389 OA
ATOM     29  H   UNL     1      11.348   5.569  20.555  0.00  0.00    +0.210 HD
ENDBRANCH   8   2
BRANCH   7  11
ATOM     11  C   UNL     1      14.634   8.505  21.243  0.00  0.00    +0.115 C 
BRANCH  11   4
ATOM      4  N   UNL     1      15.875   8.133  21.906  0.00  0.00    -0.311 NA
ATOM     28  H   UNL     1      15.683   7.376  22.563  0.00  0.00    +0.122 HD
BRANCH   4   6
ATOM      6  C   UNL     1      16.879   7.702  20.936  0.00  0.00    +0.054 C 
ATOM      9  C   UNL     1      18.197   7.390  21.654  0.00  0.00    +0.019 C 
ATOM     10  C   UNL     1      16.368   6.480  20.165  0.00  0.00    +0.019 C 
ATOM     15  C   UNL     1      19.250   6.863  20.681  0.00  0.00    +0.002 C 
ATOM     16  C   UNL     1      17.424   5.955  19.193  0.00  0.00    +0.002 C 
ATOM     17  C   UNL     1      18.741   5.653  19.902  0.00  0.00    +0.000 C 
ENDBRANCH   4   6
ENDBRANCH  11   4
ENDBRANCH   7  11
BRANCH  12  18
ATOM     18  C   UNL     1      10.654   9.930  22.333  0.00  0.00    +0.090 C 
BRANCH  18  19
ATOM      3  O   UNL     1      12.597  12.726  23.517  0.00  0.00    -0.354 OA
ATOM      5  N   UNL     1      12.271  11.773  22.560  0.00  0.00    -0.083 NA
ATOM     19  C   UNL     1      11.272  11.068  23.100  0.00  0.00    +0.087 A 
ATOM     20  C   UNL     1      10.931  11.526  24.385  0.00  0.00    +0.076 A 
ATOM     21  C   UNL     1      11.793  12.568  24.599  0.00  0.00    +0.167 A 
BRANCH  21  22
ATOM     22  C   UNL     1      12.013  13.488  25.677  0.00  0.00    +0.020 A 
ATOM     23  C   UNL     1      13.247  13.520  26.326  0.00  0.00    +0.011 A 
ATOM     24  C   UNL     1      10.992  14.350  26.077  0.00  0.00    +0.011 A 
ATOM     25  C   UNL     1      13.461  14.415  27.374  0.00  0.00    +0.001 A 
ATOM     26  C   UNL     1      11.205  15.245  27.125  0.00  0.00    +0.001 A 
ATOM     27  C   UNL     1      12.440  15.277  27.774  0.00  0.00    +0.000 A 
ENDBRANCH  21  22
ENDBRANCH  18  19
ENDBRANCH  12  18
TORSDOF 7
ENDMDL
MODEL 8
REMARK VINA RESULT:      -6.8     26.968     28.557
REMARK  Name = 75536316
REMARK  7 active torsions:
REMARK  status: ('A' for Active; 'I' for Inactive)
REMARK    1  A    between atoms: O_2  and  C_8
REMARK    2  A    between atoms: N_4  and  C_6
REMARK    3  A    between atoms: N_4  and  C_11
REMARK    4  A    between atoms: C_7  and  C_11
REMARK    5  A    between atoms: C_12  and  C_18
REMARK    6  A    between atoms: C_18  and  C_19
REMARK    7  A    between atoms: C_21  and  C_22
REMARK                            x       y       z     vdW  Elec       q    Type
REMARK                         _______ _______ _______ _____ _____    ______ ____
ROOT
ATOM      1  O   UNL     1      -6.358 -10.101  17.100  0.00  0.00    -0.369 OA
ATOM      7  C   UNL     1      -5.244 -10.373  17.961  0.00  0.00    +0.161 C 
ATOM      8  C   UNL     1      -5.691 -11.093  19.240  0.00  0.00    +0.145 C 
ATOM     12  C   UNL     1      -7.140 -11.241  16.740  0.00  0.00    +0.125 C 
ATOM     13  C   UNL     1      -6.583 -12.296  18.948  0.00  0.00    +0.036 C 
ATOM     14  C   UNL     1      -7.706 -11.923  17.984  0.00  0.00    +0.034 C 
ENDROOT
BRANCH   8   2
ATOM      2  O   UNL     1      -6.440 -10.180  20.046  0.00  0.00    -0.389 OA
ATOM     29  H   UNL     1      -6.182 -10.324  20.972  0.00  0.00    +0.210 HD
ENDBRANCH   8   2
BRANCH   7  11
ATOM     11  C   UNL     1      -4.139 -11.117  17.214  0.00  0.00    +0.115 C 
BRANCH  11   4
ATOM      4  N   UNL     1      -3.646 -10.325  16.097  0.00  0.00    -0.311 NA
ATOM     28  H   UNL     1      -3.049  -9.581  16.459  0.00  0.00    +0.122 HD
BRANCH   4   6
ATOM      6  C   UNL     1      -2.890 -11.154  15.161  0.00  0.00    +0.054 C 
ATOM      9  C   UNL     1      -3.546 -12.534  15.039  0.00  0.00    +0.019 C 
ATOM     10  C   UNL     1      -2.808 -10.459  13.797  0.00  0.00    +0.019 C 
ATOM     15  C   UNL     1      -2.826 -13.404  14.010  0.00  0.00    +0.002 C 
ATOM     16  C   UNL     1      -2.088 -11.332  12.770  0.00  0.00    +0.002 C 
ATOM     17  C   UNL     1      -2.732 -12.711  12.653  0.00  0.00    +0.000 C 
ENDBRANCH   4   6
ENDBRANCH  11   4
ENDBRANCH   7  11
BRANCH  12  18
ATOM     18  C   UNL     1      -8.263 -10.756  15.830  0.00  0.00    +0.090 C 
BRANCH  18  19
ATOM      3  O   UNL     1      -7.714  -9.392  12.539  0.00  0.00    -0.354 OA
ATOM      5  N   UNL     1      -8.466  -9.541  13.698  0.00  0.00    -0.083 NA
ATOM     19  C   UNL     1      -7.750 -10.364  14.471  0.00  0.00    +0.087 A 
ATOM     20  C   UNL     1      -6.549 -10.762  13.856  0.00  0.00    +0.076 A 
ATOM     21  C   UNL     1      -6.576 -10.123  12.645  0.00  0.00    +0.167 A 
BRANCH  21  22
ATOM     22  C   UNL     1      -5.693 -10.067  11.516  0.00  0.00    +0.020 A 
ATOM     23  C   UNL     1      -5.093  -8.859  11.160  0.00  0.00    +0.011 A 
ATOM     24  C   UNL     1      -5.433 -11.219  10.775  0.00  0.00    +0.011 A 
ATOM     25  C   UNL     1      -4.234  -8.803  10.063  0.00  0.00    +0.001 A 
ATOM     26  C   UNL     1      -4.575 -11.164   9.678  0.00  0.00    +0.001 A 
ATOM     27  C   UNL     1      -3.974  -9.956   9.322  0.00  0.00    +0.000 A 
ENDBRANCH  21  22
ENDBRANCH  18  19
ENDBRANCH  12  18
TORSDOF 7
ENDMDL
MODEL 9
REMARK VINA RESULT:      -6.8     17.137     20.629
REMARK  Name = 75536316
REMARK  7 active torsions:
REMARK  status: ('A' for Active; 'I' for Inactive)
REMARK    1  A    between atoms: O_2  and  C_8
REMARK    2  A    between atoms: N_4  and  C_6
REMARK    3  A    between atoms: N_4  and  C_11
REMARK    4  A    between atoms: C_7  and  C_11
REMARK    5  A    between atoms: C_12  and  C_18
REMARK    6  A    between atoms: C_18  and  C_19
REMARK    7  A    between atoms: C_21  and  C_22
REMARK                            x       y       z     vdW  Elec       q    Type
REMARK                         _______ _______ _______ _____ _____    ______ ____
ROOT
ATOM      1  O   UNL     1      12.799   2.937   0.650  0.00  0.00    -0.369 OA
ATOM      7  C   UNL     1      13.151   3.688   1.820  0.00  0.00    +0.161 C 
ATOM      8  C   UNL     1      14.595   4.200   1.739  0.00  0.00    +0.145 C 
ATOM     12  C   UNL     1      12.977   3.623  -0.590  0.00  0.00    +0.125 C 
ATOM     13  C   UNL     1      14.891   4.900   0.415  0.00  0.00    +0.036 C 
ATOM     14  C   UNL     1      14.434   4.049  -0.767  0.00  0.00    +0.034 C 
ENDROOT
BRANCH   8   2
ATOM      2  O   UNL     1      15.486   3.088   1.852  0.00  0.00    -0.389 OA
ATOM     29  H   UNL     1      16.157   3.175   1.155  0.00  0.00    +0.210 HD
ENDBRANCH   8   2
BRANCH   7  11
ATOM     11  C   UNL     1      12.139   4.800   2.085  0.00  0.00    +0.115 C 
BRANCH  11   4
ATOM      4  N   UNL     1      12.552   5.618   3.216  0.00  0.00    -0.311 NA
ATOM     28  H   UNL     1      13.010   6.459   2.864  0.00  0.00    +0.122 HD
BRANCH   4   6
ATOM      6  C   UNL     1      11.405   5.989   4.041  0.00  0.00    +0.054 C 
ATOM      9  C   UNL     1      10.517   4.763   4.281  0.00  0.00    +0.019 C 
ATOM     10  C   UNL     1      11.888   6.590   5.366  0.00  0.00    +0.019 C 
ATOM     15  C   UNL     1       9.345   5.096   5.205  0.00  0.00    +0.002 C 
ATOM     16  C   UNL     1      10.714   6.920   6.287  0.00  0.00    +0.002 C 
ATOM     17  C   UNL     1       9.822   5.705   6.520  0.00  0.00    +0.000 C 
ENDBRANCH   4   6
ENDBRANCH  11   4
ENDBRANCH   7  11
BRANCH  12  18
ATOM     18  C   UNL     1      12.552   2.673  -1.705  0.00  0.00    +0.090 C 
BRANCH  18  19
ATOM      3  O   UNL     1       9.341   2.915  -3.323  0.00  0.00    -0.354 OA
ATOM      5  N   UNL     1      10.411   2.187  -2.817  0.00  0.00    -0.083 NA
ATOM     19  C   UNL     1      11.258   3.104  -2.340  0.00  0.00    +0.087 A 
ATOM     20  C   UNL     1      10.780   4.415  -2.517  0.00  0.00    +0.076 A 
ATOM     21  C   UNL     1       9.572   4.240  -3.139  0.00  0.00    +0.167 A 
BRANCH  21  22
ATOM     22  C   UNL     1       8.546   5.122  -3.613  0.00  0.00    +0.020 A 
ATOM     23  C   UNL     1       8.038   4.972  -4.903  0.00  0.00    +0.011 A 
ATOM     24  C   UNL     1       8.057   6.131  -2.784  0.00  0.00    +0.011 A 
ATOM     25  C   UNL     1       7.040   5.831  -5.364  0.00  0.00    +0.001 A 
ATOM     26  C   UNL     1       7.060   6.991  -3.244  0.00  0.00    +0.001 A 
ATOM     27  C   UNL     1       6.551   6.840  -4.535  0.00  0.00    +0.000 A 
ENDBRANCH  21  22
ENDBRANCH  18  19
ENDBRANCH  12  18
TORSDOF 7
ENDMDL
MODEL 10
REMARK VINA RESULT:      -6.8     26.852     28.892
REMARK  Name = 75536316
REMARK  7 active torsions:
REMARK  status: ('A' for Active; 'I' for Inactive)
REMARK    1  A    between atoms: O_2  and  C_8
REMARK    2  A    between atoms: N_4  and  C_6
REMARK    3  A    between atoms: N_4  and  C_11
REMARK    4  A    between atoms: C_7  and  C_11
REMARK    5  A    between atoms: C_12  and  C_18
REMARK    6  A    between atoms: C_18  and  C_19
REMARK    7  A    between atoms: C_21  and  C_22
REMARK                            x       y       z     vdW  Elec       q    Type
REMARK                         _______ _______ _______ _____ _____    ______ ____
ROOT
ATOM      1  O   UNL     1      -4.383  -9.185  11.411  0.00  0.00    -0.369 OA
ATOM      7  C   UNL     1      -5.605  -8.894  10.719  0.00  0.00    +0.161 C 
ATOM      8  C   UNL     1      -5.519  -9.297   9.241  0.00  0.00    +0.145 C 
ATOM     12  C   UNL     1      -3.946 -10.543  11.327  0.00  0.00    +0.125 C 
ATOM     13  C   UNL     1      -5.002 -10.721   9.056  0.00  0.00    +0.036 C 
ATOM     14  C   UNL     1      -3.732 -10.952   9.870  0.00  0.00    +0.034 C 
ENDROOT
BRANCH   8   2
ATOM      2  O   UNL     1      -4.613  -8.415   8.575  0.00  0.00    -0.389 OA
ATOM     29  H   UNL     1      -5.119  -7.921   7.908  0.00  0.00    +0.210 HD
ENDBRANCH   8   2
BRANCH   7  11
ATOM     11  C   UNL     1      -6.805  -9.511  11.436  0.00  0.00    +0.115 C 
BRANCH  11   4
ATOM      4  N   UNL     1      -6.842  -9.099  12.831  0.00  0.00    -0.311 NA
ATOM     28  H   UNL     1      -7.205  -8.146  12.883  0.00  0.00    +0.122 HD
BRANCH   4   6
ATOM      6  C   UNL     1      -7.689  -9.992  13.619  0.00  0.00    +0.054 C 
ATOM      9  C   UNL     1      -7.493 -11.440  13.153  0.00  0.00    +0.019 C 
ATOM     10  C   UNL     1      -7.361  -9.842  15.108  0.00  0.00    +0.019 C 
ATOM     15  C   UNL     1      -8.306 -12.414  14.005  0.00  0.00    +0.002 C 
ATOM     16  C   UNL     1      -8.175 -10.818  15.957  0.00  0.00    +0.002 C 
ATOM     17  C   UNL     1      -7.992 -12.259  15.490  0.00  0.00    +0.000 C 
ENDBRANCH   4   6
ENDBRANCH  11   4
ENDBRANCH   7  11
BRANCH  12  18
ATOM     18  C   UNL     1      -2.647 -10.656  12.117  0.00  0.00    +0.090 C 
BRANCH  18  19
ATOM      3  O   UNL     1      -2.517 -10.601  15.718  0.00  0.00    -0.354 OA
ATOM      5  N   UNL     1      -1.963 -10.375  14.465  0.00  0.00    -0.083 NA
ATOM     19  C   UNL     1      -2.902 -10.760  13.596  0.00  0.00    +0.087 A 
ATOM     20  C   UNL     1      -4.059 -11.236  14.239  0.00  0.00    +0.076 A 
ATOM     21  C   UNL     1      -3.765 -11.115  15.571  0.00  0.00    +0.167 A 
BRANCH  21  22
ATOM     22  C   UNL     1      -4.468 -11.401  16.788  0.00  0.00    +0.020 A 
ATOM     23  C   UNL     1      -4.799 -12.718  17.109  0.00  0.00    +0.011 A 
ATOM     24  C   UNL     1      -4.821 -10.364  17.650  0.00  0.00    +0.011 A 
ATOM     25  C   UNL     1      -5.483 -12.996  18.292  0.00  0.00    +0.001 A 
ATOM     26  C   UNL     1      -5.505 -10.641  18.833  0.00  0.00    +0.001 A 
ATOM     27  C   UNL     1      -5.836 -11.959  19.154  0.00  0.00    +0.000 A 
ENDBRANCH  21  22
ENDBRANCH  18  19
ENDBRANCH  12  18
TORSDOF 7
ENDMDL
