MODEL 1
REMARK VINA RESULT:      -6.8      0.000      0.000
REMARK  Name = 56775665
REMARK  9 active torsions:
REMARK  status: ('A' for Active; 'I' for Inactive)
REMARK    1  A    between atoms: O_3  and  C_16
REMARK    2  A    between atoms: O_4  and  C_18
REMARK    3  A    between atoms: O_4  and  C_22
REMARK    4  A    between atoms: N_5  and  C_7
REMARK    5  A    between atoms: N_5  and  C_11
REMARK    6  A    between atoms: C_7  and  C_10
REMARK    7  A    between atoms: C_10  and  C_12
REMARK    8  A    between atoms: C_11  and  C_13
REMARK    9  A    between atoms: C_15  and  C_18
REMARK                            x       y       z     vdW  Elec       q    Type
REMARK                         _______ _______ _______ _____ _____    ______ ____
ROOT
ATOM      1  O   UNL     1      13.235   9.920  16.911  0.00  0.00    -0.376 OA
ATOM      7  C   UNL     1      13.485   8.186  18.130  0.00  0.00    +0.072 C 
ATOM      8  C   UNL     1      13.228   8.496  16.659  0.00  0.00    +0.184 C 
ATOM      9  C   UNL     1      13.385   9.694  18.331  0.00  0.00    +0.184 C 
ENDROOT
BRANCH   7   5
ATOM      5  N   UNL     1      14.884   7.781  18.287  0.00  0.00    -0.302 NA
ATOM     28  H   UNL     1      15.514   8.517  18.605  0.00  0.00    +0.123 HD
BRANCH   5  11
ATOM     11  C   UNL     1      14.955   6.641  19.202  0.00  0.00    +0.120 C 
BRANCH  11  13
ATOM     13  C   UNL     1      16.327   6.445  19.758  0.00  0.00    +0.008 A 
ATOM     16  C   UNL     1      16.641   6.870  21.049  0.00  0.00    +0.121 A 
ATOM     17  C   UNL     1      17.299   5.828  18.971  0.00  0.00    +0.008 A 
ATOM     19  C   UNL     1      17.927   6.679  21.553  0.00  0.00    +0.046 A 
ATOM     20  C   UNL     1      18.586   5.636  19.474  0.00  0.00    +0.001 A 
ATOM     21  C   UNL     1      18.900   6.061  20.765  0.00  0.00    +0.004 A 
BRANCH  16   3
ATOM      3  O   UNL     1      15.703   7.475  21.831  0.00  0.00    -0.506 OA
ATOM     29  H   UNL     1      14.818   7.201  21.535  0.00  0.00    +0.292 HD
ENDBRANCH  16   3
ENDBRANCH  11  13
ENDBRANCH   5  11
ENDBRANCH   7   5
BRANCH   7  10
ATOM     10  C   UNL     1      12.532   7.289  18.860  0.00  0.00    +0.085 C 
BRANCH  10  12
ATOM      2  O   UNL     1      12.216   8.211  22.339  0.00  0.00    -0.356 OA
ATOM      6  N   UNL     1      12.791   7.479  21.307  0.00  0.00    -0.083 NA
ATOM     12  C   UNL     1      12.158   7.882  20.202  0.00  0.00    +0.086 A 
ATOM     14  C   UNL     1      11.182   8.856  20.472  0.00  0.00    +0.074 A 
ATOM     15  C   UNL     1      11.258   9.027  21.829  0.00  0.00    +0.175 A 
BRANCH  15  18
ATOM     18  C   UNL     1      10.542   9.878  22.788  0.00  0.00    +0.306 C 
BRANCH  18   4
ATOM      4  O   UNL     1      11.470  10.647  23.557  0.00  0.00    -0.484 OA
BRANCH   4  22
ATOM     22  C   UNL     1      11.068  11.903  23.919  0.00  0.00    +0.121 A 
ATOM     23  C   UNL     1      10.951  12.235  25.268  0.00  0.00    +0.045 A 
ATOM     24  C   UNL     1      10.776  12.851  22.938  0.00  0.00    +0.045 A 
ATOM     25  C   UNL     1      10.542  13.516  25.638  0.00  0.00    +0.004 A 
ATOM     26  C   UNL     1      10.367  14.132  23.308  0.00  0.00    +0.004 A 
ATOM     27  C   UNL     1      10.249  14.465  24.657  0.00  0.00    +0.000 A 
ENDBRANCH   4  22
ENDBRANCH  18   4
ENDBRANCH  15  18
ENDBRANCH  10  12
ENDBRANCH   7  10
TORSDOF 9
ENDMDL
MODEL 2
REMARK VINA RESULT:      -6.7     27.229     30.189
REMARK  Name = 56775665
REMARK  9 active torsions:
REMARK  status: ('A' for Active; 'I' for Inactive)
REMARK    1  A    between atoms: O_3  and  C_16
REMARK    2  A    between atoms: O_4  and  C_18
REMARK    3  A    between atoms: O_4  and  C_22
REMARK    4  A    between atoms: N_5  and  C_7
REMARK    5  A    between atoms: N_5  and  C_11
REMARK    6  A    between atoms: C_7  and  C_10
REMARK    7  A    between atoms: C_10  and  C_12
REMARK    8  A    between atoms: C_11  and  C_13
REMARK    9  A    between atoms: C_15  and  C_18
REMARK                            x       y       z     vdW  Elec       q    Type
REMARK                         _______ _______ _______ _____ _____    ______ ____
ROOT
ATOM      1  O   UNL     1     -19.415   3.055  26.931  0.00  0.00    -0.376 OA
ATOM      7  C   UNL     1     -17.333   2.707  27.243  0.00  0.00    +0.072 C 
ATOM      8  C   UNL     1     -18.207   3.769  26.585  0.00  0.00    +0.184 C 
ATOM      9  C   UNL     1     -18.643   1.967  27.488  0.00  0.00    +0.184 C 
ENDROOT
BRANCH   7   5
ATOM      5  N   UNL     1     -16.839   3.229  28.520  0.00  0.00    -0.302 NA
ATOM     28  H   UNL     1     -17.371   2.938  29.340  0.00  0.00    +0.123 HD
BRANCH   5  11
ATOM     11  C   UNL     1     -15.435   2.854  28.683  0.00  0.00    +0.120 C 
BRANCH  11  13
ATOM     13  C   UNL     1     -14.847   3.391  29.946  0.00  0.00    +0.008 A 
ATOM     16  C   UNL     1     -13.710   2.810  30.506  0.00  0.00    +0.121 A 
ATOM     17  C   UNL     1     -15.448   4.487  30.565  0.00  0.00    +0.008 A 
ATOM     19  C   UNL     1     -13.173   3.325  31.686  0.00  0.00    +0.046 A 
ATOM     20  C   UNL     1     -14.912   5.002  31.746  0.00  0.00    +0.001 A 
ATOM     21  C   UNL     1     -13.774   4.421  32.306  0.00  0.00    +0.004 A 
BRANCH  16   3
ATOM      3  O   UNL     1     -13.110   1.739  29.914  0.00  0.00    -0.506 OA
ATOM     29  H   UNL     1     -12.446   2.058  29.279  0.00  0.00    +0.292 HD
ENDBRANCH  16   3
ENDBRANCH  11  13
ENDBRANCH   5  11
ENDBRANCH   7   5
BRANCH   7  10
ATOM     10  C   UNL     1     -16.263   2.043  26.431  0.00  0.00    +0.085 C 
BRANCH  10  12
ATOM      2  O   UNL     1     -16.455   2.791  22.902  0.00  0.00    -0.356 OA
ATOM      6  N   UNL     1     -16.675   1.967  23.999  0.00  0.00    -0.083 NA
ATOM     12  C   UNL     1     -16.190   2.644  25.044  0.00  0.00    +0.086 A 
ATOM     14  C   UNL     1     -15.656   3.889  24.670  0.00  0.00    +0.074 A 
ATOM     15  C   UNL     1     -15.846   3.933  23.315  0.00  0.00    +0.175 A 
BRANCH  15  18
ATOM     18  C   UNL     1     -15.536   4.923  22.276  0.00  0.00    +0.306 C 
BRANCH  18   4
ATOM      4  O   UNL     1     -14.159   4.838  21.904  0.00  0.00    -0.484 OA
BRANCH   4  22
ATOM     22  C   UNL     1     -13.561   6.002  21.506  0.00  0.00    +0.121 A 
ATOM     23  C   UNL     1     -12.188   6.034  21.270  0.00  0.00    +0.045 A 
ATOM     24  C   UNL     1     -14.326   7.156  21.337  0.00  0.00    +0.045 A 
ATOM     25  C   UNL     1     -11.577   7.220  20.864  0.00  0.00    +0.004 A 
ATOM     26  C   UNL     1     -13.716   8.342  20.930  0.00  0.00    +0.004 A 
ATOM     27  C   UNL     1     -12.341   8.375  20.694  0.00  0.00    +0.000 A 
ENDBRANCH   4  22
ENDBRANCH  18   4
ENDBRANCH  15  18
ENDBRANCH  10  12
ENDBRANCH   7  10
TORSDOF 9
ENDMDL
MODEL 3
REMARK VINA RESULT:      -6.7     28.086     29.960
REMARK  Name = 56775665
REMARK  9 active torsions:
REMARK  status: ('A' for Active; 'I' for Inactive)
REMARK    1  A    between atoms: O_3  and  C_16
REMARK    2  A    between atoms: O_4  and  C_18
REMARK    3  A    between atoms: O_4  and  C_22
REMARK    4  A    between atoms: N_5  and  C_7
REMARK    5  A    between atoms: N_5  and  C_11
REMARK    6  A    between atoms: C_7  and  C_10
REMARK    7  A    between atoms: C_10  and  C_12
REMARK    8  A    between atoms: C_11  and  C_13
REMARK    9  A    between atoms: C_15  and  C_18
REMARK                            x       y       z     vdW  Elec       q    Type
REMARK                         _______ _______ _______ _____ _____    ______ ____
ROOT
ATOM      1  O   UNL     1     -10.705 -12.015  16.093  0.00  0.00    -0.376 OA
ATOM      7  C   UNL     1      -9.917 -10.145  16.753  0.00  0.00    +0.072 C 
ATOM      8  C   UNL     1     -10.067 -11.558  17.307  0.00  0.00    +0.184 C 
ATOM      9  C   UNL     1     -10.679 -10.677  15.545  0.00  0.00    +0.184 C 
ENDROOT
BRANCH   7   5
ATOM      5  N   UNL     1      -8.517  -9.935  16.374  0.00  0.00    -0.302 NA
ATOM     28  H   UNL     1      -8.377  -9.397  15.520  0.00  0.00    +0.123 HD
BRANCH   5  11
ATOM     11  C   UNL     1      -7.808  -9.296  17.482  0.00  0.00    +0.120 C 
BRANCH  11  13
ATOM     13  C   UNL     1      -6.685 -10.133  17.996  0.00  0.00    +0.008 A 
ATOM     16  C   UNL     1      -6.764 -10.740  19.250  0.00  0.00    +0.121 A 
ATOM     17  C   UNL     1      -5.547 -10.306  17.208  0.00  0.00    +0.008 A 
ATOM     19  C   UNL     1      -5.705 -11.520  19.715  0.00  0.00    +0.046 A 
ATOM     20  C   UNL     1      -4.488 -11.086  17.673  0.00  0.00    +0.001 A 
ATOM     21  C   UNL     1      -4.567 -11.693  18.927  0.00  0.00    +0.004 A 
BRANCH  16   3
ATOM      3  O   UNL     1      -7.867 -10.581  20.033  0.00  0.00    -0.506 OA
ATOM     29  H   UNL     1      -8.187 -11.456  20.312  0.00  0.00    +0.292 HD
ENDBRANCH  16   3
ENDBRANCH  11  13
ENDBRANCH   5  11
ENDBRANCH   7   5
BRANCH   7  10
ATOM     10  C   UNL     1     -10.490  -8.997  17.527  0.00  0.00    +0.085 C 
BRANCH  10  12
ATOM      2  O   UNL     1     -10.736  -6.194  15.260  0.00  0.00    -0.356 OA
ATOM      6  N   UNL     1     -10.010  -7.082  16.045  0.00  0.00    -0.083 NA
ATOM     12  C   UNL     1     -10.925  -7.885  16.596  0.00  0.00    +0.086 A 
ATOM     14  C   UNL     1     -12.232  -7.555  16.199  0.00  0.00    +0.074 A 
ATOM     15  C   UNL     1     -12.058  -6.486  15.361  0.00  0.00    +0.175 A 
BRANCH  15  18
ATOM     18  C   UNL     1     -12.977  -5.639  14.590  0.00  0.00    +0.306 C 
BRANCH  18   4
ATOM      4  O   UNL     1     -12.246  -4.821  13.673  0.00  0.00    -0.484 OA
BRANCH   4  22
ATOM     22  C   UNL     1     -12.971  -4.217  12.684  0.00  0.00    +0.121 A 
ATOM     23  C   UNL     1     -12.423  -4.070  11.410  0.00  0.00    +0.045 A 
ATOM     24  C   UNL     1     -14.258  -3.749  12.948  0.00  0.00    +0.045 A 
ATOM     25  C   UNL     1     -13.161  -3.454  10.400  0.00  0.00    +0.004 A 
ATOM     26  C   UNL     1     -14.996  -3.133  11.938  0.00  0.00    +0.004 A 
ATOM     27  C   UNL     1     -14.448  -2.985  10.664  0.00  0.00    +0.000 A 
ENDBRANCH   4  22
ENDBRANCH  18   4
ENDBRANCH  15  18
ENDBRANCH  10  12
ENDBRANCH   7  10
TORSDOF 9
ENDMDL
MODEL 4
REMARK VINA RESULT:      -6.7      3.399      6.549
REMARK  Name = 56775665
REMARK  9 active torsions:
REMARK  status: ('A' for Active; 'I' for Inactive)
REMARK    1  A    between atoms: O_3  and  C_16
REMARK    2  A    between atoms: O_4  and  C_18
REMARK    3  A    between atoms: O_4  and  C_22
REMARK    4  A    between atoms: N_5  and  C_7
REMARK    5  A    between atoms: N_5  and  C_11
REMARK    6  A    between atoms: C_7  and  C_10
REMARK    7  A    between atoms: C_10  and  C_12
REMARK    8  A    between atoms: C_11  and  C_13
REMARK    9  A    between atoms: C_15  and  C_18
REMARK                            x       y       z     vdW  Elec       q    Type
REMARK                         _______ _______ _______ _____ _____    ______ ____
ROOT
ATOM      1  O   UNL     1      10.673   7.775  21.441  0.00  0.00    -0.376 OA
ATOM      7  C   UNL     1      12.430   7.249  20.351  0.00  0.00    +0.072 C 
ATOM      8  C   UNL     1      11.482   8.440  20.445  0.00  0.00    +0.184 C 
ATOM      9  C   UNL     1      11.477   6.578  21.334  0.00  0.00    +0.184 C 
ENDROOT
BRANCH   7   5
ATOM      5  N   UNL     1      13.673   7.582  21.053  0.00  0.00    -0.302 NA
ATOM     28  H   UNL     1      13.666   7.396  22.055  0.00  0.00    +0.123 HD
BRANCH   5  11
ATOM     11  C   UNL     1      14.785   6.868  20.426  0.00  0.00    +0.120 C 
BRANCH  11  13
ATOM     13  C   UNL     1      16.108   7.475  20.757  0.00  0.00    +0.008 A 
ATOM     16  C   UNL     1      16.311   8.850  20.638  0.00  0.00    +0.121 A 
ATOM     17  C   UNL     1      17.147   6.651  21.189  0.00  0.00    +0.008 A 
ATOM     19  C   UNL     1      17.553   9.401  20.952  0.00  0.00    +0.046 A 
ATOM     20  C   UNL     1      18.390   7.202  21.502  0.00  0.00    +0.001 A 
ATOM     21  C   UNL     1      18.593   8.577  21.384  0.00  0.00    +0.004 A 
BRANCH  16   3
ATOM      3  O   UNL     1      15.307   9.669  20.218  0.00  0.00    -0.506 OA
ATOM     29  H   UNL     1      15.629  10.216  19.482  0.00  0.00    +0.292 HD
ENDBRANCH  16   3
ENDBRANCH  11  13
ENDBRANCH   5  11
ENDBRANCH   7   5
BRANCH   7  10
ATOM     10  C   UNL     1      12.666   6.612  19.016  0.00  0.00    +0.085 C 
BRANCH  10  12
ATOM      2  O   UNL     1      11.589   8.687  16.262  0.00  0.00    -0.356 OA
ATOM      6  N   UNL     1      11.398   7.656  17.174  0.00  0.00    -0.083 NA
ATOM     12  C   UNL     1      12.517   7.627  17.902  0.00  0.00    +0.086 A 
ATOM     14  C   UNL     1      13.441   8.606  17.500  0.00  0.00    +0.074 A 
ATOM     15  C   UNL     1      12.810   9.245  16.465  0.00  0.00    +0.175 A 
BRANCH  15  18
ATOM     18  C   UNL     1      13.179  10.357  15.581  0.00  0.00    +0.306 C 
BRANCH  18   4
ATOM      4  O   UNL     1      14.378  10.048  14.868  0.00  0.00    -0.484 OA
BRANCH   4  22
ATOM     22  C   UNL     1      15.312  11.043  14.784  0.00  0.00    +0.121 A 
ATOM     23  C   UNL     1      15.812  11.426  13.540  0.00  0.00    +0.045 A 
ATOM     24  C   UNL     1      15.763  11.676  15.943  0.00  0.00    +0.045 A 
ATOM     25  C   UNL     1      16.764  12.441  13.453  0.00  0.00    +0.004 A 
ATOM     26  C   UNL     1      16.714  12.691  15.856  0.00  0.00    +0.004 A 
ATOM     27  C   UNL     1      17.216  13.074  14.612  0.00  0.00    +0.000 A 
ENDBRANCH   4  22
ENDBRANCH  18   4
ENDBRANCH  15  18
ENDBRANCH  10  12
ENDBRANCH   7  10
TORSDOF 9
ENDMDL
MODEL 5
REMARK VINA RESULT:      -6.6     26.850     29.036
REMARK  Name = 56775665
REMARK  9 active torsions:
REMARK  status: ('A' for Active; 'I' for Inactive)
REMARK    1  A    between atoms: O_3  and  C_16
REMARK    2  A    between atoms: O_4  and  C_18
REMARK    3  A    between atoms: O_4  and  C_22
REMARK    4  A    between atoms: N_5  and  C_7
REMARK    5  A    between atoms: N_5  and  C_11
REMARK    6  A    between atoms: C_7  and  C_10
REMARK    7  A    between atoms: C_10  and  C_12
REMARK    8  A    between atoms: C_11  and  C_13
REMARK    9  A    between atoms: C_15  and  C_18
REMARK                            x       y       z     vdW  Elec       q    Type
REMARK                         _______ _______ _______ _____ _____    ______ ____
ROOT
ATOM      1  O   UNL     1      -1.823 -13.948  13.101  0.00  0.00    -0.376 OA
ATOM      7  C   UNL     1      -2.477 -11.975  13.585  0.00  0.00    +0.072 C 
ATOM      8  C   UNL     1      -2.804 -13.042  12.546  0.00  0.00    +0.184 C 
ATOM      9  C   UNL     1      -1.400 -12.946  14.054  0.00  0.00    +0.184 C 
ENDROOT
BRANCH   7   5
ATOM      5  N   UNL     1      -3.551 -11.945  14.582  0.00  0.00    -0.302 NA
ATOM     28  H   UNL     1      -3.745 -12.837  15.034  0.00  0.00    +0.123 HD
BRANCH   5  11
ATOM     11  C   UNL     1      -3.239 -10.935  15.594  0.00  0.00    +0.120 C 
BRANCH  11  13
ATOM     13  C   UNL     1      -4.376 -10.705  16.534  0.00  0.00    +0.008 A 
ATOM     16  C   UNL     1      -5.510 -10.004  16.123  0.00  0.00    +0.121 A 
ATOM     17  C   UNL     1      -4.295 -11.199  17.836  0.00  0.00    +0.008 A 
ATOM     19  C   UNL     1      -6.563  -9.797  17.014  0.00  0.00    +0.046 A 
ATOM     20  C   UNL     1      -5.348 -10.992  18.727  0.00  0.00    +0.001 A 
ATOM     21  C   UNL     1      -6.482 -10.292  18.316  0.00  0.00    +0.004 A 
BRANCH  16   3
ATOM      3  O   UNL     1      -5.605  -9.514  14.855  0.00  0.00    -0.506 OA
ATOM     29  H   UNL     1      -6.350  -9.946  14.403  0.00  0.00    +0.292 HD
ENDBRANCH  16   3
ENDBRANCH  11  13
ENDBRANCH   5  11
ENDBRANCH   7   5
BRANCH   7  10
ATOM     10  C   UNL     1      -2.073 -10.609  13.121  0.00  0.00    +0.085 C 
BRANCH  10  12
ATOM      2  O   UNL     1      -4.871  -9.540  11.101  0.00  0.00    -0.356 OA
ATOM      6  N   UNL     1      -4.319 -10.027  12.280  0.00  0.00    -0.083 NA
ATOM     12  C   UNL     1      -3.008 -10.110  12.039  0.00  0.00    +0.086 A 
ATOM     14  C   UNL     1      -2.676  -9.693  10.739  0.00  0.00    +0.074 A 
ATOM     15  C   UNL     1      -3.882  -9.346  10.190  0.00  0.00    +0.175 A 
BRANCH  15  18
ATOM     18  C   UNL     1      -4.292  -8.831   8.878  0.00  0.00    +0.306 C 
BRANCH  18   4
ATOM      4  O   UNL     1      -5.577  -9.345   8.522  0.00  0.00    -0.484 OA
BRANCH   4  22
ATOM     22  C   UNL     1      -5.666  -9.982   7.315  0.00  0.00    +0.121 A 
ATOM     23  C   UNL     1      -4.845 -11.076   7.043  0.00  0.00    +0.045 A 
ATOM     24  C   UNL     1      -6.578  -9.537   6.358  0.00  0.00    +0.045 A 
ATOM     25  C   UNL     1      -4.935 -11.726   5.813  0.00  0.00    +0.004 A 
ATOM     26  C   UNL     1      -6.668 -10.188   5.128  0.00  0.00    +0.004 A 
ATOM     27  C   UNL     1      -5.847 -11.282   4.854  0.00  0.00    +0.000 A 
ENDBRANCH   4  22
ENDBRANCH  18   4
ENDBRANCH  15  18
ENDBRANCH  10  12
ENDBRANCH   7  10
TORSDOF 9
ENDMDL
MODEL 6
REMARK VINA RESULT:      -6.6     14.600     19.694
REMARK  Name = 56775665
REMARK  9 active torsions:
REMARK  status: ('A' for Active; 'I' for Inactive)
REMARK    1  A    between atoms: O_3  and  C_16
REMARK    2  A    between atoms: O_4  and  C_18
REMARK    3  A    between atoms: O_4  and  C_22
REMARK    4  A    between atoms: N_5  and  C_7
REMARK    5  A    between atoms: N_5  and  C_11
REMARK    6  A    between atoms: C_7  and  C_10
REMARK    7  A    between atoms: C_10  and  C_12
REMARK    8  A    between atoms: C_11  and  C_13
REMARK    9  A    between atoms: C_15  and  C_18
REMARK                            x       y       z     vdW  Elec       q    Type
REMARK                         _______ _______ _______ _____ _____    ______ ____
ROOT
ATOM      1  O   UNL     1      11.468   9.929   4.367  0.00  0.00    -0.376 OA
ATOM      7  C   UNL     1      10.765   7.949   3.993  0.00  0.00    +0.072 C 
ATOM      8  C   UNL     1      12.081   8.712   3.885  0.00  0.00    +0.184 C 
ATOM      9  C   UNL     1      10.171   9.291   4.403  0.00  0.00    +0.184 C 
ENDROOT
BRANCH   7   5
ATOM      5  N   UNL     1      10.821   7.078   5.170  0.00  0.00    -0.302 NA
ATOM     28  H   UNL     1      11.411   7.417   5.930  0.00  0.00    +0.123 HD
BRANCH   5  11
ATOM     11  C   UNL     1       9.464   6.849   5.664  0.00  0.00    +0.120 C 
BRANCH  11  13
ATOM     13  C   UNL     1       9.446   6.058   6.930  0.00  0.00    +0.008 A 
ATOM     16  C   UNL     1       9.815   4.712   6.935  0.00  0.00    +0.121 A 
ATOM     17  C   UNL     1       9.056   6.679   8.117  0.00  0.00    +0.008 A 
ATOM     19  C   UNL     1       9.793   3.988   8.127  0.00  0.00    +0.046 A 
ATOM     20  C   UNL     1       9.034   5.954   9.309  0.00  0.00    +0.001 A 
ATOM     21  C   UNL     1       9.403   4.609   9.313  0.00  0.00    +0.004 A 
BRANCH  16   3
ATOM      3  O   UNL     1      10.199   4.090   5.785  0.00  0.00    -0.506 OA
ATOM     29  H   UNL     1      10.541   3.206   6.001  0.00  0.00    +0.292 HD
ENDBRANCH  16   3
ENDBRANCH  11  13
ENDBRANCH   5  11
ENDBRANCH   7   5
BRANCH   7  10
ATOM     10  C   UNL     1      10.227   7.255   2.779  0.00  0.00    +0.085 C 
BRANCH  10  12
ATOM      2  O   UNL     1      11.136   3.759   2.743  0.00  0.00    -0.356 OA
ATOM      6  N   UNL     1      10.286   4.805   3.077  0.00  0.00    -0.083 NA
ATOM     12  C   UNL     1      10.881   5.902   2.599  0.00  0.00    +0.086 A 
ATOM     14  C   UNL     1      12.098   5.611   1.959  0.00  0.00    +0.074 A 
ATOM     15  C   UNL     1      12.213   4.252   2.078  0.00  0.00    +0.175 A 
BRANCH  15  18
ATOM     18  C   UNL     1      13.221   3.275   1.648  0.00  0.00    +0.306 C 
BRANCH  18   4
ATOM      4  O   UNL     1      13.161   3.091   0.231  0.00  0.00    -0.484 OA
BRANCH   4  22
ATOM     22  C   UNL     1      14.120   3.727  -0.507  0.00  0.00    +0.121 A 
ATOM     23  C   UNL     1      15.355   4.028   0.066  0.00  0.00    +0.045 A 
ATOM     24  C   UNL     1      13.862   4.074  -1.833  0.00  0.00    +0.045 A 
ATOM     25  C   UNL     1      16.334   4.676  -0.687  0.00  0.00    +0.004 A 
ATOM     26  C   UNL     1      14.841   4.723  -2.586  0.00  0.00    +0.004 A 
ATOM     27  C   UNL     1      16.077   5.024  -2.013  0.00  0.00    +0.000 A 
ENDBRANCH   4  22
ENDBRANCH  18   4
ENDBRANCH  15  18
ENDBRANCH  10  12
ENDBRANCH   7  10
TORSDOF 9
ENDMDL
MODEL 7
REMARK VINA RESULT:      -6.5     26.553     29.045
REMARK  Name = 56775665
REMARK  9 active torsions:
REMARK  status: ('A' for Active; 'I' for Inactive)
REMARK    1  A    between atoms: O_3  and  C_16
REMARK    2  A    between atoms: O_4  and  C_18
REMARK    3  A    between atoms: O_4  and  C_22
REMARK    4  A    between atoms: N_5  and  C_7
REMARK    5  A    between atoms: N_5  and  C_11
REMARK    6  A    between atoms: C_7  and  C_10
REMARK    7  A    between atoms: C_10  and  C_12
REMARK    8  A    between atoms: C_11  and  C_13
REMARK    9  A    between atoms: C_15  and  C_18
REMARK                            x       y       z     vdW  Elec       q    Type
REMARK                         _______ _______ _______ _____ _____    ______ ____
ROOT
ATOM      1  O   UNL     1      -5.128 -13.227  18.263  0.00  0.00    -0.376 OA
ATOM      7  C   UNL     1      -5.366 -11.360  17.258  0.00  0.00    +0.072 C 
ATOM      8  C   UNL     1      -4.907 -12.772  16.909  0.00  0.00    +0.184 C 
ATOM      9  C   UNL     1      -5.484 -11.890  18.682  0.00  0.00    +0.184 C 
ENDROOT
BRANCH   7   5
ATOM      5  N   UNL     1      -6.712 -11.156  16.717  0.00  0.00    -0.302 NA
ATOM     28  H   UNL     1      -7.431 -11.765  17.106  0.00  0.00    +0.123 HD
BRANCH   5  11
ATOM     11  C   UNL     1      -7.098  -9.757  16.902  0.00  0.00    +0.120 C 
BRANCH  11  13
ATOM     13  C   UNL     1      -8.496  -9.616  17.407  0.00  0.00    +0.008 A 
ATOM     16  C   UNL     1      -9.372  -8.694  16.834  0.00  0.00    +0.121 A 
ATOM     17  C   UNL     1      -8.922 -10.419  18.465  0.00  0.00    +0.008 A 
ATOM     19  C   UNL     1     -10.674  -8.575  17.318  0.00  0.00    +0.046 A 
ATOM     20  C   UNL     1     -10.224 -10.300  18.951  0.00  0.00    +0.001 A 
ATOM     21  C   UNL     1     -11.101  -9.378  18.377  0.00  0.00    +0.004 A 
BRANCH  16   3
ATOM      3  O   UNL     1      -8.972  -7.902  15.800  0.00  0.00    -0.506 OA
ATOM     29  H   UNL     1      -9.347  -8.247  14.972  0.00  0.00    +0.292 HD
ENDBRANCH  16   3
ENDBRANCH  11  13
ENDBRANCH   5  11
ENDBRANCH   7   5
BRANCH   7  10
ATOM     10  C   UNL     1      -4.446 -10.209  16.984  0.00  0.00    +0.085 C 
BRANCH  10  12
ATOM      2  O   UNL     1      -1.534 -11.116  15.046  0.00  0.00    -0.356 OA
ATOM      6  N   UNL     1      -2.172 -10.822  16.246  0.00  0.00    -0.083 NA
ATOM     12  C   UNL     1      -3.440 -10.569  15.911  0.00  0.00    +0.086 A 
ATOM     14  C   UNL     1      -3.660 -10.686  14.528  0.00  0.00    +0.074 A 
ATOM     15  C   UNL     1      -2.431 -11.030  14.030  0.00  0.00    +0.175 A 
BRANCH  15  18
ATOM     18  C   UNL     1      -1.923 -11.310  12.681  0.00  0.00    +0.306 C 
BRANCH  18   4
ATOM      4  O   UNL     1      -2.055 -10.155  11.851  0.00  0.00    -0.484 OA
BRANCH   4  22
ATOM     22  C   UNL     1      -2.937 -10.248  10.811  0.00  0.00    +0.121 A 
ATOM     23  C   UNL     1      -3.294  -9.106  10.096  0.00  0.00    +0.045 A 
ATOM     24  C   UNL     1      -3.479 -11.486  10.466  0.00  0.00    +0.045 A 
ATOM     25  C   UNL     1      -4.194  -9.200   9.035  0.00  0.00    +0.004 A 
ATOM     26  C   UNL     1      -4.379 -11.580   9.405  0.00  0.00    +0.004 A 
ATOM     27  C   UNL     1      -4.737 -10.437   8.689  0.00  0.00    +0.000 A 
ENDBRANCH   4  22
ENDBRANCH  18   4
ENDBRANCH  15  18
ENDBRANCH  10  12
ENDBRANCH   7  10
TORSDOF 9
ENDMDL
MODEL 8
REMARK VINA RESULT:      -6.4      3.772      6.272
REMARK  Name = 56775665
REMARK  9 active torsions:
REMARK  status: ('A' for Active; 'I' for Inactive)
REMARK    1  A    between atoms: O_3  and  C_16
REMARK    2  A    between atoms: O_4  and  C_18
REMARK    3  A    between atoms: O_4  and  C_22
REMARK    4  A    between atoms: N_5  and  C_7
REMARK    5  A    between atoms: N_5  and  C_11
REMARK    6  A    between atoms: C_7  and  C_10
REMARK    7  A    between atoms: C_10  and  C_12
REMARK    8  A    between atoms: C_11  and  C_13
REMARK    9  A    between atoms: C_15  and  C_18
REMARK                            x       y       z     vdW  Elec       q    Type
REMARK                         _______ _______ _______ _____ _____    ______ ____
ROOT
ATOM      1  O   UNL     1      11.954   7.257  17.828  0.00  0.00    -0.376 OA
ATOM      7  C   UNL     1      13.397   8.313  18.993  0.00  0.00    +0.072 C 
ATOM      8  C   UNL     1      12.438   7.142  19.185  0.00  0.00    +0.184 C 
ATOM      9  C   UNL     1      12.769   8.431  17.609  0.00  0.00    +0.184 C 
ENDROOT
BRANCH   7   5
ATOM      5  N   UNL     1      14.757   7.788  18.851  0.00  0.00    -0.302 NA
ATOM     28  H   UNL     1      15.496   8.489  18.880  0.00  0.00    +0.123 HD
BRANCH   5  11
ATOM     11  C   UNL     1      14.994   6.778  19.883  0.00  0.00    +0.120 C 
BRANCH  11  13
ATOM     13  C   UNL     1      16.447   6.514  20.096  0.00  0.00    +0.008 A 
ATOM     16  C   UNL     1      17.197   5.835  19.135  0.00  0.00    +0.121 A 
ATOM     17  C   UNL     1      17.055   6.954  21.272  0.00  0.00    +0.008 A 
ATOM     19  C   UNL     1      18.554   5.597  19.350  0.00  0.00    +0.046 A 
ATOM     20  C   UNL     1      18.413   6.715  21.488  0.00  0.00    +0.001 A 
ATOM     21  C   UNL     1      19.162   6.037  20.526  0.00  0.00    +0.004 A 
BRANCH  16   3
ATOM      3  O   UNL     1      16.619   5.399  17.981  0.00  0.00    -0.506 OA
ATOM     29  H   UNL     1      16.561   6.140  17.355  0.00  0.00    +0.292 HD
ENDBRANCH  16   3
ENDBRANCH  11  13
ENDBRANCH   5  11
ENDBRANCH   7   5
BRANCH   7  10
ATOM     10  C   UNL     1      13.316   9.478  19.930  0.00  0.00    +0.085 C 
BRANCH  10  12
ATOM      2  O   UNL     1      16.499  11.160  19.618  0.00  0.00    -0.356 OA
ATOM      6  N   UNL     1      15.295  10.698  19.100  0.00  0.00    -0.083 NA
ATOM     12  C   UNL     1      14.680  10.106  20.127  0.00  0.00    +0.086 A 
ATOM     14  C   UNL     1      15.440  10.162  21.308  0.00  0.00    +0.074 A 
ATOM     15  C   UNL     1      16.574  10.834  20.934  0.00  0.00    +0.175 A 
BRANCH  15  18
ATOM     18  C   UNL     1      17.791  11.249  21.644  0.00  0.00    +0.306 C 
BRANCH  18   4
ATOM      4  O   UNL     1      18.952  10.844  20.915  0.00  0.00    -0.484 OA
BRANCH   4  22
ATOM     22  C   UNL     1      19.841  10.046  21.579  0.00  0.00    +0.121 A 
ATOM     23  C   UNL     1      19.664   9.787  22.938  0.00  0.00    +0.045 A 
ATOM     24  C   UNL     1      20.923   9.490  20.898  0.00  0.00    +0.045 A 
ATOM     25  C   UNL     1      20.570   8.972  23.617  0.00  0.00    +0.004 A 
ATOM     26  C   UNL     1      21.829   8.675  21.576  0.00  0.00    +0.004 A 
ATOM     27  C   UNL     1      21.653   8.416  22.936  0.00  0.00    +0.000 A 
ENDBRANCH   4  22
ENDBRANCH  18   4
ENDBRANCH  15  18
ENDBRANCH  10  12
ENDBRANCH   7  10
TORSDOF 9
ENDMDL
MODEL 9
REMARK VINA RESULT:      -6.4     27.578     30.413
REMARK  Name = 56775665
REMARK  9 active torsions:
REMARK  status: ('A' for Active; 'I' for Inactive)
REMARK    1  A    between atoms: O_3  and  C_16
REMARK    2  A    between atoms: O_4  and  C_18
REMARK    3  A    between atoms: O_4  and  C_22
REMARK    4  A    between atoms: N_5  and  C_7
REMARK    5  A    between atoms: N_5  and  C_11
REMARK    6  A    between atoms: C_7  and  C_10
REMARK    7  A    between atoms: C_10  and  C_12
REMARK    8  A    between atoms: C_11  and  C_13
REMARK    9  A    between atoms: C_15  and  C_18
REMARK                            x       y       z     vdW  Elec       q    Type
REMARK                         _______ _______ _______ _____ _____    ______ ____
ROOT
ATOM      1  O   UNL     1     -17.380  -0.345  24.656  0.00  0.00    -0.376 OA
ATOM      7  C   UNL     1     -17.622   1.224  26.082  0.00  0.00    +0.072 C 
ATOM      8  C   UNL     1     -18.520   0.285  25.284  0.00  0.00    +0.184 C 
ATOM      9  C   UNL     1     -16.478   0.576  25.310  0.00  0.00    +0.184 C 
ENDROOT
BRANCH   7   5
ATOM      5  N   UNL     1     -17.575   0.761  27.471  0.00  0.00    -0.302 NA
ATOM     28  H   UNL     1     -16.968  -0.040  27.639  0.00  0.00    +0.123 HD
BRANCH   5  11
ATOM     11  C   UNL     1     -17.176   1.873  28.335  0.00  0.00    +0.120 C 
BRANCH  11  13
ATOM     13  C   UNL     1     -16.015   1.526  29.207  0.00  0.00    +0.008 A 
ATOM     16  C   UNL     1     -14.938   2.402  29.343  0.00  0.00    +0.121 A 
ATOM     17  C   UNL     1     -16.015   0.309  29.889  0.00  0.00    +0.008 A 
ATOM     19  C   UNL     1     -13.861   2.062  30.162  0.00  0.00    +0.046 A 
ATOM     20  C   UNL     1     -14.938  -0.032  30.708  0.00  0.00    +0.001 A 
ATOM     21  C   UNL     1     -13.861   0.845  30.844  0.00  0.00    +0.004 A 
BRANCH  16   3
ATOM      3  O   UNL     1     -14.922   3.594  28.684  0.00  0.00    -0.506 OA
ATOM     29  H   UNL     1     -15.535   3.549  27.930  0.00  0.00    +0.292 HD
ENDBRANCH  16   3
ENDBRANCH  11  13
ENDBRANCH   5  11
ENDBRANCH   7   5
BRANCH   7  10
ATOM     10  C   UNL     1     -17.832   2.703  25.966  0.00  0.00    +0.085 C 
BRANCH  10  12
ATOM      2  O   UNL     1     -16.410   3.770  22.820  0.00  0.00    -0.356 OA
ATOM      6  N   UNL     1     -17.388   3.135  23.576  0.00  0.00    -0.083 NA
ATOM     12  C   UNL     1     -16.993   3.278  24.844  0.00  0.00    +0.086 A 
ATOM     14  C   UNL     1     -15.785   3.989  24.950  0.00  0.00    +0.074 A 
ATOM     15  C   UNL     1     -15.461   4.275  23.650  0.00  0.00    +0.175 A 
BRANCH  15  18
ATOM     18  C   UNL     1     -14.343   4.983  23.013  0.00  0.00    +0.306 C 
BRANCH  18   4
ATOM      4  O   UNL     1     -14.805   5.718  21.877  0.00  0.00    -0.484 OA
BRANCH   4  22
ATOM     22  C   UNL     1     -13.861   6.420  21.180  0.00  0.00    +0.121 A 
ATOM     23  C   UNL     1     -14.254   7.337  20.206  0.00  0.00    +0.045 A 
ATOM     24  C   UNL     1     -12.506   6.221  21.446  0.00  0.00    +0.045 A 
ATOM     25  C   UNL     1     -13.292   8.054  19.495  0.00  0.00    +0.004 A 
ATOM     26  C   UNL     1     -11.545   6.939  20.735  0.00  0.00    +0.004 A 
ATOM     27  C   UNL     1     -11.937   7.855  19.760  0.00  0.00    +0.000 A 
ENDBRANCH   4  22
ENDBRANCH  18   4
ENDBRANCH  15  18
ENDBRANCH  10  12
ENDBRANCH   7  10
TORSDOF 9
ENDMDL
MODEL 10
REMARK VINA RESULT:      -6.4      1.872      8.583
REMARK  Name = 56775665
REMARK  9 active torsions:
REMARK  status: ('A' for Active; 'I' for Inactive)
REMARK    1  A    between atoms: O_3  and  C_16
REMARK    2  A    between atoms: O_4  and  C_18
REMARK    3  A    between atoms: O_4  and  C_22
REMARK    4  A    between atoms: N_5  and  C_7
REMARK    5  A    between atoms: N_5  and  C_11
REMARK    6  A    between atoms: C_7  and  C_10
REMARK    7  A    between atoms: C_10  and  C_12
REMARK    8  A    between atoms: C_11  and  C_13
REMARK    9  A    between atoms: C_15  and  C_18
REMARK                            x       y       z     vdW  Elec       q    Type
REMARK                         _______ _______ _______ _____ _____    ______ ____
ROOT
ATOM      1  O   UNL     1      10.995   8.233  19.213  0.00  0.00    -0.376 OA
ATOM      7  C   UNL     1      11.910   8.923  21.013  0.00  0.00    +0.072 C 
ATOM      8  C   UNL     1      12.272   8.828  19.534  0.00  0.00    +0.184 C 
ATOM      9  C   UNL     1      10.626   8.207  20.611  0.00  0.00    +0.184 C 
ENDROOT
BRANCH   7   5
ATOM      5  N   UNL     1      11.593  10.318  21.331  0.00  0.00    -0.302 NA
ATOM     28  H   UNL     1      10.600  10.548  21.324  0.00  0.00    +0.123 HD
BRANCH   5  11
ATOM     11  C   UNL     1      12.170  10.659  22.631  0.00  0.00    +0.120 C 
BRANCH  11  13
ATOM     13  C   UNL     1      11.477  11.814  23.274  0.00  0.00    +0.008 A 
ATOM     16  C   UNL     1      11.221  11.819  24.645  0.00  0.00    +0.121 A 
ATOM     17  C   UNL     1      11.084  12.897  22.487  0.00  0.00    +0.008 A 
ATOM     19  C   UNL     1      10.573  12.907  25.230  0.00  0.00    +0.046 A 
ATOM     20  C   UNL     1      10.435  13.985  23.072  0.00  0.00    +0.001 A 
ATOM     21  C   UNL     1      10.180  13.990  24.443  0.00  0.00    +0.004 A 
BRANCH  16   3
ATOM      3  O   UNL     1      11.598  10.770  25.428  0.00  0.00    -0.506 OA
ATOM     29  H   UNL     1      12.523  10.893  25.702  0.00  0.00    +0.292 HD
ENDBRANCH  16   3
ENDBRANCH  11  13
ENDBRANCH   5  11
ENDBRANCH   7   5
BRANCH   7  10
ATOM     10  C   UNL     1      12.813   8.285  22.024  0.00  0.00    +0.085 C 
BRANCH  10  12
ATOM      2  O   UNL     1      15.372   6.506  20.195  0.00  0.00    -0.356 OA
ATOM      6  N   UNL     1      14.066   6.668  20.642  0.00  0.00    -0.083 NA
ATOM     12  C   UNL     1      14.085   7.788  21.370  0.00  0.00    +0.086 A 
ATOM     14  C   UNL     1      15.363   8.371  21.418  0.00  0.00    +0.074 A 
ATOM     15  C   UNL     1      16.135   7.526  20.664  0.00  0.00    +0.175 A 
BRANCH  15  18
ATOM     18  C   UNL     1      17.554   7.511  20.285  0.00  0.00    +0.306 C 
BRANCH  18   4
ATOM      4  O   UNL     1      18.057   6.173  20.299  0.00  0.00    -0.484 OA
BRANCH   4  22
ATOM     22  C   UNL     1      19.240   5.973  20.954  0.00  0.00    +0.121 A 
ATOM     23  C   UNL     1      20.205   5.130  20.406  0.00  0.00    +0.045 A 
ATOM     24  C   UNL     1      19.480   6.614  22.170  0.00  0.00    +0.045 A 
ATOM     25  C   UNL     1      21.413   4.925  21.074  0.00  0.00    +0.004 A 
ATOM     26  C   UNL     1      20.688   6.409  22.837  0.00  0.00    +0.004 A 
ATOM     27  C   UNL     1      21.654   5.565  22.290  0.00  0.00    +0.000 A 
ENDBRANCH   4  22
ENDBRANCH  18   4
ENDBRANCH  15  18
ENDBRANCH  10  12
ENDBRANCH   7  10
TORSDOF 9
ENDMDL
