MODEL 1
REMARK VINA RESULT:      -7.6      0.000      0.000
REMARK  Name = 11884054
REMARK  8 active torsions:
REMARK  status: ('A' for Active; 'I' for Inactive)
REMARK    1  A    between atoms: O_6  and  C_15
REMARK    2  A    between atoms: O_6  and  C_19
REMARK    3  A    between atoms: O_9  and  C_32
REMARK    4  A    between atoms: O_9  and  C_33
REMARK    5  A    between atoms: N_10  and  C_14
REMARK    6  A    between atoms: N_11  and  C_23
REMARK    7  A    between atoms: C_18  and  C_20
REMARK    8  A    between atoms: C_26  and  C_29
REMARK                            x       y       z     vdW  Elec       q    Type
REMARK                         _______ _______ _______ _____ _____    ______ ____
ROOT
ATOM      4  O   UNL     1     -17.229   5.111  24.885  0.00  0.00    -0.368 OA
ATOM      5  O   UNL     1     -16.221   2.832  23.098  0.00  0.00    -0.368 OA
ATOM     12  C   UNL     1     -15.866   3.222  24.440  0.00  0.00    +0.173 C 
ATOM     13  C   UNL     1     -15.901   4.736  24.482  0.00  0.00    +0.192 C 
ATOM     14  C   UNL     1     -16.953   2.807  25.406  0.00  0.00    +0.130 C 
ATOM     15  C   UNL     1     -15.627   5.109  23.044  0.00  0.00    +0.235 C 
ATOM     16  C   UNL     1     -17.962   3.933  25.257  0.00  0.00    +0.185 C 
ATOM     17  C   UNL     1     -16.342   4.012  22.289  0.00  0.00    +0.207 C 
ENDROOT
BRANCH  14  10
ATOM      7  O   UNL     1     -17.129   0.550  27.170  0.00  0.00    -0.270 OA
ATOM     10  N   UNL     1     -16.450   2.728  26.756  0.00  0.00    -0.304 N 
ATOM     18  C   UNL     1     -16.584   1.588  27.535  0.00  0.00    +0.244 C 
ATOM     34  H   UNL     1     -16.083   3.582  27.162  0.00  0.00    +0.149 HD
BRANCH  18  20
ATOM     20  C   UNL     1     -16.036   1.674  28.914  0.00  0.00    +0.037 A 
ATOM     21  C   UNL     1     -15.746   0.508  29.623  0.00  0.00    +0.013 A 
ATOM     22  C   UNL     1     -15.813   2.921  29.499  0.00  0.00    +0.013 A 
ATOM     24  C   UNL     1     -15.233   0.589  30.918  0.00  0.00    +0.013 A 
ATOM     25  C   UNL     1     -15.300   3.001  30.793  0.00  0.00    +0.013 A 
ATOM     26  C   UNL     1     -15.010   1.835  31.503  0.00  0.00    +0.055 A 
BRANCH  26  29
ATOM      1  F   UNL     1     -14.659   0.790  33.626  0.00  0.00    -0.166 F 
ATOM      2  F   UNL     1     -14.998   2.932  33.629  0.00  0.00    -0.166 F 
ATOM      3  F   UNL     1     -13.110   2.133  32.901  0.00  0.00    -0.166 F 
ATOM     29  C   UNL     1     -14.459   1.921  32.886  0.00  0.00    +0.417 C 
ENDBRANCH  26  29
ENDBRANCH  18  20
ENDBRANCH  14  10
BRANCH  15   6
ATOM      6  O   UNL     1     -16.101   6.389  22.694  0.00  0.00    -0.442 OA
BRANCH   6  19
ATOM      8  O   UNL     1     -15.988   7.411  20.651  0.00  0.00    -0.226 OA
ATOM     11  N   UNL     1     -14.105   7.203  22.028  0.00  0.00    -0.251 N 
ATOM     19  C   UNL     1     -15.433   7.046  21.680  0.00  0.00    +0.405 C 
ATOM     35  H   UNL     1     -13.832   6.830  22.934  0.00  0.00    +0.158 HD
BRANCH  11  23
ATOM     23  C   UNL     1     -13.077   7.819  21.281  0.00  0.00    +0.037 A 
ATOM     27  C   UNL     1     -12.943   9.207  21.291  0.00  0.00    +0.027 A 
ATOM     28  C   UNL     1     -12.195   7.038  20.532  0.00  0.00    +0.027 A 
ATOM     30  C   UNL     1     -11.925   9.815  20.554  0.00  0.00    +0.047 A 
ATOM     31  C   UNL     1     -11.178   7.646  19.796  0.00  0.00    +0.047 A 
ATOM     32  C   UNL     1     -11.044   9.034  19.806  0.00  0.00    +0.120 A 
BRANCH  32   9
ATOM      9  O   UNL     1     -10.052   9.627  19.089  0.00  0.00    -0.495 OA
ATOM     33  C   UNL     1     -10.033   9.384  17.683  0.00  0.00    +0.277 C 
ENDBRANCH  32   9
ENDBRANCH  11  23
ENDBRANCH   6  19
ENDBRANCH  15   6
TORSDOF 7
ENDMDL
MODEL 2
REMARK VINA RESULT:      -7.6      5.105     10.871
REMARK  Name = 11884054
REMARK  8 active torsions:
REMARK  status: ('A' for Active; 'I' for Inactive)
REMARK    1  A    between atoms: O_6  and  C_15
REMARK    2  A    between atoms: O_6  and  C_19
REMARK    3  A    between atoms: O_9  and  C_32
REMARK    4  A    between atoms: O_9  and  C_33
REMARK    5  A    between atoms: N_10  and  C_14
REMARK    6  A    between atoms: N_11  and  C_23
REMARK    7  A    between atoms: C_18  and  C_20
REMARK    8  A    between atoms: C_26  and  C_29
REMARK                            x       y       z     vdW  Elec       q    Type
REMARK                         _______ _______ _______ _____ _____    ______ ____
ROOT
ATOM      4  O   UNL     1     -16.139   2.096  24.637  0.00  0.00    -0.368 OA
ATOM      5  O   UNL     1     -18.110   4.178  25.727  0.00  0.00    -0.368 OA
ATOM     12  C   UNL     1     -16.848   4.322  25.043  0.00  0.00    +0.173 C 
ATOM     13  C   UNL     1     -15.951   3.204  25.533  0.00  0.00    +0.192 C 
ATOM     14  C   UNL     1     -17.020   4.029  23.570  0.00  0.00    +0.130 C 
ATOM     15  C   UNL     1     -16.511   2.915  26.906  0.00  0.00    +0.235 C 
ATOM     16  C   UNL     1     -16.960   2.512  23.535  0.00  0.00    +0.185 C 
ATOM     17  C   UNL     1     -17.994   3.125  26.696  0.00  0.00    +0.207 C 
ENDROOT
BRANCH  14  10
ATOM      7  O   UNL     1     -16.899   6.724  22.587  0.00  0.00    -0.270 OA
ATOM     10  N   UNL     1     -15.956   4.615  22.793  0.00  0.00    -0.304 N 
ATOM     18  C   UNL     1     -15.987   5.933  22.360  0.00  0.00    +0.244 C 
ATOM     34  H   UNL     1     -15.220   3.993  22.475  0.00  0.00    +0.149 HD
BRANCH  18  20
ATOM     20  C   UNL     1     -14.826   6.379  21.546  0.00  0.00    +0.037 A 
ATOM     21  C   UNL     1     -15.022   7.235  20.463  0.00  0.00    +0.013 A 
ATOM     22  C   UNL     1     -13.541   5.940  21.866  0.00  0.00    +0.013 A 
ATOM     24  C   UNL     1     -13.932   7.653  19.698  0.00  0.00    +0.013 A 
ATOM     25  C   UNL     1     -12.452   6.357  21.101  0.00  0.00    +0.013 A 
ATOM     26  C   UNL     1     -12.647   7.214  20.017  0.00  0.00    +0.055 A 
BRANCH  26  29
ATOM      1  F   UNL     1     -11.802   8.603  18.262  0.00  0.00    -0.166 F 
ATOM      2  F   UNL     1     -10.883   6.653  18.502  0.00  0.00    -0.166 F 
ATOM      3  F   UNL     1     -10.496   8.222  19.959  0.00  0.00    -0.166 F 
ATOM     29  C   UNL     1     -11.484   7.662  19.200  0.00  0.00    +0.417 C 
ENDBRANCH  26  29
ENDBRANCH  18  20
ENDBRANCH  14  10
BRANCH  15   6
ATOM      6  O   UNL     1     -16.220   1.616  27.370  0.00  0.00    -0.442 OA
BRANCH   6  19
ATOM      8  O   UNL     1     -16.151   0.412  29.314  0.00  0.00    -0.226 OA
ATOM     11  N   UNL     1     -15.580   2.682  29.252  0.00  0.00    -0.251 N 
ATOM     19  C   UNL     1     -15.993   1.474  28.725  0.00  0.00    +0.405 C 
ATOM     35  H   UNL     1     -15.507   3.457  28.597  0.00  0.00    +0.158 HD
BRANCH  11  23
ATOM     23  C   UNL     1     -15.243   2.977  30.593  0.00  0.00    +0.037 A 
ATOM     27  C   UNL     1     -16.200   3.523  31.448  0.00  0.00    +0.027 A 
ATOM     28  C   UNL     1     -13.954   2.720  31.061  0.00  0.00    +0.027 A 
ATOM     30  C   UNL     1     -15.868   3.813  32.772  0.00  0.00    +0.047 A 
ATOM     31  C   UNL     1     -13.622   3.009  32.385  0.00  0.00    +0.047 A 
ATOM     32  C   UNL     1     -14.579   3.555  33.240  0.00  0.00    +0.120 A 
BRANCH  32   9
ATOM      9  O   UNL     1     -14.256   3.835  34.531  0.00  0.00    -0.495 OA
ATOM     33  C   UNL     1     -14.255   5.210  34.916  0.00  0.00    +0.277 C 
ENDBRANCH  32   9
ENDBRANCH  11  23
ENDBRANCH   6  19
ENDBRANCH  15   6
TORSDOF 7
ENDMDL
MODEL 3
REMARK VINA RESULT:      -7.2     20.236     21.535
REMARK  Name = 11884054
REMARK  8 active torsions:
REMARK  status: ('A' for Active; 'I' for Inactive)
REMARK    1  A    between atoms: O_6  and  C_15
REMARK    2  A    between atoms: O_6  and  C_19
REMARK    3  A    between atoms: O_9  and  C_32
REMARK    4  A    between atoms: O_9  and  C_33
REMARK    5  A    between atoms: N_10  and  C_14
REMARK    6  A    between atoms: N_11  and  C_23
REMARK    7  A    between atoms: C_18  and  C_20
REMARK    8  A    between atoms: C_26  and  C_29
REMARK                            x       y       z     vdW  Elec       q    Type
REMARK                         _______ _______ _______ _____ _____    ______ ____
ROOT
ATOM      4  O   UNL     1      -3.756 -12.155  14.514  0.00  0.00    -0.368 OA
ATOM      5  O   UNL     1      -1.934 -10.830  16.594  0.00  0.00    -0.368 OA
ATOM     12  C   UNL     1      -3.289 -10.545  16.192  0.00  0.00    +0.173 C 
ATOM     13  C   UNL     1      -3.364 -10.784  14.697  0.00  0.00    +0.192 C 
ATOM     14  C   UNL     1      -4.231 -11.576  16.770  0.00  0.00    +0.130 C 
ATOM     15  C   UNL     1      -1.938 -10.547  14.258  0.00  0.00    +0.235 C 
ATOM     16  C   UNL     1      -4.092 -12.726  15.788  0.00  0.00    +0.185 C 
ATOM     17  C   UNL     1      -1.149 -11.100  15.423  0.00  0.00    +0.207 C 
ENDROOT
BRANCH  14  10
ATOM      7  O   UNL     1      -5.613 -10.561  19.073  0.00  0.00    -0.270 OA
ATOM     10  N   UNL     1      -5.585 -11.082  16.813  0.00  0.00    -0.304 N 
ATOM     18  C   UNL     1      -6.171 -10.610  17.979  0.00  0.00    +0.244 C 
ATOM     34  H   UNL     1      -6.143 -11.192  15.972  0.00  0.00    +0.149 HD
BRANCH  18  20
ATOM     20  C   UNL     1      -7.582 -10.161  17.863  0.00  0.00    +0.037 A 
ATOM     21  C   UNL     1      -7.922  -9.162  16.951  0.00  0.00    +0.013 A 
ATOM     22  C   UNL     1      -8.566 -10.737  18.667  0.00  0.00    +0.013 A 
ATOM     24  C   UNL     1      -9.248  -8.739  16.842  0.00  0.00    +0.013 A 
ATOM     25  C   UNL     1      -9.890 -10.313  18.558  0.00  0.00    +0.013 A 
ATOM     26  C   UNL     1     -10.231  -9.314  17.646  0.00  0.00    +0.055 A 
BRANCH  26  29
ATOM      1  F   UNL     1     -11.776  -7.550  17.171  0.00  0.00    -0.166 F 
ATOM      2  F   UNL     1     -12.361  -8.989  18.685  0.00  0.00    -0.166 F 
ATOM      3  F   UNL     1     -12.345  -9.566  16.588  0.00  0.00    -0.166 F 
ATOM     29  C   UNL     1     -11.647  -8.863  17.528  0.00  0.00    +0.417 C 
ENDBRANCH  26  29
ENDBRANCH  18  20
ENDBRANCH  14  10
BRANCH  15   6
ATOM      6  O   UNL     1      -1.609 -11.186  13.044  0.00  0.00    -0.442 OA
BRANCH   6  19
ATOM      8  O   UNL     1      -1.323  -9.583  11.438  0.00  0.00    -0.226 OA
ATOM     11  N   UNL     1      -3.092 -11.113  11.346  0.00  0.00    -0.251 N 
ATOM     19  C   UNL     1      -1.960 -10.531  11.881  0.00  0.00    +0.405 C 
ATOM     35  H   UNL     1      -3.480 -11.899  11.863  0.00  0.00    +0.158 HD
BRANCH  11  23
ATOM     23  C   UNL     1      -3.782 -10.754  10.166  0.00  0.00    +0.037 A 
ATOM     27  C   UNL     1      -4.074 -11.723   9.207  0.00  0.00    +0.027 A 
ATOM     28  C   UNL     1      -4.170  -9.430   9.962  0.00  0.00    +0.027 A 
ATOM     30  C   UNL     1      -4.757 -11.367   8.042  0.00  0.00    +0.047 A 
ATOM     31  C   UNL     1      -4.853  -9.074   8.798  0.00  0.00    +0.047 A 
ATOM     32  C   UNL     1      -5.146 -10.043   7.839  0.00  0.00    +0.120 A 
BRANCH  32   9
ATOM      9  O   UNL     1      -5.812  -9.698   6.704  0.00  0.00    -0.495 OA
ATOM     33  C   UNL     1      -5.890 -10.681   5.672  0.00  0.00    +0.277 C 
ENDBRANCH  32   9
ENDBRANCH  11  23
ENDBRANCH   6  19
ENDBRANCH  15   6
TORSDOF 7
ENDMDL
MODEL 4
REMARK VINA RESULT:      -7.2     20.367     23.011
REMARK  Name = 11884054
REMARK  8 active torsions:
REMARK  status: ('A' for Active; 'I' for Inactive)
REMARK    1  A    between atoms: O_6  and  C_15
REMARK    2  A    between atoms: O_6  and  C_19
REMARK    3  A    between atoms: O_9  and  C_32
REMARK    4  A    between atoms: O_9  and  C_33
REMARK    5  A    between atoms: N_10  and  C_14
REMARK    6  A    between atoms: N_11  and  C_23
REMARK    7  A    between atoms: C_18  and  C_20
REMARK    8  A    between atoms: C_26  and  C_29
REMARK                            x       y       z     vdW  Elec       q    Type
REMARK                         _______ _______ _______ _____ _____    ______ ____
ROOT
ATOM      4  O   UNL     1      -3.731  -8.789  10.315  0.00  0.00    -0.368 OA
ATOM      5  O   UNL     1      -4.852 -11.544   9.566  0.00  0.00    -0.368 OA
ATOM     12  C   UNL     1      -5.507 -10.321   9.961  0.00  0.00    +0.173 C 
ATOM     13  C   UNL     1      -4.629  -9.670  11.011  0.00  0.00    +0.192 C 
ATOM     14  C   UNL     1      -5.494  -9.333   8.816  0.00  0.00    +0.130 C 
ATOM     15  C   UNL     1      -3.902 -10.853  11.606  0.00  0.00    +0.235 C 
ATOM     16  C   UNL     1      -4.107  -8.725   8.931  0.00  0.00    +0.185 C 
ATOM     17  C   UNL     1      -3.701 -11.744  10.401  0.00  0.00    +0.207 C 
ENDROOT
BRANCH  14  10
ATOM      7  O   UNL     1      -8.108  -9.353   7.630  0.00  0.00    -0.270 OA
ATOM     10  N   UNL     1      -6.521  -8.333   8.977  0.00  0.00    -0.304 N 
ATOM     18  C   UNL     1      -7.760  -8.429   8.360  0.00  0.00    +0.244 C 
ATOM     34  H   UNL     1      -6.267  -7.488   9.480  0.00  0.00    +0.149 HD
BRANCH  18  20
ATOM     20  C   UNL     1      -8.698  -7.304   8.605  0.00  0.00    +0.037 A 
ATOM     21  C   UNL     1      -9.953  -7.552   9.164  0.00  0.00    +0.013 A 
ATOM     22  C   UNL     1      -8.326  -6.000   8.277  0.00  0.00    +0.013 A 
ATOM     24  C   UNL     1     -10.835  -6.495   9.393  0.00  0.00    +0.013 A 
ATOM     25  C   UNL     1      -9.208  -4.945   8.507  0.00  0.00    +0.013 A 
ATOM     26  C   UNL     1     -10.463  -5.192   9.064  0.00  0.00    +0.055 A 
BRANCH  26  29
ATOM      1  F   UNL     1     -11.692  -3.869  10.634  0.00  0.00    -0.166 F 
ATOM      2  F   UNL     1     -12.619  -4.220   8.704  0.00  0.00    -0.166 F 
ATOM      3  F   UNL     1     -10.921  -2.869   8.863  0.00  0.00    -0.166 F 
ATOM     29  C   UNL     1     -11.405  -4.064   9.312  0.00  0.00    +0.417 C 
ENDBRANCH  26  29
ENDBRANCH  18  20
ENDBRANCH  14  10
BRANCH  15   6
ATOM      6  O   UNL     1      -2.682 -10.512  12.223  0.00  0.00    -0.442 OA
BRANCH   6  19
ATOM      8  O   UNL     1      -1.679 -10.151  14.247  0.00  0.00    -0.226 OA
ATOM     11  N   UNL     1      -3.954 -10.676  14.079  0.00  0.00    -0.251 N 
ATOM     19  C   UNL     1      -2.683 -10.421  13.601  0.00  0.00    +0.405 C 
ATOM     35  H   UNL     1      -4.664 -10.882  13.379  0.00  0.00    +0.158 HD
BRANCH  11  23
ATOM     23  C   UNL     1      -4.393 -10.687  15.422  0.00  0.00    +0.037 A 
ATOM     27  C   UNL     1      -3.660 -11.373  16.390  0.00  0.00    +0.027 A 
ATOM     28  C   UNL     1      -5.559 -10.009  15.779  0.00  0.00    +0.027 A 
ATOM     30  C   UNL     1      -4.093 -11.381  17.717  0.00  0.00    +0.047 A 
ATOM     31  C   UNL     1      -5.992 -10.017  17.106  0.00  0.00    +0.047 A 
ATOM     32  C   UNL     1      -5.259 -10.703  18.074  0.00  0.00    +0.120 A 
BRANCH  32   9
ATOM      9  O   UNL     1      -5.679 -10.711  19.367  0.00  0.00    -0.495 OA
ATOM     33  C   UNL     1      -6.877 -11.432  19.657  0.00  0.00    +0.277 C 
ENDBRANCH  32   9
ENDBRANCH  11  23
ENDBRANCH   6  19
ENDBRANCH  15   6
TORSDOF 7
ENDMDL
MODEL 5
REMARK VINA RESULT:      -7.2      1.771      2.341
REMARK  Name = 11884054
REMARK  8 active torsions:
REMARK  status: ('A' for Active; 'I' for Inactive)
REMARK    1  A    between atoms: O_6  and  C_15
REMARK    2  A    between atoms: O_6  and  C_19
REMARK    3  A    between atoms: O_9  and  C_32
REMARK    4  A    between atoms: O_9  and  C_33
REMARK    5  A    between atoms: N_10  and  C_14
REMARK    6  A    between atoms: N_11  and  C_23
REMARK    7  A    between atoms: C_18  and  C_20
REMARK    8  A    between atoms: C_26  and  C_29
REMARK                            x       y       z     vdW  Elec       q    Type
REMARK                         _______ _______ _______ _____ _____    ______ ____
ROOT
ATOM      4  O   UNL     1     -17.561   4.813  25.285  0.00  0.00    -0.368 OA
ATOM      5  O   UNL     1     -16.351   2.088  24.565  0.00  0.00    -0.368 OA
ATOM     12  C   UNL     1     -16.057   3.012  25.633  0.00  0.00    +0.173 C 
ATOM     13  C   UNL     1     -16.200   4.408  25.060  0.00  0.00    +0.192 C 
ATOM     14  C   UNL     1     -17.136   2.943  26.690  0.00  0.00    +0.130 C 
ATOM     15  C   UNL     1     -15.917   4.187  23.592  0.00  0.00    +0.235 C 
ATOM     16  C   UNL     1     -18.218   3.835  26.104  0.00  0.00    +0.185 C 
ATOM     17  C   UNL     1     -16.534   2.829  23.349  0.00  0.00    +0.207 C 
ENDROOT
BRANCH  14  10
ATOM      7  O   UNL     1     -15.843   1.442  28.768  0.00  0.00    -0.270 OA
ATOM     10  N   UNL     1     -16.663   3.453  27.954  0.00  0.00    -0.304 N 
ATOM     18  C   UNL     1     -16.048   2.646  28.900  0.00  0.00    +0.244 C 
ATOM     34  H   UNL     1     -16.893   4.415  28.179  0.00  0.00    +0.149 HD
BRANCH  18  20
ATOM     20  C   UNL     1     -15.641   3.317  30.162  0.00  0.00    +0.037 A 
ATOM     21  C   UNL     1     -16.588   4.002  30.923  0.00  0.00    +0.013 A 
ATOM     22  C   UNL     1     -14.312   3.262  30.585  0.00  0.00    +0.013 A 
ATOM     24  C   UNL     1     -16.206   4.633  32.108  0.00  0.00    +0.013 A 
ATOM     25  C   UNL     1     -13.932   3.893  31.769  0.00  0.00    +0.013 A 
ATOM     26  C   UNL     1     -14.878   4.579  32.530  0.00  0.00    +0.055 A 
BRANCH  26  29
ATOM      1  F   UNL     1     -15.501   5.884  34.437  0.00  0.00    -0.166 F 
ATOM      2  F   UNL     1     -13.517   6.214  33.625  0.00  0.00    -0.166 F 
ATOM      3  F   UNL     1     -13.953   4.380  34.711  0.00  0.00    -0.166 F 
ATOM     29  C   UNL     1     -14.472   5.252  33.797  0.00  0.00    +0.417 C 
ENDBRANCH  26  29
ENDBRANCH  18  20
ENDBRANCH  14  10
BRANCH  15   6
ATOM      6  O   UNL     1     -16.471   5.179  22.757  0.00  0.00    -0.442 OA
BRANCH   6  19
ATOM      8  O   UNL     1     -16.103   4.981  20.509  0.00  0.00    -0.226 OA
ATOM     11  N   UNL     1     -14.757   6.340  21.860  0.00  0.00    -0.251 N 
ATOM     19  C   UNL     1     -15.791   5.463  21.590  0.00  0.00    +0.405 C 
ATOM     35  H   UNL     1     -14.657   6.631  22.830  0.00  0.00    +0.158 HD
BRANCH  11  23
ATOM     23  C   UNL     1     -13.820   6.885  20.955  0.00  0.00    +0.037 A 
ATOM     27  C   UNL     1     -12.458   6.636  21.127  0.00  0.00    +0.027 A 
ATOM     28  C   UNL     1     -14.256   7.670  19.887  0.00  0.00    +0.027 A 
ATOM     30  C   UNL     1     -11.532   7.173  20.231  0.00  0.00    +0.047 A 
ATOM     31  C   UNL     1     -13.331   8.207  18.992  0.00  0.00    +0.047 A 
ATOM     32  C   UNL     1     -11.969   7.959  19.164  0.00  0.00    +0.120 A 
BRANCH  32   9
ATOM      9  O   UNL     1     -11.066   8.480  18.290  0.00  0.00    -0.495 OA
ATOM     33  C   UNL     1     -10.168   9.467  18.797  0.00  0.00    +0.277 C 
ENDBRANCH  32   9
ENDBRANCH  11  23
ENDBRANCH   6  19
ENDBRANCH  15   6
TORSDOF 7
ENDMDL
MODEL 6
REMARK VINA RESULT:      -7.2      6.124      9.525
REMARK  Name = 11884054
REMARK  8 active torsions:
REMARK  status: ('A' for Active; 'I' for Inactive)
REMARK    1  A    between atoms: O_6  and  C_15
REMARK    2  A    between atoms: O_6  and  C_19
REMARK    3  A    between atoms: O_9  and  C_32
REMARK    4  A    between atoms: O_9  and  C_33
REMARK    5  A    between atoms: N_10  and  C_14
REMARK    6  A    between atoms: N_11  and  C_23
REMARK    7  A    between atoms: C_18  and  C_20
REMARK    8  A    between atoms: C_26  and  C_29
REMARK                            x       y       z     vdW  Elec       q    Type
REMARK                         _______ _______ _______ _____ _____    ______ ____
ROOT
ATOM      4  O   UNL     1     -15.918   3.688  31.580  0.00  0.00    -0.368 OA
ATOM      5  O   UNL     1     -14.159   2.487  33.787  0.00  0.00    -0.368 OA
ATOM     12  C   UNL     1     -13.886   3.489  32.786  0.00  0.00    +0.173 C 
ATOM     13  C   UNL     1     -14.621   3.069  31.530  0.00  0.00    +0.192 C 
ATOM     14  C   UNL     1     -14.541   4.797  33.169  0.00  0.00    +0.130 C 
ATOM     15  C   UNL     1     -14.710   1.570  31.690  0.00  0.00    +0.235 C 
ATOM     16  C   UNL     1     -15.969   4.592  32.694  0.00  0.00    +0.185 C 
ATOM     17  C   UNL     1     -14.905   1.419  33.182  0.00  0.00    +0.207 C 
ENDROOT
BRANCH  14  10
ATOM      7  O   UNL     1     -14.538   7.536  34.030  0.00  0.00    -0.270 OA
ATOM     10  N   UNL     1     -13.917   5.910  32.497  0.00  0.00    -0.304 N 
ATOM     18  C   UNL     1     -13.971   7.206  32.992  0.00  0.00    +0.244 C 
ATOM     34  H   UNL     1     -13.522   5.733  31.579  0.00  0.00    +0.149 HD
BRANCH  18  20
ATOM     20  C   UNL     1     -13.301   8.245  32.169  0.00  0.00    +0.037 A 
ATOM     21  C   UNL     1     -11.909   8.325  32.144  0.00  0.00    +0.013 A 
ATOM     22  C   UNL     1     -14.065   9.142  31.420  0.00  0.00    +0.013 A 
ATOM     24  C   UNL     1     -11.279   9.302  31.372  0.00  0.00    +0.013 A 
ATOM     25  C   UNL     1     -13.435  10.118  30.649  0.00  0.00    +0.013 A 
ATOM     26  C   UNL     1     -12.042  10.198  30.625  0.00  0.00    +0.055 A 
BRANCH  26  29
ATOM      1  F   UNL     1     -10.877  10.767  28.614  0.00  0.00    -0.166 F 
ATOM      2  F   UNL     1     -10.302  11.826  30.417  0.00  0.00    -0.166 F 
ATOM      3  F   UNL     1     -12.206  12.265  29.462  0.00  0.00    -0.166 F 
ATOM     29  C   UNL     1     -11.369  11.240  29.798  0.00  0.00    +0.417 C 
ENDBRANCH  26  29
ENDBRANCH  18  20
ENDBRANCH  14  10
BRANCH  15   6
ATOM      6  O   UNL     1     -15.764   0.987  30.956  0.00  0.00    -0.442 OA
BRANCH   6  19
ATOM      8  O   UNL     1     -14.790   0.003  29.135  0.00  0.00    -0.226 OA
ATOM     11  N   UNL     1     -16.360   1.726  28.910  0.00  0.00    -0.251 N 
ATOM     19  C   UNL     1     -15.566   0.830  29.599  0.00  0.00    +0.405 C 
ATOM     35  H   UNL     1     -16.944   2.337  29.477  0.00  0.00    +0.158 HD
BRANCH  11  23
ATOM     23  C   UNL     1     -16.464   1.899  27.512  0.00  0.00    +0.037 A 
ATOM     27  C   UNL     1     -17.023   0.894  26.724  0.00  0.00    +0.027 A 
ATOM     28  C   UNL     1     -16.008   3.078  26.920  0.00  0.00    +0.027 A 
ATOM     30  C   UNL     1     -17.128   1.066  25.342  0.00  0.00    +0.047 A 
ATOM     31  C   UNL     1     -16.113   3.251  25.539  0.00  0.00    +0.047 A 
ATOM     32  C   UNL     1     -16.672   2.245  24.751  0.00  0.00    +0.120 A 
BRANCH  32   9
ATOM      9  O   UNL     1     -16.776   2.413  23.405  0.00  0.00    -0.495 OA
ATOM     33  C   UNL     1     -17.868   1.767  22.752  0.00  0.00    +0.277 C 
ENDBRANCH  32   9
ENDBRANCH  11  23
ENDBRANCH   6  19
ENDBRANCH  15   6
TORSDOF 7
ENDMDL
MODEL 7
REMARK VINA RESULT:      -7.0     18.697     20.076
REMARK  Name = 11884054
REMARK  8 active torsions:
REMARK  status: ('A' for Active; 'I' for Inactive)
REMARK    1  A    between atoms: O_6  and  C_15
REMARK    2  A    between atoms: O_6  and  C_19
REMARK    3  A    between atoms: O_9  and  C_32
REMARK    4  A    between atoms: O_9  and  C_33
REMARK    5  A    between atoms: N_10  and  C_14
REMARK    6  A    between atoms: N_11  and  C_23
REMARK    7  A    between atoms: C_18  and  C_20
REMARK    8  A    between atoms: C_26  and  C_29
REMARK                            x       y       z     vdW  Elec       q    Type
REMARK                         _______ _______ _______ _____ _____    ______ ____
ROOT
ATOM      4  O   UNL     1      -6.017 -12.014  16.790  0.00  0.00    -0.368 OA
ATOM      5  O   UNL     1      -5.503 -11.451  19.761  0.00  0.00    -0.368 OA
ATOM     12  C   UNL     1      -6.268 -10.733  18.771  0.00  0.00    +0.173 C 
ATOM     13  C   UNL     1      -5.512 -10.848  17.463  0.00  0.00    +0.192 C 
ATOM     14  C   UNL     1      -7.570 -11.452  18.500  0.00  0.00    +0.130 C 
ATOM     15  C   UNL     1      -4.087 -11.043  17.926  0.00  0.00    +0.235 C 
ATOM     16  C   UNL     1      -7.146 -12.526  17.514  0.00  0.00    +0.185 C 
ATOM     17  C   UNL     1      -4.268 -11.883  19.170  0.00  0.00    +0.207 C 
ENDROOT
BRANCH  14  10
ATOM      7  O   UNL     1     -10.083 -10.678  19.653  0.00  0.00    -0.270 OA
ATOM     10  N   UNL     1      -8.547 -10.562  17.920  0.00  0.00    -0.304 N 
ATOM     18  C   UNL     1      -9.739 -10.247  18.556  0.00  0.00    +0.244 C 
ATOM     34  H   UNL     1      -8.381 -10.252  16.968  0.00  0.00    +0.149 HD
BRANCH  18  20
ATOM     20  C   UNL     1     -10.651  -9.337  17.815  0.00  0.00    +0.037 A 
ATOM     21  C   UNL     1     -10.161  -8.146  17.279  0.00  0.00    +0.013 A 
ATOM     22  C   UNL     1     -11.996  -9.673  17.658  0.00  0.00    +0.013 A 
ATOM     24  C   UNL     1     -11.017  -7.291  16.584  0.00  0.00    +0.013 A 
ATOM     25  C   UNL     1     -12.850  -8.818  16.963  0.00  0.00    +0.013 A 
ATOM     26  C   UNL     1     -12.362  -7.626  16.427  0.00  0.00    +0.055 A 
BRANCH  26  29
ATOM      1  F   UNL     1     -14.414  -6.399  16.369  0.00  0.00    -0.166 F 
ATOM      2  F   UNL     1     -13.707  -7.221  14.490  0.00  0.00    -0.166 F 
ATOM      3  F   UNL     1     -12.689  -5.517  15.381  0.00  0.00    -0.166 F 
ATOM     29  C   UNL     1     -13.275  -6.713  15.683  0.00  0.00    +0.417 C 
ENDBRANCH  26  29
ENDBRANCH  18  20
ENDBRANCH  14  10
BRANCH  15   6
ATOM      6  O   UNL     1      -3.267 -11.678  16.971  0.00  0.00    -0.442 OA
BRANCH   6  19
ATOM      8  O   UNL     1      -1.988 -10.070  15.967  0.00  0.00    -0.226 OA
ATOM     11  N   UNL     1      -3.600 -11.281  14.776  0.00  0.00    -0.251 N 
ATOM     19  C   UNL     1      -2.866 -10.919  15.890  0.00  0.00    +0.405 C 
ATOM     35  H   UNL     1      -4.290 -12.015  14.912  0.00  0.00    +0.158 HD
BRANCH  11  23
ATOM     23  C   UNL     1      -3.509 -10.756  13.467  0.00  0.00    +0.037 A 
ATOM     27  C   UNL     1      -2.278 -10.719  12.814  0.00  0.00    +0.027 A 
ATOM     28  C   UNL     1      -4.653 -10.276  12.828  0.00  0.00    +0.027 A 
ATOM     30  C   UNL     1      -2.189 -10.202  11.520  0.00  0.00    +0.047 A 
ATOM     31  C   UNL     1      -4.565  -9.760  11.534  0.00  0.00    +0.047 A 
ATOM     32  C   UNL     1      -3.333  -9.723  10.882  0.00  0.00    +0.120 A 
BRANCH  32   9
ATOM      9  O   UNL     1      -3.246  -9.221   9.620  0.00  0.00    -0.495 OA
ATOM     33  C   UNL     1      -4.466  -9.076   8.894  0.00  0.00    +0.277 C 
ENDBRANCH  32   9
ENDBRANCH  11  23
ENDBRANCH   6  19
ENDBRANCH  15   6
TORSDOF 7
ENDMDL
MODEL 8
REMARK VINA RESULT:      -7.0     22.633     23.994
REMARK  Name = 11884054
REMARK  8 active torsions:
REMARK  status: ('A' for Active; 'I' for Inactive)
REMARK    1  A    between atoms: O_6  and  C_15
REMARK    2  A    between atoms: O_6  and  C_19
REMARK    3  A    between atoms: O_9  and  C_32
REMARK    4  A    between atoms: O_9  and  C_33
REMARK    5  A    between atoms: N_10  and  C_14
REMARK    6  A    between atoms: N_11  and  C_23
REMARK    7  A    between atoms: C_18  and  C_20
REMARK    8  A    between atoms: C_26  and  C_29
REMARK                            x       y       z     vdW  Elec       q    Type
REMARK                         _______ _______ _______ _____ _____    ______ ____
ROOT
ATOM      4  O   UNL     1      -4.975 -11.614  10.574  0.00  0.00    -0.368 OA
ATOM      5  O   UNL     1      -3.630  -8.914  10.017  0.00  0.00    -0.368 OA
ATOM     12  C   UNL     1      -4.401  -9.384  11.142  0.00  0.00    +0.173 C 
ATOM     13  C   UNL     1      -5.494 -10.274  10.585  0.00  0.00    +0.192 C 
ATOM     14  C   UNL     1      -3.568 -10.320  11.988  0.00  0.00    +0.130 C 
ATOM     15  C   UNL     1      -5.675  -9.732   9.187  0.00  0.00    +0.235 C 
ATOM     16  C   UNL     1      -3.703 -11.635  11.240  0.00  0.00    +0.185 C 
ATOM     17  C   UNL     1      -4.262  -9.355   8.805  0.00  0.00    +0.207 C 
ENDROOT
BRANCH  14  10
ATOM      7  O   UNL     1      -2.050 -10.602  14.408  0.00  0.00    -0.270 OA
ATOM     10  N   UNL     1      -4.094 -10.420  13.327  0.00  0.00    -0.304 N 
ATOM     18  C   UNL     1      -3.277 -10.556  14.441  0.00  0.00    +0.244 C 
ATOM     34  H   UNL     1      -5.101 -10.498  13.423  0.00  0.00    +0.149 HD
BRANCH  18  20
ATOM     20  C   UNL     1      -3.973 -10.674  15.748  0.00  0.00    +0.037 A 
ATOM     21  C   UNL     1      -5.241 -10.118  15.915  0.00  0.00    +0.013 A 
ATOM     22  C   UNL     1      -3.358 -11.339  16.809  0.00  0.00    +0.013 A 
ATOM     24  C   UNL     1      -5.895 -10.227  17.143  0.00  0.00    +0.013 A 
ATOM     25  C   UNL     1      -4.011 -11.447  18.036  0.00  0.00    +0.013 A 
ATOM     26  C   UNL     1      -5.280 -10.891  18.203  0.00  0.00    +0.055 A 
BRANCH  26  29
ATOM      1  F   UNL     1      -7.142 -11.726  19.452  0.00  0.00    -0.166 F 
ATOM      2  F   UNL     1      -6.332  -9.807  20.058  0.00  0.00    -0.166 F 
ATOM      3  F   UNL     1      -5.217 -11.630  20.461  0.00  0.00    -0.166 F 
ATOM     29  C   UNL     1      -5.980 -11.009  19.514  0.00  0.00    +0.417 C 
ENDBRANCH  26  29
ENDBRANCH  18  20
ENDBRANCH  14  10
BRANCH  15   6
ATOM      6  O   UNL     1      -6.236 -10.664   8.290  0.00  0.00    -0.442 OA
BRANCH   6  19
ATOM      8  O   UNL     1      -6.047  -9.553   6.300  0.00  0.00    -0.226 OA
ATOM     11  N   UNL     1      -5.261 -11.743   6.565  0.00  0.00    -0.251 N 
ATOM     19  C   UNL     1      -5.858 -10.563   6.967  0.00  0.00    +0.405 C 
ATOM     35  H   UNL     1      -5.193 -12.474   7.269  0.00  0.00    +0.158 HD
BRANCH  11  23
ATOM     23  C   UNL     1      -4.732 -12.062   5.295  0.00  0.00    +0.037 A 
ATOM     27  C   UNL     1      -3.355 -12.211   5.130  0.00  0.00    +0.027 A 
ATOM     28  C   UNL     1      -5.587 -12.228   4.205  0.00  0.00    +0.027 A 
ATOM     30  C   UNL     1      -2.832 -12.527   3.875  0.00  0.00    +0.047 A 
ATOM     31  C   UNL     1      -5.065 -12.546   2.951  0.00  0.00    +0.047 A 
ATOM     32  C   UNL     1      -3.688 -12.695   2.786  0.00  0.00    +0.120 A 
BRANCH  32   9
ATOM      9  O   UNL     1      -3.178 -13.005   1.564  0.00  0.00    -0.495 OA
ATOM     33  C   UNL     1      -4.107 -13.142   0.489  0.00  0.00    +0.277 C 
ENDBRANCH  32   9
ENDBRANCH  11  23
ENDBRANCH   6  19
ENDBRANCH  15   6
TORSDOF 7
ENDMDL
MODEL 9
REMARK VINA RESULT:      -7.0     19.760     21.205
REMARK  Name = 11884054
REMARK  8 active torsions:
REMARK  status: ('A' for Active; 'I' for Inactive)
REMARK    1  A    between atoms: O_6  and  C_15
REMARK    2  A    between atoms: O_6  and  C_19
REMARK    3  A    between atoms: O_9  and  C_32
REMARK    4  A    between atoms: O_9  and  C_33
REMARK    5  A    between atoms: N_10  and  C_14
REMARK    6  A    between atoms: N_11  and  C_23
REMARK    7  A    between atoms: C_18  and  C_20
REMARK    8  A    between atoms: C_26  and  C_29
REMARK                            x       y       z     vdW  Elec       q    Type
REMARK                         _______ _______ _______ _____ _____    ______ ____
ROOT
ATOM      4  O   UNL     1      -5.661 -11.127  10.456  0.00  0.00    -0.368 OA
ATOM      5  O   UNL     1      -3.398  -9.096  10.055  0.00  0.00    -0.368 OA
ATOM     12  C   UNL     1      -4.266  -9.349  11.178  0.00  0.00    +0.173 C 
ATOM     13  C   UNL     1      -5.628  -9.698  10.612  0.00  0.00    +0.192 C 
ATOM     14  C   UNL     1      -3.838 -10.611  11.892  0.00  0.00    +0.130 C 
ATOM     15  C   UNL     1      -5.617  -8.990   9.277  0.00  0.00    +0.235 C 
ATOM     16  C   UNL     1      -4.481 -11.695  11.044  0.00  0.00    +0.185 C 
ATOM     17  C   UNL     1      -4.175  -9.141   8.849  0.00  0.00    +0.207 C 
ENDROOT
BRANCH  14  10
ATOM      7  O   UNL     1      -2.266 -10.580  14.295  0.00  0.00    -0.270 OA
ATOM     10  N   UNL     1      -4.334 -10.640  13.246  0.00  0.00    -0.304 N 
ATOM     18  C   UNL     1      -3.492 -10.623  14.350  0.00  0.00    +0.244 C 
ATOM     34  H   UNL     1      -5.331 -10.784  13.369  0.00  0.00    +0.149 HD
BRANCH  18  20
ATOM     20  C   UNL     1      -4.158 -10.684  15.676  0.00  0.00    +0.037 A 
ATOM     21  C   UNL     1      -5.422 -10.120  15.848  0.00  0.00    +0.013 A 
ATOM     22  C   UNL     1      -3.518 -11.304  16.750  0.00  0.00    +0.013 A 
ATOM     24  C   UNL     1      -6.047 -10.176  17.095  0.00  0.00    +0.013 A 
ATOM     25  C   UNL     1      -4.144 -11.359  17.996  0.00  0.00    +0.013 A 
ATOM     26  C   UNL     1      -5.408 -10.795  18.168  0.00  0.00    +0.055 A 
BRANCH  26  29
ATOM      1  F   UNL     1      -6.289  -9.629  20.063  0.00  0.00    -0.166 F 
ATOM      2  F   UNL     1      -5.374 -11.560  20.434  0.00  0.00    -0.166 F 
ATOM      3  F   UNL     1      -7.306 -11.448  19.441  0.00  0.00    -0.166 F 
ATOM     29  C   UNL     1      -6.077 -10.856  19.499  0.00  0.00    +0.417 C 
ENDBRANCH  26  29
ENDBRANCH  18  20
ENDBRANCH  14  10
BRANCH  15   6
ATOM      6  O   UNL     1      -6.510  -9.545   8.339  0.00  0.00    -0.442 OA
BRANCH   6  19
ATOM      8  O   UNL     1      -7.727  -8.524   6.692  0.00  0.00    -0.226 OA
ATOM     11  N   UNL     1      -8.220  -8.211   8.960  0.00  0.00    -0.251 N 
ATOM     19  C   UNL     1      -7.524  -8.726   7.883  0.00  0.00    +0.405 C 
ATOM     35  H   UNL     1      -7.899  -8.498   9.881  0.00  0.00    +0.158 HD
BRANCH  11  23
ATOM     23  C   UNL     1      -9.327  -7.333   8.940  0.00  0.00    +0.037 A 
ATOM     27  C   UNL     1      -9.165  -6.015   8.516  0.00  0.00    +0.027 A 
ATOM     28  C   UNL     1     -10.583  -7.787   9.345  0.00  0.00    +0.027 A 
ATOM     30  C   UNL     1     -10.259  -5.149   8.496  0.00  0.00    +0.047 A 
ATOM     31  C   UNL     1     -11.677  -6.921   9.325  0.00  0.00    +0.047 A 
ATOM     32  C   UNL     1     -11.515  -5.603   8.900  0.00  0.00    +0.120 A 
BRANCH  32   9
ATOM      9  O   UNL     1     -12.581  -4.758   8.878  0.00  0.00    -0.495 OA
ATOM     33  C   UNL     1     -12.304  -3.360   8.960  0.00  0.00    +0.277 C 
ENDBRANCH  32   9
ENDBRANCH  11  23
ENDBRANCH   6  19
ENDBRANCH  15   6
TORSDOF 7
ENDMDL
MODEL 10
REMARK VINA RESULT:      -7.0     18.822     21.030
REMARK  Name = 11884054
REMARK  8 active torsions:
REMARK  status: ('A' for Active; 'I' for Inactive)
REMARK    1  A    between atoms: O_6  and  C_15
REMARK    2  A    between atoms: O_6  and  C_19
REMARK    3  A    between atoms: O_9  and  C_32
REMARK    4  A    between atoms: O_9  and  C_33
REMARK    5  A    between atoms: N_10  and  C_14
REMARK    6  A    between atoms: N_11  and  C_23
REMARK    7  A    between atoms: C_18  and  C_20
REMARK    8  A    between atoms: C_26  and  C_29
REMARK                            x       y       z     vdW  Elec       q    Type
REMARK                         _______ _______ _______ _____ _____    ______ ____
ROOT
ATOM      4  O   UNL     1      -6.729 -10.189  18.562  0.00  0.00    -0.368 OA
ATOM      5  O   UNL     1      -6.887 -13.236  18.875  0.00  0.00    -0.368 OA
ATOM     12  C   UNL     1      -6.823 -12.398  17.703  0.00  0.00    +0.173 C 
ATOM     13  C   UNL     1      -7.636 -11.156  18.005  0.00  0.00    +0.192 C 
ATOM     14  C   UNL     1      -5.417 -11.873  17.516  0.00  0.00    +0.130 C 
ATOM     15  C   UNL     1      -8.623 -11.655  19.034  0.00  0.00    +0.235 C 
ATOM     16  C   UNL     1      -5.387 -10.689  18.467  0.00  0.00    +0.185 C 
ATOM     17  C   UNL     1      -7.792 -12.644  19.819  0.00  0.00    +0.207 C 
ENDROOT
BRANCH  14  10
ATOM      7  O   UNL     1      -2.878 -11.344  16.285  0.00  0.00    -0.270 OA
ATOM     10  N   UNL     1      -5.190 -11.459  16.153  0.00  0.00    -0.304 N 
ATOM     18  C   UNL     1      -3.920 -11.225  15.646  0.00  0.00    +0.244 C 
ATOM     34  H   UNL     1      -6.009 -11.237  15.596  0.00  0.00    +0.149 HD
BRANCH  18  20
ATOM     20  C   UNL     1      -3.857 -10.779  14.230  0.00  0.00    +0.037 A 
ATOM     21  C   UNL     1      -2.630 -10.733  13.568  0.00  0.00    +0.013 A 
ATOM     22  C   UNL     1      -5.024 -10.405  13.564  0.00  0.00    +0.013 A 
ATOM     24  C   UNL     1      -2.570 -10.312  12.239  0.00  0.00    +0.013 A 
ATOM     25  C   UNL     1      -4.963  -9.985  12.235  0.00  0.00    +0.013 A 
ATOM     26  C   UNL     1      -3.736  -9.938  11.573  0.00  0.00    +0.055 A 
BRANCH  26  29
ATOM      1  F   UNL     1      -3.844 -10.504   9.251  0.00  0.00    -0.166 F 
ATOM      2  F   UNL     1      -2.481  -8.913   9.813  0.00  0.00    -0.166 F 
ATOM      3  F   UNL     1      -4.628  -8.566   9.849  0.00  0.00    -0.166 F 
ATOM     29  C   UNL     1      -3.671  -9.491  10.152  0.00  0.00    +0.417 C 
ENDBRANCH  26  29
ENDBRANCH  18  20
ENDBRANCH  14  10
BRANCH  15   6
ATOM      6  O   UNL     1      -9.147 -10.634  19.853  0.00  0.00    -0.442 OA
BRANCH   6  19
ATOM      8  O   UNL     1     -11.354 -10.046  19.968  0.00  0.00    -0.226 OA
ATOM     11  N   UNL     1      -9.970  -9.290  18.238  0.00  0.00    -0.251 N 
ATOM     19  C   UNL     1     -10.274  -9.983  19.394  0.00  0.00    +0.405 C 
ATOM     35  H   UNL     1      -9.008  -9.359  17.914  0.00  0.00    +0.158 HD
BRANCH  11  23
ATOM     23  C   UNL     1     -10.829  -8.495  17.448  0.00  0.00    +0.037 A 
ATOM     27  C   UNL     1     -12.043  -9.015  16.999  0.00  0.00    +0.027 A 
ATOM     28  C   UNL     1     -10.464  -7.190  17.118  0.00  0.00    +0.027 A 
ATOM     30  C   UNL     1     -12.893  -8.228  16.220  0.00  0.00    +0.047 A 
ATOM     31  C   UNL     1     -11.314  -6.403  16.339  0.00  0.00    +0.047 A 
ATOM     32  C   UNL     1     -12.528  -6.923  15.890  0.00  0.00    +0.120 A 
BRANCH  32   9
ATOM      9  O   UNL     1     -13.358  -6.156  15.132  0.00  0.00    -0.495 OA
ATOM     33  C   UNL     1     -12.760  -5.394  14.084  0.00  0.00    +0.277 C 
ENDBRANCH  32   9
ENDBRANCH  11  23
ENDBRANCH   6  19
ENDBRANCH  15   6
TORSDOF 7
ENDMDL
