MODEL 1
REMARK VINA RESULT:      -7.2      0.000      0.000
REMARK  Name = 45361538
REMARK  11 active torsions:
REMARK  status: ('A' for Active; 'I' for Inactive)
REMARK    1  A    between atoms: O_1  and  C_13
REMARK    2  A    between atoms: N_5  and  C_17
REMARK    3  A    between atoms: N_6  and  C_27
REMARK    4  A    between atoms: N_8  and  C_28
REMARK    5  A    between atoms: C_10  and  C_20
REMARK    6  A    between atoms: C_12  and  C_22
REMARK    7  A    between atoms: C_16  and  C_21
REMARK    8  A    between atoms: C_21  and  C_23
REMARK    9  A    between atoms: C_21  and  C_24
REMARK   10  A    between atoms: C_25  and  C_26
REMARK   11  A    between atoms: C_27  and  C_28
REMARK                            x       y       z     vdW  Elec       q    Type
REMARK                         _______ _______ _______ _____ _____    ______ ____
ROOT
ATOM     10  C   UNL     1     -16.019   7.093  22.527  0.00  0.00    -0.027 C 
ATOM     11  C   UNL     1     -14.629   6.390  22.679  0.00  0.00    +0.028 C 
ATOM     12  C   UNL     1     -13.719   6.677  21.431  0.00  0.00    +0.012 C 
ATOM     13  C   UNL     1     -14.793   4.890  23.057  0.00  0.00    +0.122 C 
ATOM     14  C   UNL     1     -16.846   6.886  23.817  0.00  0.00    +0.007 C 
ATOM     15  C   UNL     1     -15.800   8.613  22.347  0.00  0.00    +0.009 C 
ATOM     16  C   UNL     1     -15.707   4.683  24.287  0.00  0.00    +0.029 C 
ATOM     17  C   UNL     1     -13.566   8.209  21.216  0.00  0.00    +0.076 C 
ATOM     18  C   UNL     1     -17.042   5.417  24.169  0.00  0.00    +0.007 C 
ATOM     19  C   UNL     1     -14.901   8.951  21.166  0.00  0.00    +0.023 C 
ATOM     20  C   UNL     1     -16.831   6.548  21.323  0.00  0.00    +0.011 C 
ATOM     22  C   UNL     1     -12.323   6.038  21.528  0.00  0.00    +0.010 C 
ENDROOT
BRANCH  17   5
ATOM      3  O   UNL     1     -11.610  10.283  20.871  0.00  0.00    -0.268 OA
ATOM      5  N   UNL     1     -12.829   8.510  20.007  0.00  0.00    -0.307 N 
ATOM     25  C   UNL     1     -11.902   9.536  19.940  0.00  0.00    +0.264 C 
ATOM     36  H   UNL     1     -13.045   7.982  19.166  0.00  0.00    +0.149 HD
BRANCH  25  26
ATOM      7  N   UNL     1     -10.874  10.989  18.314  0.00  0.00    -0.247 NA
ATOM      9  N   UNL     1     -10.459   8.845  16.554  0.00  0.00    -0.259 NA
ATOM     26  C   UNL     1     -11.250   9.732  18.620  0.00  0.00    +0.143 A 
ATOM     29  C   UNL     1     -11.047   8.678  17.756  0.00  0.00    +0.143 A 
ATOM     32  C   UNL     1     -10.286  11.156  17.113  0.00  0.00    +0.131 A 
ATOM     35  C   UNL     1     -10.082  10.103  16.248  0.00  0.00    +0.130 A 
ENDBRANCH  25  26
ENDBRANCH  17   5
BRANCH  13   1
ATOM      1  O   UNL     1     -13.519   4.341  23.397  0.00  0.00    -0.391 OA
ATOM     37  H   UNL     1     -13.108   4.922  24.061  0.00  0.00    +0.210 HD
ENDBRANCH  13   1
BRANCH  16  21
ATOM     21  C   UNL     1     -15.961   3.196  24.564  0.00  0.00    +0.077 C 
ATOM     23  C   UNL     1     -16.863   2.609  23.483  0.00  0.00    +0.017 C 
BRANCH  21  24
ATOM      2  O   UNL     1     -17.643   2.450  26.139  0.00  0.00    -0.276 OA
ATOM      6  N   UNL     1     -15.786   3.578  26.951  0.00  0.00    -0.314 N 
ATOM     24  C   UNL     1     -16.572   3.022  25.951  0.00  0.00    +0.216 C 
ATOM     38  H   UNL     1     -14.922   4.052  26.702  0.00  0.00    +0.149 HD
BRANCH   6  27
ATOM     27  C   UNL     1     -16.156   3.542  28.346  0.00  0.00    +0.119 C 
BRANCH  27  28
ATOM     28  C   UNL     1     -14.957   3.226  29.227  0.00  0.00    +0.103 C 
BRANCH  28   8
ATOM      4  O   UNL     1     -14.704  -0.172  31.677  0.00  0.00    -0.377 OA
ATOM      8  N   UNL     1     -15.297   2.184  30.194  0.00  0.00    -0.297 NA
ATOM     30  C   UNL     1     -15.281   0.858  29.558  0.00  0.00    +0.112 C 
ATOM     31  C   UNL     1     -14.369   2.207  31.333  0.00  0.00    +0.112 C 
ATOM     33  C   UNL     1     -15.628  -0.213  30.588  0.00  0.00    +0.175 C 
ATOM     34  C   UNL     1     -14.736   1.102  32.321  0.00  0.00    +0.175 C 
ENDBRANCH  28   8
ENDBRANCH  27  28
ENDBRANCH   6  27
ENDBRANCH  21  24
ENDBRANCH  16  21
TORSDOF 8
ENDMDL
MODEL 2
REMARK VINA RESULT:      -6.8     31.756     36.407
REMARK  Name = 45361538
REMARK  11 active torsions:
REMARK  status: ('A' for Active; 'I' for Inactive)
REMARK    1  A    between atoms: O_1  and  C_13
REMARK    2  A    between atoms: N_5  and  C_17
REMARK    3  A    between atoms: N_6  and  C_27
REMARK    4  A    between atoms: N_8  and  C_28
REMARK    5  A    between atoms: C_10  and  C_20
REMARK    6  A    between atoms: C_12  and  C_22
REMARK    7  A    between atoms: C_16  and  C_21
REMARK    8  A    between atoms: C_21  and  C_23
REMARK    9  A    between atoms: C_21  and  C_24
REMARK   10  A    between atoms: C_25  and  C_26
REMARK   11  A    between atoms: C_27  and  C_28
REMARK                            x       y       z     vdW  Elec       q    Type
REMARK                         _______ _______ _______ _____ _____    ______ ____
ROOT
ATOM     10  C   UNL     1      20.602   7.748  22.033  0.00  0.00    -0.027 C 
ATOM     11  C   UNL     1      20.324   6.722  20.884  0.00  0.00    +0.028 C 
ATOM     12  C   UNL     1      18.803   6.332  20.840  0.00  0.00    +0.012 C 
ATOM     13  C   UNL     1      21.320   5.528  20.941  0.00  0.00    +0.122 C 
ATOM     14  C   UNL     1      22.081   8.197  21.978  0.00  0.00    +0.007 C 
ATOM     15  C   UNL     1      19.722   9.001  21.816  0.00  0.00    +0.009 C 
ATOM     16  C   UNL     1      22.796   5.986  20.990  0.00  0.00    +0.029 C 
ATOM     17  C   UNL     1      17.923   7.606  20.695  0.00  0.00    +0.076 C 
ATOM     18  C   UNL     1      23.059   7.033  22.072  0.00  0.00    +0.007 C 
ATOM     19  C   UNL     1      18.236   8.680  21.737  0.00  0.00    +0.023 C 
ATOM     20  C   UNL     1      20.313   7.159  23.437  0.00  0.00    +0.011 C 
ATOM     22  C   UNL     1      18.453   5.346  19.712  0.00  0.00    +0.010 C 
ENDROOT
BRANCH  17   5
ATOM      3  O   UNL     1      15.755   9.251  19.781  0.00  0.00    -0.268 OA
ATOM      5  N   UNL     1      16.512   7.294  20.768  0.00  0.00    -0.307 N 
ATOM     25  C   UNL     1      15.537   8.157  20.297  0.00  0.00    +0.264 C 
ATOM     36  H   UNL     1      16.230   6.436  21.234  0.00  0.00    +0.149 HD
BRANCH  25  26
ATOM      7  N   UNL     1      13.549   7.982  21.650  0.00  0.00    -0.247 NA
ATOM      9  N   UNL     1      12.199   6.606  19.613  0.00  0.00    -0.259 NA
ATOM     26  C   UNL     1      14.134   7.702  20.469  0.00  0.00    +0.143 A 
ATOM     29  C   UNL     1      13.471   7.026  19.468  0.00  0.00    +0.143 A 
ATOM     32  C   UNL     1      12.277   7.562  21.795  0.00  0.00    +0.131 A 
ATOM     35  C   UNL     1      11.613   6.886  20.795  0.00  0.00    +0.130 A 
ENDBRANCH  25  26
ENDBRANCH  17   5
BRANCH  13   1
ATOM      1  O   UNL     1      21.178   4.733  19.763  0.00  0.00    -0.391 OA
ATOM     37  H   UNL     1      20.433   5.087  19.247  0.00  0.00    +0.210 HD
ENDBRANCH  13   1
BRANCH  16  21
ATOM     21  C   UNL     1      23.753   4.803  21.177  0.00  0.00    +0.077 C 
ATOM     23  C   UNL     1      24.511   4.945  22.493  0.00  0.00    +0.017 C 
BRANCH  21  24
ATOM      2  O   UNL     1      24.787   3.721  19.272  0.00  0.00    -0.276 OA
ATOM      6  N   UNL     1      25.463   5.869  19.830  0.00  0.00    -0.314 N 
ATOM     24  C   UNL     1      24.709   4.715  19.991  0.00  0.00    +0.216 C 
ATOM     38  H   UNL     1      25.348   6.637  20.485  0.00  0.00    +0.149 HD
BRANCH   6  27
ATOM     27  C   UNL     1      26.439   6.023  18.777  0.00  0.00    +0.119 C 
BRANCH  27  28
ATOM     28  C   UNL     1      27.057   7.413  18.797  0.00  0.00    +0.103 C 
BRANCH  28   8
ATOM      4  O   UNL     1      25.023   8.704  15.361  0.00  0.00    -0.377 OA
ATOM      8  N   UNL     1      26.724   8.135  17.571  0.00  0.00    -0.297 NA
ATOM     30  C   UNL     1      26.601   7.207  16.437  0.00  0.00    +0.112 C 
ATOM     31  C   UNL     1      25.479   8.896  17.736  0.00  0.00    +0.112 C 
ATOM     33  C   UNL     1      26.242   7.982  15.172  0.00  0.00    +0.175 C 
ATOM     34  C   UNL     1      25.145   9.631  16.440  0.00  0.00    +0.175 C 
ENDBRANCH  28   8
ENDBRANCH  27  28
ENDBRANCH   6  27
ENDBRANCH  21  24
ENDBRANCH  16  21
TORSDOF 8
ENDMDL
MODEL 3
REMARK VINA RESULT:      -6.8     20.152     21.951
REMARK  Name = 45361538
REMARK  11 active torsions:
REMARK  status: ('A' for Active; 'I' for Inactive)
REMARK    1  A    between atoms: O_1  and  C_13
REMARK    2  A    between atoms: N_5  and  C_17
REMARK    3  A    between atoms: N_6  and  C_27
REMARK    4  A    between atoms: N_8  and  C_28
REMARK    5  A    between atoms: C_10  and  C_20
REMARK    6  A    between atoms: C_12  and  C_22
REMARK    7  A    between atoms: C_16  and  C_21
REMARK    8  A    between atoms: C_21  and  C_23
REMARK    9  A    between atoms: C_21  and  C_24
REMARK   10  A    between atoms: C_25  and  C_26
REMARK   11  A    between atoms: C_27  and  C_28
REMARK                            x       y       z     vdW  Elec       q    Type
REMARK                         _______ _______ _______ _____ _____    ______ ____
ROOT
ATOM     10  C   UNL     1      -3.229 -11.284  11.757  0.00  0.00    -0.027 C 
ATOM     11  C   UNL     1      -4.552 -10.841  12.467  0.00  0.00    +0.028 C 
ATOM     12  C   UNL     1      -5.393  -9.894  11.539  0.00  0.00    +0.012 C 
ATOM     13  C   UNL     1      -4.270 -10.298  13.898  0.00  0.00    +0.122 C 
ATOM     14  C   UNL     1      -2.480 -12.302  12.649  0.00  0.00    +0.007 C 
ATOM     15  C   UNL     1      -3.581 -11.992  10.429  0.00  0.00    +0.009 C 
ATOM     16  C   UNL     1      -3.431 -11.277  14.751  0.00  0.00    +0.029 C 
ATOM     17  C   UNL     1      -5.679 -10.588  10.177  0.00  0.00    +0.076 C 
ATOM     18  C   UNL     1      -2.168 -11.759  14.037  0.00  0.00    +0.007 C 
ATOM     19  C   UNL     1      -4.422 -11.130   9.497  0.00  0.00    +0.023 C 
ATOM     20  C   UNL     1      -2.284 -10.090  11.464  0.00  0.00    +0.011 C 
ATOM     22  C   UNL     1      -6.724  -9.442  12.164  0.00  0.00    +0.010 C 
ENDROOT
BRANCH  17   5
ATOM      3  O   UNL     1      -7.646 -11.323   8.218  0.00  0.00    -0.268 OA
ATOM      5  N   UNL     1      -6.353  -9.700   9.253  0.00  0.00    -0.307 N 
ATOM     25  C   UNL     1      -7.291 -10.153   8.342  0.00  0.00    +0.264 C 
ATOM     36  H   UNL     1      -6.082  -8.721   9.240  0.00  0.00    +0.149 HD
BRANCH  25  26
ATOM      7  N   UNL     1      -7.844  -7.850   7.892  0.00  0.00    -0.247 NA
ATOM      9  N   UNL     1      -8.948  -8.526   5.404  0.00  0.00    -0.259 NA
ATOM     26  C   UNL     1      -7.872  -9.121   7.446  0.00  0.00    +0.143 A 
ATOM     29  C   UNL     1      -8.415  -9.454   6.224  0.00  0.00    +0.143 A 
ATOM     32  C   UNL     1      -8.376  -6.922   7.072  0.00  0.00    +0.131 A 
ATOM     35  C   UNL     1      -8.919  -7.254   5.850  0.00  0.00    +0.130 A 
ENDBRANCH  25  26
ENDBRANCH  17   5
BRANCH  13   1
ATOM      1  O   UNL     1      -5.506 -10.109  14.588  0.00  0.00    -0.391 OA
ATOM     37  H   UNL     1      -5.401 -10.448  15.493  0.00  0.00    +0.210 HD
ENDBRANCH  13   1
BRANCH  16  21
ATOM     21  C   UNL     1      -3.054 -10.670  16.108  0.00  0.00    +0.077 C 
ATOM     23  C   UNL     1      -1.538 -10.672  16.280  0.00  0.00    +0.017 C 
BRANCH  21  24
ATOM      2  O   UNL     1      -3.340 -11.421  18.393  0.00  0.00    -0.276 OA
ATOM      6  N   UNL     1      -4.849 -12.149  16.789  0.00  0.00    -0.314 N 
ATOM     24  C   UNL     1      -3.741 -11.440  17.231  0.00  0.00    +0.216 C 
ATOM     38  H   UNL     1      -5.098 -12.124  15.804  0.00  0.00    +0.149 HD
BRANCH   6  27
ATOM     27  C   UNL     1      -5.662 -12.956  17.668  0.00  0.00    +0.119 C 
BRANCH  27  28
ATOM     28  C   UNL     1      -6.855 -12.172  18.192  0.00  0.00    +0.103 C 
BRANCH  28   8
ATOM      4  O   UNL     1      -9.260  -9.474  16.058  0.00  0.00    -0.377 OA
ATOM      8  N   UNL     1      -7.306 -11.205  17.193  0.00  0.00    -0.297 NA
ATOM     30  C   UNL     1      -8.454 -11.730  16.439  0.00  0.00    +0.112 C 
ATOM     31  C   UNL     1      -7.662  -9.928  17.826  0.00  0.00    +0.112 C 
ATOM     33  C   UNL     1      -8.912 -10.700  15.411  0.00  0.00    +0.175 C 
ATOM     34  C   UNL     1      -8.141  -8.940  16.766  0.00  0.00    +0.175 C 
ENDBRANCH  28   8
ENDBRANCH  27  28
ENDBRANCH   6  27
ENDBRANCH  21  24
ENDBRANCH  16  21
TORSDOF 8
ENDMDL
MODEL 4
REMARK VINA RESULT:      -6.8     28.418     32.522
REMARK  Name = 45361538
REMARK  11 active torsions:
REMARK  status: ('A' for Active; 'I' for Inactive)
REMARK    1  A    between atoms: O_1  and  C_13
REMARK    2  A    between atoms: N_5  and  C_17
REMARK    3  A    between atoms: N_6  and  C_27
REMARK    4  A    between atoms: N_8  and  C_28
REMARK    5  A    between atoms: C_10  and  C_20
REMARK    6  A    between atoms: C_12  and  C_22
REMARK    7  A    between atoms: C_16  and  C_21
REMARK    8  A    between atoms: C_21  and  C_23
REMARK    9  A    between atoms: C_21  and  C_24
REMARK   10  A    between atoms: C_25  and  C_26
REMARK   11  A    between atoms: C_27  and  C_28
REMARK                            x       y       z     vdW  Elec       q    Type
REMARK                         _______ _______ _______ _____ _____    ______ ____
ROOT
ATOM     10  C   UNL     1      16.928   7.237  20.401  0.00  0.00    -0.027 C 
ATOM     11  C   UNL     1      17.973   8.243  20.989  0.00  0.00    +0.028 C 
ATOM     12  C   UNL     1      19.075   7.485  21.812  0.00  0.00    +0.012 C 
ATOM     13  C   UNL     1      17.271   9.416  21.731  0.00  0.00    +0.122 C 
ATOM     14  C   UNL     1      15.925   8.000  19.504  0.00  0.00    +0.007 C 
ATOM     15  C   UNL     1      17.663   6.207  19.513  0.00  0.00    +0.009 C 
ATOM     16  C   UNL     1      16.194  10.110  20.864  0.00  0.00    +0.029 C 
ATOM     17  C   UNL     1      19.757   6.401  20.931  0.00  0.00    +0.076 C 
ATOM     18  C   UNL     1      15.207   9.125  20.239  0.00  0.00    +0.007 C 
ATOM     19  C   UNL     1      18.763   5.458  20.252  0.00  0.00    +0.023 C 
ATOM     20  C   UNL     1      16.138   6.488  21.505  0.00  0.00    +0.011 C 
ATOM     22  C   UNL     1      20.153   8.413  22.397  0.00  0.00    +0.010 C 
ENDROOT
BRANCH  17   5
ATOM      3  O   UNL     1      22.378   5.579  20.095  0.00  0.00    -0.268 OA
ATOM      5  N   UNL     1      20.697   5.605  21.692  0.00  0.00    -0.307 N 
ATOM     25  C   UNL     1      21.943   5.259  21.199  0.00  0.00    +0.264 C 
ATOM     36  H   UNL     1      20.403   5.242  22.594  0.00  0.00    +0.149 HD
BRANCH  25  26
ATOM      7  N   UNL     1      22.148   3.812  23.117  0.00  0.00    -0.247 NA
ATOM      9  N   UNL     1      24.902   3.508  22.682  0.00  0.00    -0.259 NA
ATOM     26  C   UNL     1      22.779   4.417  22.091  0.00  0.00    +0.143 A 
ATOM     29  C   UNL     1      24.133   4.268  21.877  0.00  0.00    +0.143 A 
ATOM     32  C   UNL     1      22.918   3.053  23.921  0.00  0.00    +0.131 A 
ATOM     35  C   UNL     1      24.271   2.904  23.708  0.00  0.00    +0.130 A 
ENDBRANCH  25  26
ENDBRANCH  17   5
BRANCH  13   1
ATOM      1  O   UNL     1      18.235  10.416  22.062  0.00  0.00    -0.391 OA
ATOM     37  H   UNL     1      17.933  11.263  21.691  0.00  0.00    +0.210 HD
ENDBRANCH  13   1
BRANCH  16  21
ATOM     21  C   UNL     1      15.425  11.175  21.656  0.00  0.00    +0.077 C 
ATOM     23  C   UNL     1      15.277  10.741  23.111  0.00  0.00    +0.017 C 
BRANCH  21  24
ATOM      2  O   UNL     1      13.943  11.905  19.885  0.00  0.00    -0.276 OA
ATOM      6  N   UNL     1      13.011  11.047  21.828  0.00  0.00    -0.314 N 
ATOM     24  C   UNL     1      14.066  11.423  21.009  0.00  0.00    +0.216 C 
ATOM     38  H   UNL     1      13.205  10.675  22.753  0.00  0.00    +0.149 HD
BRANCH   6  27
ATOM     27  C   UNL     1      11.629  11.188  21.435  0.00  0.00    +0.119 C 
BRANCH  27  28
ATOM     28  C   UNL     1      10.814   9.968  21.835  0.00  0.00    +0.103 C 
BRANCH  28   8
ATOM      4  O   UNL     1      11.548   6.209  20.120  0.00  0.00    -0.377 OA
ATOM      8  N   UNL     1      11.491   8.743  21.414  0.00  0.00    -0.297 NA
ATOM     30  C   UNL     1      10.851   7.562  22.009  0.00  0.00    +0.112 C 
ATOM     31  C   UNL     1      11.497   8.628  19.949  0.00  0.00    +0.112 C 
ATOM     33  C   UNL     1      11.568   6.297  21.546  0.00  0.00    +0.175 C 
ATOM     34  C   UNL     1      12.198   7.337  19.534  0.00  0.00    +0.175 C 
ENDBRANCH  28   8
ENDBRANCH  27  28
ENDBRANCH   6  27
ENDBRANCH  21  24
ENDBRANCH  16  21
TORSDOF 8
ENDMDL
MODEL 5
REMARK VINA RESULT:      -6.8     27.770     32.132
REMARK  Name = 45361538
REMARK  11 active torsions:
REMARK  status: ('A' for Active; 'I' for Inactive)
REMARK    1  A    between atoms: O_1  and  C_13
REMARK    2  A    between atoms: N_5  and  C_17
REMARK    3  A    between atoms: N_6  and  C_27
REMARK    4  A    between atoms: N_8  and  C_28
REMARK    5  A    between atoms: C_10  and  C_20
REMARK    6  A    between atoms: C_12  and  C_22
REMARK    7  A    between atoms: C_16  and  C_21
REMARK    8  A    between atoms: C_21  and  C_23
REMARK    9  A    between atoms: C_21  and  C_24
REMARK   10  A    between atoms: C_25  and  C_26
REMARK   11  A    between atoms: C_27  and  C_28
REMARK                            x       y       z     vdW  Elec       q    Type
REMARK                         _______ _______ _______ _____ _____    ______ ____
ROOT
ATOM     10  C   UNL     1       9.453   6.110   6.087  0.00  0.00    -0.027 C 
ATOM     11  C   UNL     1      10.358   7.301   5.623  0.00  0.00    +0.028 C 
ATOM     12  C   UNL     1       9.802   8.667   6.164  0.00  0.00    +0.012 C 
ATOM     13  C   UNL     1      10.621   7.245   4.091  0.00  0.00    +0.122 C 
ATOM     14  C   UNL     1      10.088   4.774   5.636  0.00  0.00    +0.007 C 
ATOM     15  C   UNL     1       9.385   6.100   7.632  0.00  0.00    +0.009 C 
ATOM     16  C   UNL     1      11.158   5.870   3.630  0.00  0.00    +0.029 C 
ATOM     17  C   UNL     1       9.667   8.620   7.712  0.00  0.00    +0.076 C 
ATOM     18  C   UNL     1      10.312   4.701   4.132  0.00  0.00    +0.007 C 
ATOM     19  C   UNL     1       8.878   7.412   8.216  0.00  0.00    +0.023 C 
ATOM     20  C   UNL     1       8.016   6.198   5.513  0.00  0.00    +0.011 C 
ATOM     22  C   UNL     1      10.661   9.880   5.768  0.00  0.00    +0.010 C 
ENDROOT
BRANCH  17   5
ATOM      3  O   UNL     1      10.939  10.659   9.283  0.00  0.00    -0.268 OA
ATOM      5  N   UNL     1       9.049   9.821   8.234  0.00  0.00    -0.307 N 
ATOM     25  C   UNL     1       9.751  10.748   8.984  0.00  0.00    +0.264 C 
ATOM     36  H   UNL     1       8.052   9.953   8.088  0.00  0.00    +0.149 HD
BRANCH  25  26
ATOM      7  N   UNL     1       8.590  12.814   8.540  0.00  0.00    -0.247 NA
ATOM      9  N   UNL     1       7.939  13.115  11.251  0.00  0.00    -0.259 NA
ATOM     26  C   UNL     1       8.967  11.913   9.468  0.00  0.00    +0.143 A 
ATOM     29  C   UNL     1       8.647  12.061  10.800  0.00  0.00    +0.143 A 
ATOM     32  C   UNL     1       7.881  13.869   8.991  0.00  0.00    +0.131 A 
ATOM     35  C   UNL     1       7.562  14.017  10.322  0.00  0.00    +0.130 A 
ENDBRANCH  25  26
ENDBRANCH  17   5
BRANCH  13   1
ATOM      1  O   UNL     1      11.616   8.210   3.743  0.00  0.00    -0.391 OA
ATOM     37  H   UNL     1      11.374   8.596   2.884  0.00  0.00    +0.210 HD
ENDBRANCH  13   1
BRANCH  16  21
ATOM     21  C   UNL     1      11.288   5.793   2.104  0.00  0.00    +0.077 C 
ATOM     23  C   UNL     1      10.551   4.566   1.577  0.00  0.00    +0.017 C 
BRANCH  21  24
ATOM      2  O   UNL     1      13.154   5.314   0.636  0.00  0.00    -0.276 OA
ATOM      6  N   UNL     1      13.583   6.312   2.685  0.00  0.00    -0.314 N 
ATOM     24  C   UNL     1      12.761   5.769   1.708  0.00  0.00    +0.216 C 
ATOM     38  H   UNL     1      13.174   6.648   3.552  0.00  0.00    +0.149 HD
BRANCH   6  27
ATOM     27  C   UNL     1      15.017   6.398   2.540  0.00  0.00    +0.119 C 
BRANCH  27  28
ATOM     28  C   UNL     1      15.674   6.874   3.827  0.00  0.00    +0.103 C 
BRANCH  28   8
ATOM      4  O   UNL     1      14.207   9.650   6.612  0.00  0.00    -0.377 OA
ATOM      8  N   UNL     1      14.771   7.758   4.562  0.00  0.00    -0.297 NA
ATOM     30  C   UNL     1      14.688   7.360   5.975  0.00  0.00    +0.112 C 
ATOM     31  C   UNL     1      15.210   9.156   4.458  0.00  0.00    +0.112 C 
ATOM     33  C   UNL     1      13.749   8.302   6.723  0.00  0.00    +0.175 C 
ATOM     34  C   UNL     1      14.260  10.056   5.244  0.00  0.00    +0.175 C 
ENDBRANCH  28   8
ENDBRANCH  27  28
ENDBRANCH   6  27
ENDBRANCH  21  24
ENDBRANCH  16  21
TORSDOF 8
ENDMDL
MODEL 6
REMARK VINA RESULT:      -6.7     18.925     22.171
REMARK  Name = 45361538
REMARK  11 active torsions:
REMARK  status: ('A' for Active; 'I' for Inactive)
REMARK    1  A    between atoms: O_1  and  C_13
REMARK    2  A    between atoms: N_5  and  C_17
REMARK    3  A    between atoms: N_6  and  C_27
REMARK    4  A    between atoms: N_8  and  C_28
REMARK    5  A    between atoms: C_10  and  C_20
REMARK    6  A    between atoms: C_12  and  C_22
REMARK    7  A    between atoms: C_16  and  C_21
REMARK    8  A    between atoms: C_21  and  C_23
REMARK    9  A    between atoms: C_21  and  C_24
REMARK   10  A    between atoms: C_25  and  C_26
REMARK   11  A    between atoms: C_27  and  C_28
REMARK                            x       y       z     vdW  Elec       q    Type
REMARK                         _______ _______ _______ _____ _____    ______ ____
ROOT
ATOM     10  C   UNL     1      -4.748 -10.993  16.845  0.00  0.00    -0.027 C 
ATOM     11  C   UNL     1      -5.505 -10.385  15.617  0.00  0.00    +0.028 C 
ATOM     12  C   UNL     1      -7.060 -10.500  15.807  0.00  0.00    +0.012 C 
ATOM     13  C   UNL     1      -4.951 -10.948  14.278  0.00  0.00    +0.122 C 
ATOM     14  C   UNL     1      -3.228 -10.762  16.681  0.00  0.00    +0.007 C 
ATOM     15  C   UNL     1      -5.199 -10.260  18.130  0.00  0.00    +0.009 C 
ATOM     16  C   UNL     1      -3.415 -10.808  14.164  0.00  0.00    +0.029 C 
ATOM     17  C   UNL     1      -7.493  -9.824  17.139  0.00  0.00    +0.076 C 
ATOM     18  C   UNL     1      -2.675 -11.347  15.388  0.00  0.00    +0.007 C 
ATOM     19  C   UNL     1      -6.704 -10.315  18.353  0.00  0.00    +0.023 C 
ATOM     20  C   UNL     1      -5.006 -12.513  17.008  0.00  0.00    +0.011 C 
ATOM     22  C   UNL     1      -7.869  -9.894  14.647  0.00  0.00    +0.010 C 
ENDROOT
BRANCH  17   5
ATOM      3  O   UNL     1      -9.476  -7.766  17.418  0.00  0.00    -0.268 OA
ATOM      5  N   UNL     1      -8.904 -10.013  17.403  0.00  0.00    -0.307 N 
ATOM     25  C   UNL     1      -9.784  -8.951  17.521  0.00  0.00    +0.264 C 
ATOM     36  H   UNL     1      -9.243 -10.957  17.562  0.00  0.00    +0.149 HD
BRANCH  25  26
ATOM      7  N   UNL     1     -12.123  -8.887  16.940  0.00  0.00    -0.247 NA
ATOM      9  N   UNL     1     -12.804 -10.369  19.221  0.00  0.00    -0.259 NA
ATOM     26  C   UNL     1     -11.194  -9.311  17.818  0.00  0.00    +0.143 A 
ATOM     29  C   UNL     1     -11.528 -10.039  18.939  0.00  0.00    +0.143 A 
ATOM     32  C   UNL     1     -13.399  -9.216  17.222  0.00  0.00    +0.131 A 
ATOM     35  C   UNL     1     -13.733  -9.945  18.342  0.00  0.00    +0.130 A 
ENDBRANCH  25  26
ENDBRANCH  17   5
BRANCH  13   1
ATOM      1  O   UNL     1      -5.510 -10.217  13.185  0.00  0.00    -0.391 OA
ATOM     37  H   UNL     1      -4.871 -10.234  12.452  0.00  0.00    +0.210 HD
ENDBRANCH  13   1
BRANCH  16  21
ATOM     21  C   UNL     1      -2.874 -11.485  12.898  0.00  0.00    +0.077 C 
ATOM     23  C   UNL     1      -1.687 -12.376  13.247  0.00  0.00    +0.017 C 
BRANCH  21  24
ATOM      2  O   UNL     1      -1.375  -9.917  11.821  0.00  0.00    -0.276 OA
ATOM      6  N   UNL     1      -3.537 -10.121  11.007  0.00  0.00    -0.314 N 
ATOM     24  C   UNL     1      -2.492 -10.428  11.867  0.00  0.00    +0.216 C 
ATOM     38  H   UNL     1      -4.436 -10.578  11.130  0.00  0.00    +0.149 HD
BRANCH   6  27
ATOM     27  C   UNL     1      -3.417  -9.147   9.948  0.00  0.00    +0.119 C 
BRANCH  27  28
ATOM     28  C   UNL     1      -4.709  -9.035   9.152  0.00  0.00    +0.103 C 
BRANCH  28   8
ATOM      4  O   UNL     1      -8.507 -10.548  10.098  0.00  0.00    -0.377 OA
ATOM      8  N   UNL     1      -5.804  -9.686   9.868  0.00  0.00    -0.297 NA
ATOM     30  C   UNL     1      -6.895  -8.736  10.127  0.00  0.00    +0.112 C 
ATOM     31  C   UNL     1      -6.310 -10.838   9.109  0.00  0.00    +0.112 C 
ATOM     33  C   UNL     1      -8.031  -9.440  10.864  0.00  0.00    +0.175 C 
ATOM     34  C   UNL     1      -7.461 -11.493   9.869  0.00  0.00    +0.175 C 
ENDBRANCH  28   8
ENDBRANCH  27  28
ENDBRANCH   6  27
ENDBRANCH  21  24
ENDBRANCH  16  21
TORSDOF 8
ENDMDL
MODEL 7
REMARK VINA RESULT:      -6.5     20.002     23.868
REMARK  Name = 45361538
REMARK  11 active torsions:
REMARK  status: ('A' for Active; 'I' for Inactive)
REMARK    1  A    between atoms: O_1  and  C_13
REMARK    2  A    between atoms: N_5  and  C_17
REMARK    3  A    between atoms: N_6  and  C_27
REMARK    4  A    between atoms: N_8  and  C_28
REMARK    5  A    between atoms: C_10  and  C_20
REMARK    6  A    between atoms: C_12  and  C_22
REMARK    7  A    between atoms: C_16  and  C_21
REMARK    8  A    between atoms: C_21  and  C_23
REMARK    9  A    between atoms: C_21  and  C_24
REMARK   10  A    between atoms: C_25  and  C_26
REMARK   11  A    between atoms: C_27  and  C_28
REMARK                            x       y       z     vdW  Elec       q    Type
REMARK                         _______ _______ _______ _____ _____    ______ ____
ROOT
ATOM     10  C   UNL     1      -5.085 -11.221  18.004  0.00  0.00    -0.027 C 
ATOM     11  C   UNL     1      -5.878 -12.238  17.117  0.00  0.00    +0.028 C 
ATOM     12  C   UNL     1      -6.651 -13.273  18.011  0.00  0.00    +0.012 C 
ATOM     13  C   UNL     1      -4.970 -12.853  16.014  0.00  0.00    +0.122 C 
ATOM     14  C   UNL     1      -4.429 -10.151  17.101  0.00  0.00    +0.007 C 
ATOM     15  C   UNL     1      -6.072 -10.498  18.949  0.00  0.00    +0.009 C 
ATOM     16  C   UNL     1      -4.235 -11.778  15.180  0.00  0.00    +0.029 C 
ATOM     17  C   UNL     1      -7.586 -12.533  19.009  0.00  0.00    +0.076 C 
ATOM     18  C   UNL     1      -3.509 -10.747  16.044  0.00  0.00    +0.007 C 
ATOM     19  C   UNL     1      -6.871 -11.455  19.823  0.00  0.00    +0.023 C 
ATOM     20  C   UNL     1      -3.979 -11.905  18.847  0.00  0.00    +0.011 C 
ATOM     22  C   UNL     1      -7.477 -14.288  17.203  0.00  0.00    +0.010 C 
ENDROOT
BRANCH  17   5
ATOM      3  O   UNL     1     -10.364 -12.575  19.731  0.00  0.00    -0.268 OA
ATOM      5  N   UNL     1      -8.226 -13.451  19.926  0.00  0.00    -0.307 N 
ATOM     25  C   UNL     1      -9.579 -13.390  20.211  0.00  0.00    +0.264 C 
ATOM     36  H   UNL     1      -7.646 -14.125  20.418  0.00  0.00    +0.149 HD
BRANCH  25  26
ATOM      7  N   UNL     1     -11.000 -13.954  22.076  0.00  0.00    -0.247 NA
ATOM      9  N   UNL     1     -10.059 -16.597  22.084  0.00  0.00    -0.259 NA
ATOM     26  C   UNL     1     -10.078 -14.387  21.192  0.00  0.00    +0.143 A 
ATOM     29  C   UNL     1      -9.616 -15.685  21.196  0.00  0.00    +0.143 A 
ATOM     32  C   UNL     1     -11.443 -14.867  22.963  0.00  0.00    +0.131 A 
ATOM     35  C   UNL     1     -10.981 -16.164  22.968  0.00  0.00    +0.130 A 
ENDBRANCH  25  26
ENDBRANCH  17   5
BRANCH  13   1
ATOM      1  O   UNL     1      -5.771 -13.603  15.100  0.00  0.00    -0.391 OA
ATOM     37  H   UNL     1      -5.795 -13.121  14.255  0.00  0.00    +0.210 HD
ENDBRANCH  13   1
BRANCH  16  21
ATOM     21  C   UNL     1      -3.248 -12.403  14.188  0.00  0.00    +0.077 C 
ATOM     23  C   UNL     1      -1.852 -11.828  14.403  0.00  0.00    +0.017 C 
BRANCH  21  24
ATOM      2  O   UNL     1      -4.773 -12.655  12.323  0.00  0.00    -0.276 OA
ATOM      6  N   UNL     1      -2.865 -11.368  12.030  0.00  0.00    -0.314 N 
ATOM     24  C   UNL     1      -3.730 -12.172  12.759  0.00  0.00    +0.216 C 
ATOM     38  H   UNL     1      -2.012 -11.028  12.465  0.00  0.00    +0.149 HD
BRANCH   6  27
ATOM     27  C   UNL     1      -3.106 -11.010  10.652  0.00  0.00    +0.119 C 
BRANCH  27  28
ATOM     28  C   UNL     1      -3.101  -9.500  10.466  0.00  0.00    +0.103 C 
BRANCH  28   8
ATOM      4  O   UNL     1      -6.747  -9.277   8.399  0.00  0.00    -0.377 OA
ATOM      8  N   UNL     1      -4.132  -9.103   9.508  0.00  0.00    -0.297 NA
ATOM     30  C   UNL     1      -4.541 -10.246   8.679  0.00  0.00    +0.112 C 
ATOM     31  C   UNL     1      -5.299  -8.541  10.201  0.00  0.00    +0.112 C 
ATOM     33  C   UNL     1      -5.624  -9.810   7.696  0.00  0.00    +0.175 C 
ATOM     34  C   UNL     1      -6.365  -8.146   9.183  0.00  0.00    +0.175 C 
ENDBRANCH  28   8
ENDBRANCH  27  28
ENDBRANCH   6  27
ENDBRANCH  21  24
ENDBRANCH  16  21
TORSDOF 8
ENDMDL
MODEL 8
REMARK VINA RESULT:      -6.4     27.664     33.070
REMARK  Name = 45361538
REMARK  11 active torsions:
REMARK  status: ('A' for Active; 'I' for Inactive)
REMARK    1  A    between atoms: O_1  and  C_13
REMARK    2  A    between atoms: N_5  and  C_17
REMARK    3  A    between atoms: N_6  and  C_27
REMARK    4  A    between atoms: N_8  and  C_28
REMARK    5  A    between atoms: C_10  and  C_20
REMARK    6  A    between atoms: C_12  and  C_22
REMARK    7  A    between atoms: C_16  and  C_21
REMARK    8  A    between atoms: C_21  and  C_23
REMARK    9  A    between atoms: C_21  and  C_24
REMARK   10  A    between atoms: C_25  and  C_26
REMARK   11  A    between atoms: C_27  and  C_28
REMARK                            x       y       z     vdW  Elec       q    Type
REMARK                         _______ _______ _______ _____ _____    ______ ____
ROOT
ATOM     10  C   UNL     1       9.471   6.105   6.008  0.00  0.00    -0.027 C 
ATOM     11  C   UNL     1      10.367   7.270   5.469  0.00  0.00    +0.028 C 
ATOM     12  C   UNL     1       9.841   8.660   5.978  0.00  0.00    +0.012 C 
ATOM     13  C   UNL     1      10.575   7.156   3.932  0.00  0.00    +0.122 C 
ATOM     14  C   UNL     1      10.079   4.748   5.584  0.00  0.00    +0.007 C 
ATOM     15  C   UNL     1       9.458   6.152   7.554  0.00  0.00    +0.009 C 
ATOM     16  C   UNL     1      11.085   5.761   3.502  0.00  0.00    +0.029 C 
ATOM     17  C   UNL     1       9.761   8.671   7.531  0.00  0.00    +0.076 C 
ATOM     18  C   UNL     1      10.249   4.618   4.076  0.00  0.00    +0.007 C 
ATOM     19  C   UNL     1       8.982   7.489   8.107  0.00  0.00    +0.023 C 
ATOM     20  C   UNL     1       8.015   6.184   5.483  0.00  0.00    +0.011 C 
ATOM     22  C   UNL     1      10.694   9.850   5.508  0.00  0.00    +0.010 C 
ENDROOT
BRANCH  17   5
ATOM      3  O   UNL     1      11.018  10.609   9.237  0.00  0.00    -0.268 OA
ATOM      5  N   UNL     1       9.172   9.895   8.030  0.00  0.00    -0.307 N 
ATOM     25  C   UNL     1       9.862  10.769   8.851  0.00  0.00    +0.264 C 
ATOM     36  H   UNL     1       8.197  10.085   7.812  0.00  0.00    +0.149 HD
BRANCH  25  26
ATOM      7  N   UNL     1       8.564  11.914  10.530  0.00  0.00    -0.247 NA
ATOM      9  N   UNL     1       8.288  14.166   8.882  0.00  0.00    -0.259 NA
ATOM     26  C   UNL     1       9.108  11.968   9.298  0.00  0.00    +0.143 A 
ATOM     29  C   UNL     1       8.972  13.074   8.488  0.00  0.00    +0.143 A 
ATOM     32  C   UNL     1       7.880  13.006  10.924  0.00  0.00    +0.131 A 
ATOM     35  C   UNL     1       7.744  14.112  10.114  0.00  0.00    +0.130 A 
ENDBRANCH  25  26
ENDBRANCH  17   5
BRANCH  13   1
ATOM      1  O   UNL     1      11.564   8.099   3.513  0.00  0.00    -0.391 OA
ATOM     37  H   UNL     1      11.109   8.922   3.264  0.00  0.00    +0.210 HD
ENDBRANCH  13   1
BRANCH  16  21
ATOM     21  C   UNL     1      11.160   5.627   1.977  0.00  0.00    +0.077 C 
ATOM     23  C   UNL     1      10.237   4.509   1.503  0.00  0.00    +0.017 C 
BRANCH  21  24
ATOM      2  O   UNL     1      13.515   6.163   1.791  0.00  0.00    -0.276 OA
ATOM      6  N   UNL     1      12.751   4.179   0.860  0.00  0.00    -0.314 N 
ATOM     24  C   UNL     1      12.602   5.376   1.546  0.00  0.00    +0.216 C 
ATOM     38  H   UNL     1      11.937   3.599   0.684  0.00  0.00    +0.149 HD
BRANCH   6  27
ATOM     27  C   UNL     1      14.024   3.725   0.350  0.00  0.00    +0.119 C 
BRANCH  27  28
ATOM     28  C   UNL     1      14.102   3.888  -1.160  0.00  0.00    +0.103 C 
BRANCH  28   8
ATOM      4  O   UNL     1      10.960   3.402  -3.899  0.00  0.00    -0.377 OA
ATOM      8  N   UNL     1      12.763   3.859  -1.745  0.00  0.00    -0.297 NA
ATOM     30  C   UNL     1      12.670   4.788  -2.880  0.00  0.00    +0.112 C 
ATOM     31  C   UNL     1      12.412   2.500  -2.177  0.00  0.00    +0.112 C 
ATOM     33  C   UNL     1      11.268   4.733  -3.480  0.00  0.00    +0.175 C 
ATOM     34  C   UNL     1      11.016   2.498  -2.796  0.00  0.00    +0.175 C 
ENDBRANCH  28   8
ENDBRANCH  27  28
ENDBRANCH   6  27
ENDBRANCH  21  24
ENDBRANCH  16  21
TORSDOF 8
ENDMDL
MODEL 9
REMARK VINA RESULT:      -6.4     27.327     31.384
REMARK  Name = 45361538
REMARK  11 active torsions:
REMARK  status: ('A' for Active; 'I' for Inactive)
REMARK    1  A    between atoms: O_1  and  C_13
REMARK    2  A    between atoms: N_5  and  C_17
REMARK    3  A    between atoms: N_6  and  C_27
REMARK    4  A    between atoms: N_8  and  C_28
REMARK    5  A    between atoms: C_10  and  C_20
REMARK    6  A    between atoms: C_12  and  C_22
REMARK    7  A    between atoms: C_16  and  C_21
REMARK    8  A    between atoms: C_21  and  C_23
REMARK    9  A    between atoms: C_21  and  C_24
REMARK   10  A    between atoms: C_25  and  C_26
REMARK   11  A    between atoms: C_27  and  C_28
REMARK                            x       y       z     vdW  Elec       q    Type
REMARK                         _______ _______ _______ _____ _____    ______ ____
ROOT
ATOM     10  C   UNL     1      13.830   8.019  20.338  0.00  0.00    -0.027 C 
ATOM     11  C   UNL     1      14.689   8.675  21.471  0.00  0.00    +0.028 C 
ATOM     12  C   UNL     1      14.154  10.111  21.815  0.00  0.00    +0.012 C 
ATOM     13  C   UNL     1      16.208   8.586  21.151  0.00  0.00    +0.122 C 
ATOM     14  C   UNL     1      14.310   6.567  20.103  0.00  0.00    +0.007 C 
ATOM     15  C   UNL     1      12.354   7.958  20.794  0.00  0.00    +0.009 C 
ATOM     16  C   UNL     1      16.662   7.146  20.814  0.00  0.00    +0.029 C 
ATOM     17  C   UNL     1      12.649  10.049  22.201  0.00  0.00    +0.076 C 
ATOM     18  C   UNL     1      15.789   6.480  19.751  0.00  0.00    +0.007 C 
ATOM     19  C   UNL     1      11.788   9.321  21.168  0.00  0.00    +0.023 C 
ATOM     20  C   UNL     1      13.920   8.795  19.000  0.00  0.00    +0.011 C 
ATOM     22  C   UNL     1      14.935  10.806  22.943  0.00  0.00    +0.010 C 
ENDROOT
BRANCH  17   5
ATOM      3  O   UNL     1      10.916  10.858  24.342  0.00  0.00    -0.268 OA
ATOM      5  N   UNL     1      12.093  11.369  22.411  0.00  0.00    -0.307 N 
ATOM     25  C   UNL     1      11.264  11.661  23.480  0.00  0.00    +0.264 C 
ATOM     36  H   UNL     1      12.277  12.087  21.716  0.00  0.00    +0.149 HD
BRANCH  25  26
ATOM      7  N   UNL     1      10.445  13.637  22.365  0.00  0.00    -0.247 NA
ATOM      9  N   UNL     1      10.157  14.983  24.809  0.00  0.00    -0.259 NA
ATOM     26  C   UNL     1      10.756  13.056  23.540  0.00  0.00    +0.143 A 
ATOM     29  C   UNL     1      10.615  13.717  24.741  0.00  0.00    +0.143 A 
ATOM     32  C   UNL     1       9.988  14.903  22.432  0.00  0.00    +0.131 A 
ATOM     35  C   UNL     1       9.847  15.564  23.632  0.00  0.00    +0.130 A 
ENDBRANCH  25  26
ENDBRANCH  17   5
BRANCH  13   1
ATOM      1  O   UNL     1      16.961   8.995  22.294  0.00  0.00    -0.391 OA
ATOM     37  H   UNL     1      16.335   9.268  22.986  0.00  0.00    +0.210 HD
ENDBRANCH  13   1
BRANCH  16  21
ATOM     21  C   UNL     1      18.130   7.101  20.375  0.00  0.00    +0.077 C 
ATOM     23  C   UNL     1      18.411   5.807  19.617  0.00  0.00    +0.017 C 
BRANCH  21  24
ATOM      2  O   UNL     1      19.012   6.456  22.537  0.00  0.00    -0.276 OA
ATOM      6  N   UNL     1      19.885   8.338  21.499  0.00  0.00    -0.314 N 
ATOM     24  C   UNL     1      19.041   7.241  21.591  0.00  0.00    +0.216 C 
ATOM     38  H   UNL     1      19.826   8.947  20.688  0.00  0.00    +0.149 HD
BRANCH   6  27
ATOM     27  C   UNL     1      20.836   8.680  22.530  0.00  0.00    +0.119 C 
BRANCH  27  28
ATOM     28  C   UNL     1      22.228   8.169  22.188  0.00  0.00    +0.103 C 
BRANCH  28   8
ATOM      4  O   UNL     1      22.132   4.861  24.769  0.00  0.00    -0.377 OA
ATOM      8  N   UNL     1      22.639   7.140  23.140  0.00  0.00    -0.297 NA
ATOM     30  C   UNL     1      21.864   7.241  24.385  0.00  0.00    +0.112 C 
ATOM     31  C   UNL     1      22.485   5.800  22.559  0.00  0.00    +0.112 C 
ATOM     33  C   UNL     1      22.303   6.151  25.358  0.00  0.00    +0.175 C 
ATOM     34  C   UNL     1      22.908   4.742  23.576  0.00  0.00    +0.175 C 
ENDBRANCH  28   8
ENDBRANCH  27  28
ENDBRANCH   6  27
ENDBRANCH  21  24
ENDBRANCH  16  21
TORSDOF 8
ENDMDL
MODEL 10
REMARK VINA RESULT:      -6.3     27.268     30.277
REMARK  Name = 45361538
REMARK  11 active torsions:
REMARK  status: ('A' for Active; 'I' for Inactive)
REMARK    1  A    between atoms: O_1  and  C_13
REMARK    2  A    between atoms: N_5  and  C_17
REMARK    3  A    between atoms: N_6  and  C_27
REMARK    4  A    between atoms: N_8  and  C_28
REMARK    5  A    between atoms: C_10  and  C_20
REMARK    6  A    between atoms: C_12  and  C_22
REMARK    7  A    between atoms: C_16  and  C_21
REMARK    8  A    between atoms: C_21  and  C_23
REMARK    9  A    between atoms: C_21  and  C_24
REMARK   10  A    between atoms: C_25  and  C_26
REMARK   11  A    between atoms: C_27  and  C_28
REMARK                            x       y       z     vdW  Elec       q    Type
REMARK                         _______ _______ _______ _____ _____    ______ ____
ROOT
ATOM     10  C   UNL     1      12.422   8.964  17.690  0.00  0.00    -0.027 C 
ATOM     11  C   UNL     1      12.950  10.334  18.233  0.00  0.00    +0.028 C 
ATOM     12  C   UNL     1      14.213  10.805  17.427  0.00  0.00    +0.012 C 
ATOM     13  C   UNL     1      13.117  10.301  19.780  0.00  0.00    +0.122 C 
ATOM     14  C   UNL     1      11.117   8.585  18.427  0.00  0.00    +0.007 C 
ATOM     15  C   UNL     1      12.089   9.111  16.187  0.00  0.00    +0.009 C 
ATOM     16  C   UNL     1      11.839   9.821  20.506  0.00  0.00    +0.029 C 
ATOM     17  C   UNL     1      13.888  10.878  15.908  0.00  0.00    +0.076 C 
ATOM     18  C   UNL     1      11.286   8.514  19.939  0.00  0.00    +0.007 C 
ATOM     19  C   UNL     1      13.271   9.593  15.357  0.00  0.00    +0.023 C 
ATOM     20  C   UNL     1      13.449   7.817  17.875  0.00  0.00    +0.011 C 
ATOM     22  C   UNL     1      14.769  12.162  17.890  0.00  0.00    +0.010 C 
ENDROOT
BRANCH  17   5
ATOM      3  O   UNL     1      13.932  12.090  13.306  0.00  0.00    -0.268 OA
ATOM      5  N   UNL     1      15.061  11.197  15.123  0.00  0.00    -0.307 N 
ATOM     25  C   UNL     1      14.978  11.783  13.872  0.00  0.00    +0.264 C 
ATOM     36  H   UNL     1      15.972  10.925  15.483  0.00  0.00    +0.149 HD
BRANCH  25  26
ATOM      7  N   UNL     1      16.243  12.055  11.837  0.00  0.00    -0.247 NA
ATOM      9  N   UNL     1      18.622  12.413  13.279  0.00  0.00    -0.259 NA
ATOM     26  C   UNL     1      16.272  12.022  13.184  0.00  0.00    +0.143 A 
ATOM     29  C   UNL     1      17.441  12.198  13.892  0.00  0.00    +0.143 A 
ATOM     32  C   UNL     1      17.423  12.269  11.223  0.00  0.00    +0.131 A 
ATOM     35  C   UNL     1      18.592  12.445  11.931  0.00  0.00    +0.130 A 
ENDBRANCH  25  26
ENDBRANCH  17   5
BRANCH  13   1
ATOM      1  O   UNL     1      13.389  11.619  20.258  0.00  0.00    -0.391 OA
ATOM     37  H   UNL     1      14.282  11.869  19.965  0.00  0.00    +0.210 HD
ENDBRANCH  13   1
BRANCH  16  21
ATOM     21  C   UNL     1      12.065   9.671  22.015  0.00  0.00    +0.077 C 
ATOM     23  C   UNL     1      11.541  10.901  22.749  0.00  0.00    +0.017 C 
BRANCH  21  24
ATOM      2  O   UNL     1      14.241  10.261  22.901  0.00  0.00    -0.276 OA
ATOM      6  N   UNL     1      14.003   8.230  21.804  0.00  0.00    -0.314 N 
ATOM     24  C   UNL     1      13.547   9.444  22.299  0.00  0.00    +0.216 C 
ATOM     38  H   UNL     1      13.362   7.624  21.300  0.00  0.00    +0.149 HD
BRANCH   6  27
ATOM     27  C   UNL     1      15.371   7.793  21.948  0.00  0.00    +0.119 C 
BRANCH  27  28
ATOM     28  C   UNL     1      16.311   8.631  21.093  0.00  0.00    +0.103 C 
BRANCH  28   8
ATOM      4  O   UNL     1      18.526   5.271  19.901  0.00  0.00    -0.377 OA
ATOM      8  N   UNL     1      17.244   7.770  20.371  0.00  0.00    -0.297 NA
ATOM     30  C   UNL     1      18.286   7.257  21.274  0.00  0.00    +0.112 C 
ATOM     31  C   UNL     1      16.536   6.651  19.734  0.00  0.00    +0.112 C 
ATOM     33  C   UNL     1      19.241   6.353  20.500  0.00  0.00    +0.175 C 
ATOM     34  C   UNL     1      17.533   5.759  18.998  0.00  0.00    +0.175 C 
ENDBRANCH  28   8
ENDBRANCH  27  28
ENDBRANCH   6  27
ENDBRANCH  21  24
ENDBRANCH  16  21
TORSDOF 8
ENDMDL
