MODEL 1
REMARK VINA RESULT:      -5.9      0.000      0.000
REMARK  Name = 75536785
REMARK  7 active torsions:
REMARK  status: ('A' for Active; 'I' for Inactive)
REMARK    1  A    between atoms: O_2  and  C_8
REMARK    2  A    between atoms: N_4  and  C_7
REMARK    3  A    between atoms: N_4  and  C_12
REMARK    4  A    between atoms: N_4  and  C_13
REMARK    5  A    between atoms: N_5  and  C_11
REMARK    6  A    between atoms: C_9  and  C_11
REMARK    7  A    between atoms: C_14  and  C_15
REMARK                            x       y       z     vdW  Elec       q    Type
REMARK                         _______ _______ _______ _____ _____    ______ ____
ROOT
ATOM     11  C   UNL     1      12.046   6.561  20.739  0.00  0.00    +0.138 C 
ENDROOT
BRANCH  11   9
ATOM      1  O   UNL     1      13.300   8.225  21.965  0.00  0.00    -0.371 OA
ATOM      7  C   UNL     1      11.568   9.678  22.694  0.00  0.00    +0.113 C 
ATOM      8  C   UNL     1      10.965   8.578  21.839  0.00  0.00    +0.164 C 
ATOM      9  C   UNL     1      12.052   7.514  21.920  0.00  0.00    +0.165 C 
ATOM     10  C   UNL     1      13.033   9.599  22.295  0.00  0.00    +0.181 C 
BRANCH   7   4
ATOM      4  N   UNL     1      10.987  10.989  22.455  0.00  0.00    -0.301 NA
ATOM     12  C   UNL     1      10.939  11.770  23.695  0.00  0.00    +0.105 C 
ATOM     13  C   UNL     1      11.745  11.716  21.432  0.00  0.00    +0.105 C 
ENDBRANCH   7   4
BRANCH   8   2
ATOM      2  O   UNL     1       9.730   8.110  22.344  0.00  0.00    -0.388 OA
ATOM     20  H   UNL     1       9.309   7.561  21.661  0.00  0.00    +0.210 HD
ENDBRANCH   8   2
ENDBRANCH  11   9
BRANCH  11   5
ATOM      3  O   UNL     1      14.121   7.207  18.862  0.00  0.00    -0.270 OA
ATOM      5  N   UNL     1      11.891   7.266  19.499  0.00  0.00    -0.309 N 
ATOM     14  C   UNL     1      12.957   7.537  18.647  0.00  0.00    +0.244 C 
ATOM     21  H   UNL     1      10.965   7.625  19.293  0.00  0.00    +0.149 HD
BRANCH  14  15
ATOM      6  N   UNL     1      12.026   9.739  15.097  0.00  0.00    -0.263 NA
ATOM     15  C   UNL     1      12.635   8.299  17.414  0.00  0.00    +0.040 A 
ATOM     16  C   UNL     1      13.653   8.870  16.660  0.00  0.00    +0.033 A 
ATOM     17  C   UNL     1      11.312   8.448  17.012  0.00  0.00    +0.033 A 
ATOM     18  C   UNL     1      13.300   9.574  15.519  0.00  0.00    +0.111 A 
ATOM     19  C   UNL     1      11.063   9.171  15.856  0.00  0.00    +0.111 A 
ENDBRANCH  14  15
ENDBRANCH  11   5
TORSDOF 5
ENDMDL
MODEL 2
REMARK VINA RESULT:      -5.8      2.101      5.715
REMARK  Name = 75536785
REMARK  7 active torsions:
REMARK  status: ('A' for Active; 'I' for Inactive)
REMARK    1  A    between atoms: O_2  and  C_8
REMARK    2  A    between atoms: N_4  and  C_7
REMARK    3  A    between atoms: N_4  and  C_12
REMARK    4  A    between atoms: N_4  and  C_13
REMARK    5  A    between atoms: N_5  and  C_11
REMARK    6  A    between atoms: C_9  and  C_11
REMARK    7  A    between atoms: C_14  and  C_15
REMARK                            x       y       z     vdW  Elec       q    Type
REMARK                         _______ _______ _______ _____ _____    ______ ____
ROOT
ATOM     11  C   UNL     1      10.553   8.087  22.387  0.00  0.00    +0.138 C 
ENDROOT
BRANCH  11   9
ATOM      1  O   UNL     1      10.544   8.503  20.006  0.00  0.00    -0.371 OA
ATOM      7  C   UNL     1      12.481   7.317  19.312  0.00  0.00    +0.113 C 
ATOM      8  C   UNL     1      12.352   7.216  20.821  0.00  0.00    +0.164 C 
ATOM      9  C   UNL     1      10.875   7.532  21.011  0.00  0.00    +0.165 C 
ATOM     10  C   UNL     1      11.584   8.507  19.012  0.00  0.00    +0.181 C 
BRANCH   7   4
ATOM      4  N   UNL     1      13.847   7.508  18.853  0.00  0.00    -0.301 NA
ATOM     12  C   UNL     1      13.876   7.813  17.418  0.00  0.00    +0.105 C 
ATOM     13  C   UNL     1      14.505   8.580  19.607  0.00  0.00    +0.105 C 
ENDBRANCH   7   4
BRANCH   8   2
ATOM      2  O   UNL     1      12.686   5.933  21.313  0.00  0.00    -0.388 OA
ATOM     20  H   UNL     1      13.061   6.036  22.204  0.00  0.00    +0.210 HD
ENDBRANCH   8   2
ENDBRANCH  11   9
BRANCH  11   5
ATOM      3  O   UNL     1      12.593  10.055  22.844  0.00  0.00    -0.270 OA
ATOM      5  N   UNL     1      10.393   9.512  22.350  0.00  0.00    -0.309 N 
ATOM     14  C   UNL     1      11.442  10.395  22.585  0.00  0.00    +0.244 C 
ATOM     21  H   UNL     1       9.451   9.860  22.207  0.00  0.00    +0.149 HD
BRANCH  14  15
ATOM      6  N   UNL     1      10.480  14.564  22.447  0.00  0.00    -0.263 NA
ATOM     15  C   UNL     1      11.106  11.841  22.536  0.00  0.00    +0.040 A 
ATOM     16  C   UNL     1      11.346  12.575  21.380  0.00  0.00    +0.033 A 
ATOM     17  C   UNL     1      10.554  12.467  23.649  0.00  0.00    +0.033 A 
ATOM     18  C   UNL     1      11.018  13.921  21.386  0.00  0.00    +0.111 A 
ATOM     19  C   UNL     1      10.262  13.818  23.553  0.00  0.00    +0.111 A 
ENDBRANCH  14  15
ENDBRANCH  11   5
TORSDOF 5
ENDMDL
MODEL 3
REMARK VINA RESULT:      -5.8      3.400      4.531
REMARK  Name = 75536785
REMARK  7 active torsions:
REMARK  status: ('A' for Active; 'I' for Inactive)
REMARK    1  A    between atoms: O_2  and  C_8
REMARK    2  A    between atoms: N_4  and  C_7
REMARK    3  A    between atoms: N_4  and  C_12
REMARK    4  A    between atoms: N_4  and  C_13
REMARK    5  A    between atoms: N_5  and  C_11
REMARK    6  A    between atoms: C_9  and  C_11
REMARK    7  A    between atoms: C_14  and  C_15
REMARK                            x       y       z     vdW  Elec       q    Type
REMARK                         _______ _______ _______ _____ _____    ______ ____
ROOT
ATOM     11  C   UNL     1      12.881   6.528  19.508  0.00  0.00    +0.138 C 
ENDROOT
BRANCH  11   9
ATOM      1  O   UNL     1      12.635   7.413  21.744  0.00  0.00    -0.371 OA
ATOM      7  C   UNL     1      11.283   9.325  21.349  0.00  0.00    +0.113 C 
ATOM      8  C   UNL     1      11.598   8.658  20.022  0.00  0.00    +0.164 C 
ATOM      9  C   UNL     1      11.970   7.254  20.480  0.00  0.00    +0.165 C 
ATOM     10  C   UNL     1      12.357   8.732  22.246  0.00  0.00    +0.181 C 
BRANCH   7   4
ATOM      4  N   UNL     1      11.327  10.777  21.298  0.00  0.00    -0.301 NA
ATOM     12  C   UNL     1      11.229  11.348  22.646  0.00  0.00    +0.105 C 
ATOM     13  C   UNL     1      12.556  11.238  20.646  0.00  0.00    +0.105 C 
ENDBRANCH   7   4
BRANCH   8   2
ATOM      2  O   UNL     1      10.492   8.650  19.140  0.00  0.00    -0.388 OA
ATOM     20  H   UNL     1      10.599   9.383  18.510  0.00  0.00    +0.210 HD
ENDBRANCH   8   2
ENDBRANCH  11   9
BRANCH  11   5
ATOM      3  O   UNL     1      15.010   8.243  18.631  0.00  0.00    -0.270 OA
ATOM      5  N   UNL     1      14.238   6.516  19.974  0.00  0.00    -0.309 N 
ATOM     14  C   UNL     1      15.209   7.388  19.491  0.00  0.00    +0.244 C 
ATOM     21  H   UNL     1      14.485   5.789  20.636  0.00  0.00    +0.149 HD
BRANCH  14  15
ATOM      6  N   UNL     1      19.142   6.937  21.118  0.00  0.00    -0.263 NA
ATOM     15  C   UNL     1      16.573   7.231  20.057  0.00  0.00    +0.040 A 
ATOM     16  C   UNL     1      17.024   8.100  21.044  0.00  0.00    +0.033 A 
ATOM     17  C   UNL     1      17.405   6.215  19.599  0.00  0.00    +0.033 A 
ATOM     18  C   UNL     1      18.305   7.912  21.537  0.00  0.00    +0.111 A 
ATOM     19  C   UNL     1      18.669   6.112  20.157  0.00  0.00    +0.111 A 
ENDBRANCH  14  15
ENDBRANCH  11   5
TORSDOF 5
ENDMDL
MODEL 4
REMARK VINA RESULT:      -5.7      3.805      5.993
REMARK  Name = 75536785
REMARK  7 active torsions:
REMARK  status: ('A' for Active; 'I' for Inactive)
REMARK    1  A    between atoms: O_2  and  C_8
REMARK    2  A    between atoms: N_4  and  C_7
REMARK    3  A    between atoms: N_4  and  C_12
REMARK    4  A    between atoms: N_4  and  C_13
REMARK    5  A    between atoms: N_5  and  C_11
REMARK    6  A    between atoms: C_9  and  C_11
REMARK    7  A    between atoms: C_14  and  C_15
REMARK                            x       y       z     vdW  Elec       q    Type
REMARK                         _______ _______ _______ _____ _____    ______ ____
ROOT
ATOM     11  C   UNL     1      14.865   7.022  18.968  0.00  0.00    +0.138 C 
ENDROOT
BRANCH  11   9
ATOM      1  O   UNL     1      17.040   5.968  18.963  0.00  0.00    -0.371 OA
ATOM      7  C   UNL     1      17.767   6.374  21.187  0.00  0.00    +0.113 C 
ATOM      8  C   UNL     1      16.413   7.028  20.981  0.00  0.00    +0.164 C 
ATOM      9  C   UNL     1      15.892   6.253  19.779  0.00  0.00    +0.165 C 
ATOM     10  C   UNL     1      18.225   6.173  19.752  0.00  0.00    +0.181 C 
BRANCH   7   4
ATOM      4  N   UNL     1      18.692   7.178  21.969  0.00  0.00    -0.301 NA
ATOM     12  C   UNL     1      20.055   6.645  21.872  0.00  0.00    +0.105 C 
ATOM     13  C   UNL     1      18.667   8.576  21.528  0.00  0.00    +0.105 C 
ENDBRANCH   7   4
BRANCH   8   2
ATOM      2  O   UNL     1      15.564   6.893  22.105  0.00  0.00    -0.388 OA
ATOM     20  H   UNL     1      15.539   7.745  22.572  0.00  0.00    +0.210 HD
ENDBRANCH   8   2
ENDBRANCH  11   9
BRANCH  11   5
ATOM      3  O   UNL     1      12.046   6.934  19.508  0.00  0.00    -0.270 OA
ATOM      5  N   UNL     1      14.121   7.929  19.795  0.00  0.00    -0.309 N 
ATOM     14  C   UNL     1      12.751   7.811  20.002  0.00  0.00    +0.244 C 
ATOM     21  H   UNL     1      14.632   8.716  20.179  0.00  0.00    +0.149 HD
BRANCH  14  15
ATOM      6  N   UNL     1      10.950  10.792  22.489  0.00  0.00    -0.263 NA
ATOM     15  C   UNL     1      12.125   8.846  20.864  0.00  0.00    +0.040 A 
ATOM     16  C   UNL     1      12.290  10.194  20.568  0.00  0.00    +0.033 A 
ATOM     17  C   UNL     1      11.373   8.469  21.971  0.00  0.00    +0.033 A 
ATOM     18  C   UNL     1      11.688  11.120  21.405  0.00  0.00    +0.111 A 
ATOM     19  C   UNL     1      10.812   9.472  22.745  0.00  0.00    +0.111 A 
ENDBRANCH  14  15
ENDBRANCH  11   5
TORSDOF 5
ENDMDL
MODEL 5
REMARK VINA RESULT:      -5.5      4.452      6.298
REMARK  Name = 75536785
REMARK  7 active torsions:
REMARK  status: ('A' for Active; 'I' for Inactive)
REMARK    1  A    between atoms: O_2  and  C_8
REMARK    2  A    between atoms: N_4  and  C_7
REMARK    3  A    between atoms: N_4  and  C_12
REMARK    4  A    between atoms: N_4  and  C_13
REMARK    5  A    between atoms: N_5  and  C_11
REMARK    6  A    between atoms: C_9  and  C_11
REMARK    7  A    between atoms: C_14  and  C_15
REMARK                            x       y       z     vdW  Elec       q    Type
REMARK                         _______ _______ _______ _____ _____    ______ ____
ROOT
ATOM     11  C   UNL     1      14.824   8.514  22.124  0.00  0.00    +0.138 C 
ENDROOT
BRANCH  11   9
ATOM      1  O   UNL     1      12.579   8.979  21.358  0.00  0.00    -0.371 OA
ATOM      7  C   UNL     1      12.391   7.492  19.516  0.00  0.00    +0.113 C 
ATOM      8  C   UNL     1      13.787   7.382  20.101  0.00  0.00    +0.164 C 
ATOM      9  C   UNL     1      13.564   7.943  21.499  0.00  0.00    +0.165 C 
ATOM     10  C   UNL     1      11.932   8.826  20.082  0.00  0.00    +0.181 C 
BRANCH   7   4
ATOM      4  N   UNL     1      12.362   7.455  18.063  0.00  0.00    -0.301 NA
ATOM     12  C   UNL     1      11.362   8.392  17.539  0.00  0.00    +0.105 C 
ATOM     13  C   UNL     1      13.682   7.767  17.507  0.00  0.00    +0.105 C 
ENDBRANCH   7   4
BRANCH   8   2
ATOM      2  O   UNL     1      14.260   6.049  20.137  0.00  0.00    -0.388 OA
ATOM     20  H   UNL     1      15.215   6.060  19.956  0.00  0.00    +0.210 HD
ENDBRANCH   8   2
ENDBRANCH  11   9
BRANCH  11   5
ATOM      3  O   UNL     1      17.300   9.325  20.917  0.00  0.00    -0.270 OA
ATOM      5  N   UNL     1      15.962   7.681  21.858  0.00  0.00    -0.309 N 
ATOM     14  C   UNL     1      17.126   8.161  21.267  0.00  0.00    +0.244 C 
ATOM     21  H   UNL     1      15.859   6.693  22.062  0.00  0.00    +0.149 HD
BRANCH  14  15
ATOM      6  N   UNL     1      20.230   5.289  20.604  0.00  0.00    -0.263 NA
ATOM     15  C   UNL     1      18.204   7.165  21.035  0.00  0.00    +0.040 A 
ATOM     16  C   UNL     1      18.055   6.191  20.054  0.00  0.00    +0.033 A 
ATOM     17  C   UNL     1      19.364   7.202  21.802  0.00  0.00    +0.033 A 
ATOM     18  C   UNL     1      19.089   5.284  19.880  0.00  0.00    +0.111 A 
ATOM     19  C   UNL     1      20.338   6.250  21.549  0.00  0.00    +0.111 A 
ENDBRANCH  14  15
ENDBRANCH  11   5
TORSDOF 5
ENDMDL
MODEL 6
REMARK VINA RESULT:      -5.5     25.788     29.030
REMARK  Name = 75536785
REMARK  7 active torsions:
REMARK  status: ('A' for Active; 'I' for Inactive)
REMARK    1  A    between atoms: O_2  and  C_8
REMARK    2  A    between atoms: N_4  and  C_7
REMARK    3  A    between atoms: N_4  and  C_12
REMARK    4  A    between atoms: N_4  and  C_13
REMARK    5  A    between atoms: N_5  and  C_11
REMARK    6  A    between atoms: C_9  and  C_11
REMARK    7  A    between atoms: C_14  and  C_15
REMARK                            x       y       z     vdW  Elec       q    Type
REMARK                         _______ _______ _______ _____ _____    ______ ____
ROOT
ATOM     11  C   UNL     1       0.520   2.746  -4.370  0.00  0.00    +0.138 C 
ENDROOT
BRANCH  11   9
ATOM      1  O   UNL     1       0.984   5.096  -4.696  0.00  0.00    -0.371 OA
ATOM      7  C   UNL     1       3.247   5.035  -5.415  0.00  0.00    +0.113 C 
ATOM      8  C   UNL     1       2.790   3.623  -5.099  0.00  0.00    +0.164 C 
ATOM      9  C   UNL     1       1.277   3.778  -5.186  0.00  0.00    +0.165 C 
ATOM     10  C   UNL     1       2.203   5.861  -4.682  0.00  0.00    +0.181 C 
BRANCH   7   4
ATOM      4  N   UNL     1       4.603   5.322  -4.978  0.00  0.00    -0.301 NA
ATOM     12  C   UNL     1       5.467   5.621  -6.124  0.00  0.00    +0.105 C 
ATOM     13  C   UNL     1       4.620   6.441  -4.031  0.00  0.00    +0.105 C 
ENDBRANCH   7   4
BRANCH   8   2
ATOM      2  O   UNL     1       3.278   2.671  -6.025  0.00  0.00    -0.388 OA
ATOM     20  H   UNL     1       2.568   2.033  -6.209  0.00  0.00    +0.210 HD
ENDBRANCH   8   2
ENDBRANCH  11   9
BRANCH  11   5
ATOM      3  O   UNL     1       1.008   0.123  -5.433  0.00  0.00    -0.270 OA
ATOM      5  N   UNL     1      -0.366   1.977  -5.195  0.00  0.00    -0.309 N 
ATOM     14  C   UNL     1      -0.047   0.708  -5.668  0.00  0.00    +0.244 C 
ATOM     21  H   UNL     1      -1.228   2.429  -5.482  0.00  0.00    +0.149 HD
BRANCH  14  15
ATOM      6  N   UNL     1      -2.969  -1.179  -8.162  0.00  0.00    -0.263 NA
ATOM     15  C   UNL     1      -1.062   0.053  -6.532  0.00  0.00    +0.040 A 
ATOM     16  C   UNL     1      -1.497  -1.236  -6.245  0.00  0.00    +0.033 A 
ATOM     17  C   UNL     1      -1.579   0.727  -7.633  0.00  0.00    +0.033 A 
ATOM     18  C   UNL     1      -2.444  -1.802  -7.084  0.00  0.00    +0.111 A 
ATOM     19  C   UNL     1      -2.522   0.072  -8.409  0.00  0.00    +0.111 A 
ENDBRANCH  14  15
ENDBRANCH  11   5
TORSDOF 5
ENDMDL
MODEL 7
REMARK VINA RESULT:      -5.4      2.281      6.225
REMARK  Name = 75536785
REMARK  7 active torsions:
REMARK  status: ('A' for Active; 'I' for Inactive)
REMARK    1  A    between atoms: O_2  and  C_8
REMARK    2  A    between atoms: N_4  and  C_7
REMARK    3  A    between atoms: N_4  and  C_12
REMARK    4  A    between atoms: N_4  and  C_13
REMARK    5  A    between atoms: N_5  and  C_11
REMARK    6  A    between atoms: C_9  and  C_11
REMARK    7  A    between atoms: C_14  and  C_15
REMARK                            x       y       z     vdW  Elec       q    Type
REMARK                         _______ _______ _______ _____ _____    ______ ____
ROOT
ATOM     11  C   UNL     1      10.454   8.410  22.223  0.00  0.00    +0.138 C 
ENDROOT
BRANCH  11   9
ATOM      1  O   UNL     1      10.609   8.408  19.811  0.00  0.00    -0.371 OA
ATOM      7  C   UNL     1      12.864   7.736  19.484  0.00  0.00    +0.113 C 
ATOM      8  C   UNL     1      12.593   7.852  20.973  0.00  0.00    +0.164 C 
ATOM      9  C   UNL     1      11.073   7.754  21.003  0.00  0.00    +0.165 C 
ATOM     10  C   UNL     1      11.718   8.549  18.905  0.00  0.00    +0.181 C 
BRANCH   7   4
ATOM      4  N   UNL     1      14.169   8.237  19.087  0.00  0.00    -0.301 NA
ATOM     12  C   UNL     1      15.096   7.128  18.831  0.00  0.00    +0.105 C 
ATOM     13  C   UNL     1      14.062   9.086  17.897  0.00  0.00    +0.105 C 
ENDBRANCH   7   4
BRANCH   8   2
ATOM      2  O   UNL     1      13.204   6.820  21.721  0.00  0.00    -0.388 OA
ATOM     20  H   UNL     1      13.606   6.189  21.099  0.00  0.00    +0.210 HD
ENDBRANCH   8   2
ENDBRANCH  11   9
BRANCH  11   5
ATOM      3  O   UNL     1      10.996  11.219  21.986  0.00  0.00    -0.270 OA
ATOM      5  N   UNL     1      11.428   9.160  22.963  0.00  0.00    -0.309 N 
ATOM     14  C   UNL     1      11.623  10.526  22.782  0.00  0.00    +0.244 C 
ATOM     21  H   UNL     1      12.027   8.635  23.590  0.00  0.00    +0.149 HD
BRANCH  14  15
ATOM      6  N   UNL     1      14.693  12.324  25.162  0.00  0.00    -0.263 NA
ATOM     15  C   UNL     1      12.689  11.151  23.607  0.00  0.00    +0.040 A 
ATOM     16  C   UNL     1      14.016  11.086  23.199  0.00  0.00    +0.033 A 
ATOM     17  C   UNL     1      12.362  11.802  24.792  0.00  0.00    +0.033 A 
ATOM     18  C   UNL     1      14.972  11.683  24.005  0.00  0.00    +0.111 A 
ATOM     19  C   UNL     1      13.392  12.367  25.526  0.00  0.00    +0.111 A 
ENDBRANCH  14  15
ENDBRANCH  11   5
TORSDOF 5
ENDMDL
MODEL 8
REMARK VINA RESULT:      -5.3      5.099      6.701
REMARK  Name = 75536785
REMARK  7 active torsions:
REMARK  status: ('A' for Active; 'I' for Inactive)
REMARK    1  A    between atoms: O_2  and  C_8
REMARK    2  A    between atoms: N_4  and  C_7
REMARK    3  A    between atoms: N_4  and  C_12
REMARK    4  A    between atoms: N_4  and  C_13
REMARK    5  A    between atoms: N_5  and  C_11
REMARK    6  A    between atoms: C_9  and  C_11
REMARK    7  A    between atoms: C_14  and  C_15
REMARK                            x       y       z     vdW  Elec       q    Type
REMARK                         _______ _______ _______ _____ _____    ______ ____
ROOT
ATOM     11  C   UNL     1      16.443   9.590  21.566  0.00  0.00    +0.138 C 
ENDROOT
BRANCH  11   9
ATOM      1  O   UNL     1      14.066  10.001  21.404  0.00  0.00    -0.371 OA
ATOM      7  C   UNL     1      13.188   7.816  21.714  0.00  0.00    +0.113 C 
ATOM      8  C   UNL     1      14.704   7.746  21.726  0.00  0.00    +0.164 C 
ATOM      9  C   UNL     1      15.062   9.190  22.050  0.00  0.00    +0.165 C 
ATOM     10  C   UNL     1      12.954   9.161  21.048  0.00  0.00    +0.181 C 
BRANCH   7   4
ATOM      4  N   UNL     1      12.558   6.716  21.003  0.00  0.00    -0.301 NA
ATOM     12  C   UNL     1      11.196   6.489  21.498  0.00  0.00    +0.105 C 
ATOM     13  C   UNL     1      12.532   6.974  19.560  0.00  0.00    +0.105 C 
ENDBRANCH   7   4
BRANCH   8   2
ATOM      2  O   UNL     1      15.202   6.847  22.698  0.00  0.00    -0.388 OA
ATOM     20  H   UNL     1      15.873   6.284  22.277  0.00  0.00    +0.210 HD
ENDBRANCH   8   2
ENDBRANCH  11   9
BRANCH  11   5
ATOM      3  O   UNL     1      19.111   9.004  22.453  0.00  0.00    -0.270 OA
ATOM      5  N   UNL     1      17.228   8.439  21.221  0.00  0.00    -0.309 N 
ATOM     14  C   UNL     1      18.519   8.236  21.699  0.00  0.00    +0.244 C 
ATOM     21  H   UNL     1      16.823   7.797  20.548  0.00  0.00    +0.149 HD
BRANCH  14  15
ATOM      6  N   UNL     1      20.502   4.693  20.346  0.00  0.00    -0.263 NA
ATOM     15  C   UNL     1      19.207   7.007  21.228  0.00  0.00    +0.040 A 
ATOM     16  C   UNL     1      18.597   6.180  20.292  0.00  0.00    +0.033 A 
ATOM     17  C   UNL     1      20.465   6.678  21.724  0.00  0.00    +0.033 A 
ATOM     18  C   UNL     1      19.281   5.044  19.887  0.00  0.00    +0.111 A 
ATOM     19  C   UNL     1      21.064   5.521  21.255  0.00  0.00    +0.111 A 
ENDBRANCH  14  15
ENDBRANCH  11   5
TORSDOF 5
ENDMDL
MODEL 9
REMARK VINA RESULT:      -5.2      3.958      5.266
REMARK  Name = 75536785
REMARK  7 active torsions:
REMARK  status: ('A' for Active; 'I' for Inactive)
REMARK    1  A    between atoms: O_2  and  C_8
REMARK    2  A    between atoms: N_4  and  C_7
REMARK    3  A    between atoms: N_4  and  C_12
REMARK    4  A    between atoms: N_4  and  C_13
REMARK    5  A    between atoms: N_5  and  C_11
REMARK    6  A    between atoms: C_9  and  C_11
REMARK    7  A    between atoms: C_14  and  C_15
REMARK                            x       y       z     vdW  Elec       q    Type
REMARK                         _______ _______ _______ _____ _____    ______ ____
ROOT
ATOM     11  C   UNL     1      13.684   6.650  20.815  0.00  0.00    +0.138 C 
ENDROOT
BRANCH  11   9
ATOM      1  O   UNL     1      11.527   7.725  20.621  0.00  0.00    -0.371 OA
ATOM      7  C   UNL     1      12.056   9.957  21.238  0.00  0.00    +0.113 C 
ATOM      8  C   UNL     1      13.303   9.101  21.360  0.00  0.00    +0.164 C 
ATOM      9  C   UNL     1      12.941   7.925  20.462  0.00  0.00    +0.165 C 
ATOM     10  C   UNL     1      10.964   8.899  21.232  0.00  0.00    +0.181 C 
BRANCH   7   4
ATOM      4  N   UNL     1      11.902  10.921  22.314  0.00  0.00    -0.301 NA
ATOM     12  C   UNL     1      11.711  12.273  21.778  0.00  0.00    +0.105 C 
ATOM     13  C   UNL     1      10.775  10.562  23.180  0.00  0.00    +0.105 C 
ENDBRANCH   7   4
BRANCH   8   2
ATOM      2  O   UNL     1      14.468   9.767  20.914  0.00  0.00    -0.388 OA
ATOM     20  H   UNL     1      14.682   9.443  20.022  0.00  0.00    +0.210 HD
ENDBRANCH   8   2
ENDBRANCH  11   9
BRANCH  11   5
ATOM      3  O   UNL     1      15.899   6.142  19.060  0.00  0.00    -0.270 OA
ATOM      5  N   UNL     1      15.068   6.910  21.085  0.00  0.00    -0.309 N 
ATOM     14  C   UNL     1      16.080   6.631  20.172  0.00  0.00    +0.244 C 
ATOM     21  H   UNL     1      15.294   7.252  22.013  0.00  0.00    +0.149 HD
BRANCH  14  15
ATOM      6  N   UNL     1      20.073   7.509  21.440  0.00  0.00    -0.263 NA
ATOM     15  C   UNL     1      17.465   6.935  20.614  0.00  0.00    +0.040 A 
ATOM     16  C   UNL     1      17.710   8.017  21.451  0.00  0.00    +0.033 A 
ATOM     17  C   UNL     1      18.524   6.139  20.189  0.00  0.00    +0.033 A 
ATOM     18  C   UNL     1      19.020   8.260  21.832  0.00  0.00    +0.111 A 
ATOM     19  C   UNL     1      19.797   6.466  20.626  0.00  0.00    +0.111 A 
ENDBRANCH  14  15
ENDBRANCH  11   5
TORSDOF 5
ENDMDL
MODEL 10
REMARK VINA RESULT:      -5.2     27.318     29.597
REMARK  Name = 75536785
REMARK  7 active torsions:
REMARK  status: ('A' for Active; 'I' for Inactive)
REMARK    1  A    between atoms: O_2  and  C_8
REMARK    2  A    between atoms: N_4  and  C_7
REMARK    3  A    between atoms: N_4  and  C_12
REMARK    4  A    between atoms: N_4  and  C_13
REMARK    5  A    between atoms: N_5  and  C_11
REMARK    6  A    between atoms: C_9  and  C_11
REMARK    7  A    between atoms: C_14  and  C_15
REMARK                            x       y       z     vdW  Elec       q    Type
REMARK                         _______ _______ _______ _____ _____    ______ ____
ROOT
ATOM     11  C   UNL     1     -14.900   4.133  33.601  0.00  0.00    +0.138 C 
ENDROOT
BRANCH  11   9
ATOM      1  O   UNL     1     -15.113   1.745  33.292  0.00  0.00    -0.371 OA
ATOM      7  C   UNL     1     -13.713   1.386  31.408  0.00  0.00    +0.113 C 
ATOM      8  C   UNL     1     -13.752   2.870  31.720  0.00  0.00    +0.164 C 
ATOM      9  C   UNL     1     -14.206   2.852  33.174  0.00  0.00    +0.165 C 
ATOM     10  C   UNL     1     -14.945   0.891  32.147  0.00  0.00    +0.181 C 
BRANCH   7   4
ATOM      4  N   UNL     1     -13.750   1.087  29.986  0.00  0.00    -0.301 NA
ATOM     12  C   UNL     1     -13.619  -0.355  29.753  0.00  0.00    +0.105 C 
ATOM     13  C   UNL     1     -14.990   1.582  29.380  0.00  0.00    +0.105 C 
ENDBRANCH   7   4
BRANCH   8   2
ATOM      2  O   UNL     1     -12.491   3.493  31.568  0.00  0.00    -0.388 OA
ATOM     20  H   UNL     1     -12.242   3.889  32.421  0.00  0.00    +0.210 HD
ENDBRANCH   8   2
ENDBRANCH  11   9
BRANCH  11   5
ATOM      3  O   UNL     1     -15.548   6.925  33.427  0.00  0.00    -0.270 OA
ATOM      5  N   UNL     1     -13.979   5.232  33.656  0.00  0.00    -0.309 N 
ATOM     14  C   UNL     1     -14.383   6.560  33.564  0.00  0.00    +0.244 C 
ATOM     21  H   UNL     1     -12.993   4.997  33.701  0.00  0.00    +0.149 HD
BRANCH  14  15
ATOM      6  N   UNL     1     -11.277   9.502  33.701  0.00  0.00    -0.263 NA
ATOM     15  C   UNL     1     -13.304   7.579  33.612  0.00  0.00    +0.040 A 
ATOM     16  C   UNL     1     -12.883   8.093  34.833  0.00  0.00    +0.033 A 
ATOM     17  C   UNL     1     -12.713   8.026  32.434  0.00  0.00    +0.033 A 
ATOM     18  C   UNL     1     -11.875   9.044  34.823  0.00  0.00    +0.111 A 
ATOM     19  C   UNL     1     -11.713   8.980  32.533  0.00  0.00    +0.111 A 
ENDBRANCH  14  15
ENDBRANCH  11   5
TORSDOF 5
ENDMDL
