MODEL 1
REMARK VINA RESULT:      -6.8      0.000      0.000
REMARK  Name = 38027853
REMARK  13 active torsions:
REMARK  status: ('A' for Active; 'I' for Inactive)
REMARK    1  A    between atoms: O_4  and  C_31
REMARK    2  A    between atoms: O_4  and  C_32
REMARK    3  A    between atoms: N_5  and  C_14
REMARK    4  A    between atoms: N_6  and  C_21
REMARK    5  A    between atoms: C_7  and  C_11
REMARK    6  A    between atoms: C_8  and  C_14
REMARK    7  A    between atoms: C_10  and  C_15
REMARK    8  A    between atoms: C_11  and  C_16
REMARK    9  A    between atoms: C_11  and  C_17
REMARK   10  A    between atoms: C_12  and  C_18
REMARK   11  A    between atoms: C_15  and  C_19
REMARK   12  A    between atoms: C_20  and  C_22
REMARK   13  A    between atoms: C_21  and  C_23
REMARK                            x       y       z     vdW  Elec       q    Type
REMARK                         _______ _______ _______ _____ _____    ______ ____
ROOT
ATOM      7  C   UNL     1      -5.976 -10.334  15.358  0.00  0.00    +0.000 C 
ATOM      8  C   UNL     1      -6.786 -10.432  16.675  0.00  0.00    +0.032 C 
ATOM      9  C   UNL     1      -5.009 -11.521  15.235  0.00  0.00    +0.012 C 
ATOM     10  C   UNL     1      -4.018 -11.591  16.412  0.00  0.00    +0.023 C 
ATOM     12  C   UNL     1      -4.717 -11.424  17.746  0.00  0.00    -0.073 C 
ATOM     13  C   UNL     1      -5.959 -10.917  17.843  0.00  0.00    -0.022 C 
ATOM     18  C   UNL     1      -3.973 -11.896  18.964  0.00  0.00    +0.039 C 
ENDROOT
BRANCH   7  11
ATOM     11  C   UNL     1      -6.891 -10.281  14.130  0.00  0.00    -0.013 C 
ATOM     16  C   UNL     1      -6.124  -9.763  12.918  0.00  0.00    +0.007 C 
ATOM     17  C   UNL     1      -7.483 -11.658  13.848  0.00  0.00    +0.007 C 
ENDBRANCH   7  11
BRANCH   8  14
ATOM     14  C   UNL     1      -7.431  -9.087  17.029  0.00  0.00    +0.112 C 
BRANCH  14   5
ATOM      2  O   UNL     1     -10.115  -9.625  16.166  0.00  0.00    -0.267 OA
ATOM      5  N   UNL     1      -8.574  -9.276  17.866  0.00  0.00    -0.308 N 
ATOM     20  C   UNL     1      -9.848  -9.535  17.361  0.00  0.00    +0.279 C 
ATOM     33  H   UNL     1      -8.446  -9.260  18.873  0.00  0.00    +0.149 HD
BRANCH  20  22
ATOM      3  O   UNL     1     -10.600 -10.102  19.609  0.00  0.00    -0.458 OA
ATOM     22  C   UNL     1     -10.936  -9.682  18.362  0.00  0.00    +0.189 A 
ATOM     24  C   UNL     1     -12.292  -9.465  18.274  0.00  0.00    +0.054 A 
ATOM     27  C   UNL     1     -12.822  -9.770  19.549  0.00  0.00    +0.042 A 
ATOM     28  C   UNL     1     -11.753 -10.153  20.326  0.00  0.00    +0.196 A 
ENDBRANCH  20  22
ENDBRANCH  14   5
ENDBRANCH   8  14
BRANCH  10  15
ATOM     15  C   UNL     1      -2.894 -10.563  16.250  0.00  0.00    +0.103 C 
BRANCH  15  19
ATOM      1  O   UNL     1      -1.096 -11.727  15.126  0.00  0.00    -0.276 OA
ATOM      6  N   UNL     1      -2.310 -10.115  13.975  0.00  0.00    -0.311 N 
ATOM     19  C   UNL     1      -1.991 -10.887  15.082  0.00  0.00    +0.214 C 
ATOM     34  H   UNL     1      -3.072  -9.446  14.034  0.00  0.00    +0.149 HD
BRANCH   6  21
ATOM     21  C   UNL     1      -1.609 -10.211  12.716  0.00  0.00    +0.139 C 
BRANCH  21  23
ATOM     23  C   UNL     1      -2.550 -10.411  11.563  0.00  0.00    -0.030 A 
ATOM     25  C   UNL     1      -3.175 -11.645  11.378  0.00  0.00    +0.009 A 
ATOM     26  C   UNL     1      -2.799  -9.363  10.676  0.00  0.00    +0.009 A 
ATOM     29  C   UNL     1      -4.049 -11.830  10.307  0.00  0.00    +0.046 A 
ATOM     30  C   UNL     1      -3.673  -9.548   9.605  0.00  0.00    +0.046 A 
ATOM     31  C   UNL     1      -4.298 -10.782   9.421  0.00  0.00    +0.120 A 
BRANCH  31   4
ATOM      4  O   UNL     1      -5.151 -10.963   8.376  0.00  0.00    -0.495 OA
ATOM     32  C   UNL     1      -5.527  -9.802   7.637  0.00  0.00    +0.277 C 
ENDBRANCH  31   4
ENDBRANCH  21  23
ENDBRANCH   6  21
ENDBRANCH  15  19
ENDBRANCH  10  15
TORSDOF 9
ENDMDL
MODEL 2
REMARK VINA RESULT:      -6.7      2.487      8.691
REMARK  Name = 38027853
REMARK  13 active torsions:
REMARK  status: ('A' for Active; 'I' for Inactive)
REMARK    1  A    between atoms: O_4  and  C_31
REMARK    2  A    between atoms: O_4  and  C_32
REMARK    3  A    between atoms: N_5  and  C_14
REMARK    4  A    between atoms: N_6  and  C_21
REMARK    5  A    between atoms: C_7  and  C_11
REMARK    6  A    between atoms: C_8  and  C_14
REMARK    7  A    between atoms: C_10  and  C_15
REMARK    8  A    between atoms: C_11  and  C_16
REMARK    9  A    between atoms: C_11  and  C_17
REMARK   10  A    between atoms: C_12  and  C_18
REMARK   11  A    between atoms: C_15  and  C_19
REMARK   12  A    between atoms: C_20  and  C_22
REMARK   13  A    between atoms: C_21  and  C_23
REMARK                            x       y       z     vdW  Elec       q    Type
REMARK                         _______ _______ _______ _____ _____    ______ ____
ROOT
ATOM      7  C   UNL     1      -4.955 -10.554  10.949  0.00  0.00    +0.000 C 
ATOM      8  C   UNL     1      -4.472  -9.606   9.822  0.00  0.00    +0.032 C 
ATOM      9  C   UNL     1      -4.352 -10.134  12.297  0.00  0.00    +0.012 C 
ATOM     10  C   UNL     1      -2.811 -10.148  12.277  0.00  0.00    +0.023 C 
ATOM     12  C   UNL     1      -2.259  -9.459  11.045  0.00  0.00    -0.073 C 
ATOM     13  C   UNL     1      -3.020  -9.212   9.963  0.00  0.00    -0.022 C 
ATOM     18  C   UNL     1      -0.824  -9.017  11.102  0.00  0.00    +0.039 C 
ENDROOT
BRANCH   7  11
ATOM     11  C   UNL     1      -6.483 -10.583  11.051  0.00  0.00    -0.013 C 
ATOM     16  C   UNL     1      -6.921 -11.454  12.224  0.00  0.00    +0.007 C 
ATOM     17  C   UNL     1      -7.034  -9.168  11.192  0.00  0.00    +0.007 C 
ENDBRANCH   7  11
BRANCH   8  14
ATOM     14  C   UNL     1      -4.701 -10.228   8.440  0.00  0.00    +0.112 C 
BRANCH  14   5
ATOM      2  O   UNL     1      -5.536 -10.701   5.734  0.00  0.00    -0.267 OA
ATOM      5  N   UNL     1      -5.698  -9.504   7.716  0.00  0.00    -0.308 N 
ATOM     20  C   UNL     1      -6.044  -9.801   6.398  0.00  0.00    +0.279 C 
ATOM     33  H   UNL     1      -6.205  -8.766   8.195  0.00  0.00    +0.149 HD
BRANCH  20  22
ATOM      3  O   UNL     1      -7.715  -8.035   6.572  0.00  0.00    -0.458 OA
ATOM     22  C   UNL     1      -7.082  -8.939   5.778  0.00  0.00    +0.189 A 
ATOM     24  C   UNL     1      -7.557  -8.865   4.489  0.00  0.00    +0.054 A 
ATOM     27  C   UNL     1      -8.544  -7.852   4.491  0.00  0.00    +0.042 A 
ATOM     28  C   UNL     1      -8.603  -7.378   5.782  0.00  0.00    +0.196 A 
ENDBRANCH  20  22
ENDBRANCH  14   5
ENDBRANCH   8  14
BRANCH  10  15
ATOM     15  C   UNL     1      -2.270 -11.576  12.395  0.00  0.00    +0.103 C 
BRANCH  15  19
ATOM      1  O   UNL     1      -2.236 -13.255  14.135  0.00  0.00    -0.276 OA
ATOM      6  N   UNL     1      -2.311 -11.007  14.717  0.00  0.00    -0.311 N 
ATOM     19  C   UNL     1      -2.269 -12.068  13.825  0.00  0.00    +0.214 C 
ATOM     34  H   UNL     1      -2.333 -10.055  14.362  0.00  0.00    +0.149 HD
BRANCH   6  21
ATOM     21  C   UNL     1      -2.322 -11.181  16.150  0.00  0.00    +0.139 C 
BRANCH  21  23
ATOM     23  C   UNL     1      -3.677 -10.912  16.739  0.00  0.00    -0.030 A 
ATOM     25  C   UNL     1      -4.614 -10.168  16.021  0.00  0.00    +0.009 A 
ATOM     26  C   UNL     1      -3.998 -11.405  18.004  0.00  0.00    +0.009 A 
ATOM     29  C   UNL     1      -5.873  -9.919  16.568  0.00  0.00    +0.046 A 
ATOM     30  C   UNL     1      -5.257 -11.155  18.551  0.00  0.00    +0.046 A 
ATOM     31  C   UNL     1      -6.194 -10.413  17.833  0.00  0.00    +0.120 A 
BRANCH  31   4
ATOM      4  O   UNL     1      -7.422 -10.169  18.366  0.00  0.00    -0.495 OA
ATOM     32  C   UNL     1      -8.367  -9.495  17.537  0.00  0.00    +0.277 C 
ENDBRANCH  31   4
ENDBRANCH  21  23
ENDBRANCH   6  21
ENDBRANCH  15  19
ENDBRANCH  10  15
TORSDOF 9
ENDMDL
MODEL 3
REMARK VINA RESULT:      -6.7     27.111     29.748
REMARK  Name = 38027853
REMARK  13 active torsions:
REMARK  status: ('A' for Active; 'I' for Inactive)
REMARK    1  A    between atoms: O_4  and  C_31
REMARK    2  A    between atoms: O_4  and  C_32
REMARK    3  A    between atoms: N_5  and  C_14
REMARK    4  A    between atoms: N_6  and  C_21
REMARK    5  A    between atoms: C_7  and  C_11
REMARK    6  A    between atoms: C_8  and  C_14
REMARK    7  A    between atoms: C_10  and  C_15
REMARK    8  A    between atoms: C_11  and  C_16
REMARK    9  A    between atoms: C_11  and  C_17
REMARK   10  A    between atoms: C_12  and  C_18
REMARK   11  A    between atoms: C_15  and  C_19
REMARK   12  A    between atoms: C_20  and  C_22
REMARK   13  A    between atoms: C_21  and  C_23
REMARK                            x       y       z     vdW  Elec       q    Type
REMARK                         _______ _______ _______ _____ _____    ______ ____
ROOT
ATOM      7  C   UNL     1      13.568   9.394  19.211  0.00  0.00    +0.000 C 
ATOM      8  C   UNL     1      12.876   8.016  19.364  0.00  0.00    +0.032 C 
ATOM      9  C   UNL     1      15.071   9.213  18.952  0.00  0.00    +0.012 C 
ATOM     10  C   UNL     1      15.771   8.441  20.087  0.00  0.00    +0.023 C 
ATOM     12  C   UNL     1      14.998   7.198  20.481  0.00  0.00    -0.073 C 
ATOM     13  C   UNL     1      13.710   7.019  20.137  0.00  0.00    -0.022 C 
ATOM     18  C   UNL     1      15.753   6.143  21.239  0.00  0.00    +0.039 C 
ENDROOT
BRANCH   7  11
ATOM     11  C   UNL     1      12.943  10.221  18.083  0.00  0.00    -0.013 C 
ATOM     16  C   UNL     1      13.697  11.535  17.907  0.00  0.00    +0.007 C 
ATOM     17  C   UNL     1      12.931   9.425  16.783  0.00  0.00    +0.007 C 
ENDBRANCH   7  11
BRANCH   8  14
ATOM     14  C   UNL     1      11.503   8.157  20.030  0.00  0.00    +0.112 C 
BRANCH  14   5
ATOM      2  O   UNL     1      10.691   8.283  22.781  0.00  0.00    -0.267 OA
ATOM      5  N   UNL     1      11.455   9.325  20.853  0.00  0.00    -0.308 N 
ATOM     20  C   UNL     1      11.047   9.298  22.186  0.00  0.00    +0.279 C 
ATOM     33  H   UNL     1      11.770  10.207  20.461  0.00  0.00    +0.149 HD
BRANCH  20  22
ATOM      3  O   UNL     1      10.973  10.583  24.255  0.00  0.00    -0.458 OA
ATOM     22  C   UNL     1      11.030  10.601  22.898  0.00  0.00    +0.189 A 
ATOM     24  C   UNL     1      11.063  11.896  22.432  0.00  0.00    +0.054 A 
ATOM     27  C   UNL     1      11.025  12.726  23.578  0.00  0.00    +0.042 A 
ATOM     28  C   UNL     1      10.970  11.879  24.661  0.00  0.00    +0.196 A 
ENDBRANCH  20  22
ENDBRANCH  14   5
ENDBRANCH   8  14
BRANCH  10  15
ATOM     15  C   UNL     1      16.013   9.343  21.301  0.00  0.00    +0.103 C 
BRANCH  15  19
ATOM      1  O   UNL     1      18.041  10.661  21.289  0.00  0.00    -0.276 OA
ATOM      6  N   UNL     1      18.105   8.471  22.062  0.00  0.00    -0.311 N 
ATOM     19  C   UNL     1      17.485   9.595  21.537  0.00  0.00    +0.214 C 
ATOM     34  H   UNL     1      17.558   7.633  22.236  0.00  0.00    +0.149 HD
BRANCH   6  21
ATOM     21  C   UNL     1      19.512   8.424  22.386  0.00  0.00    +0.139 C 
BRANCH  21  23
ATOM     23  C   UNL     1      20.128   7.104  22.023  0.00  0.00    -0.030 A 
ATOM     25  C   UNL     1      19.692   6.418  20.889  0.00  0.00    +0.009 A 
ATOM     26  C   UNL     1      21.137   6.562  22.820  0.00  0.00    +0.009 A 
ATOM     29  C   UNL     1      20.265   5.192  20.552  0.00  0.00    +0.046 A 
ATOM     30  C   UNL     1      21.710   5.336  22.483  0.00  0.00    +0.046 A 
ATOM     31  C   UNL     1      21.274   4.651  21.349  0.00  0.00    +0.120 A 
BRANCH  31   4
ATOM      4  O   UNL     1      21.833   3.455  21.020  0.00  0.00    -0.495 OA
ATOM     32  C   UNL     1      22.884   2.977  21.858  0.00  0.00    +0.277 C 
ENDBRANCH  31   4
ENDBRANCH  21  23
ENDBRANCH   6  21
ENDBRANCH  15  19
ENDBRANCH  10  15
TORSDOF 9
ENDMDL
MODEL 4
REMARK VINA RESULT:      -6.5     23.318     27.197
REMARK  Name = 38027853
REMARK  13 active torsions:
REMARK  status: ('A' for Active; 'I' for Inactive)
REMARK    1  A    between atoms: O_4  and  C_31
REMARK    2  A    between atoms: O_4  and  C_32
REMARK    3  A    between atoms: N_5  and  C_14
REMARK    4  A    between atoms: N_6  and  C_21
REMARK    5  A    between atoms: C_7  and  C_11
REMARK    6  A    between atoms: C_8  and  C_14
REMARK    7  A    between atoms: C_10  and  C_15
REMARK    8  A    between atoms: C_11  and  C_16
REMARK    9  A    between atoms: C_11  and  C_17
REMARK   10  A    between atoms: C_12  and  C_18
REMARK   11  A    between atoms: C_15  and  C_19
REMARK   12  A    between atoms: C_20  and  C_22
REMARK   13  A    between atoms: C_21  and  C_23
REMARK                            x       y       z     vdW  Elec       q    Type
REMARK                         _______ _______ _______ _____ _____    ______ ____
ROOT
ATOM      7  C   UNL     1      12.343   8.027   5.332  0.00  0.00    +0.000 C 
ATOM      8  C   UNL     1      11.237   9.113   5.334  0.00  0.00    +0.032 C 
ATOM      9  C   UNL     1      12.661   7.589   3.894  0.00  0.00    +0.012 C 
ATOM     10  C   UNL     1      11.424   7.025   3.169  0.00  0.00    +0.023 C 
ATOM     12  C   UNL     1      10.211   7.915   3.352  0.00  0.00    -0.073 C 
ATOM     13  C   UNL     1      10.151   8.852   4.316  0.00  0.00    -0.022 C 
ATOM     18  C   UNL     1       9.085   7.736   2.372  0.00  0.00    +0.039 C 
ENDROOT
BRANCH   7  11
ATOM     11  C   UNL     1      13.621   8.517   6.020  0.00  0.00    -0.013 C 
ATOM     16  C   UNL     1      14.671   7.411   6.039  0.00  0.00    +0.007 C 
ATOM     17  C   UNL     1      14.158   9.761   5.321  0.00  0.00    +0.007 C 
ENDBRANCH   7  11
BRANCH   8  14
ATOM     14  C   UNL     1      10.609   9.260   6.724  0.00  0.00    +0.112 C 
BRANCH  14   5
ATOM      2  O   UNL     1       8.184   7.809   7.233  0.00  0.00    -0.267 OA
ATOM      5  N   UNL     1      10.494   7.988   7.367  0.00  0.00    -0.308 N 
ATOM     20  C   UNL     1       9.271   7.351   7.574  0.00  0.00    +0.279 C 
ATOM     33  H   UNL     1      11.344   7.509   7.649  0.00  0.00    +0.149 HD
BRANCH  20  22
ATOM      3  O   UNL     1       9.752   4.961   7.581  0.00  0.00    -0.458 OA
ATOM     22  C   UNL     1       9.320   6.044   8.279  0.00  0.00    +0.189 A 
ATOM     24  C   UNL     1       8.998   5.691   9.570  0.00  0.00    +0.054 A 
ATOM     27  C   UNL     1       9.250   4.302   9.671  0.00  0.00    +0.042 A 
ATOM     28  C   UNL     1       9.706   3.905   8.435  0.00  0.00    +0.196 A 
ENDBRANCH  20  22
ENDBRANCH  14   5
ENDBRANCH   8  14
BRANCH  10  15
ATOM     15  C   UNL     1      11.125   5.592   3.619  0.00  0.00    +0.103 C 
BRANCH  15  19
ATOM      1  O   UNL     1      10.295   4.389   1.691  0.00  0.00    -0.276 OA
ATOM      6  N   UNL     1      12.459   3.994   2.441  0.00  0.00    -0.311 N 
ATOM     19  C   UNL     1      11.215   4.607   2.475  0.00  0.00    +0.214 C 
ATOM     34  H   UNL     1      13.159   4.243   3.134  0.00  0.00    +0.149 HD
BRANCH   6  21
ATOM     21  C   UNL     1      12.825   3.006   1.454  0.00  0.00    +0.139 C 
BRANCH  21  23
ATOM     23  C   UNL     1      13.829   3.537   0.472  0.00  0.00    -0.030 A 
ATOM     25  C   UNL     1      13.458   3.757  -0.855  0.00  0.00    +0.009 A 
ATOM     26  C   UNL     1      15.133   3.811   0.887  0.00  0.00    +0.009 A 
ATOM     29  C   UNL     1      14.391   4.252  -1.766  0.00  0.00    +0.046 A 
ATOM     30  C   UNL     1      16.066   4.305  -0.025  0.00  0.00    +0.046 A 
ATOM     31  C   UNL     1      15.695   4.526  -1.352  0.00  0.00    +0.120 A 
BRANCH  31   4
ATOM      4  O   UNL     1      16.604   5.008  -2.241  0.00  0.00    -0.495 OA
ATOM     32  C   UNL     1      17.931   4.488  -2.160  0.00  0.00    +0.277 C 
ENDBRANCH  31   4
ENDBRANCH  21  23
ENDBRANCH   6  21
ENDBRANCH  15  19
ENDBRANCH  10  15
TORSDOF 9
ENDMDL
MODEL 5
REMARK VINA RESULT:      -6.4     27.396     30.578
REMARK  Name = 38027853
REMARK  13 active torsions:
REMARK  status: ('A' for Active; 'I' for Inactive)
REMARK    1  A    between atoms: O_4  and  C_31
REMARK    2  A    between atoms: O_4  and  C_32
REMARK    3  A    between atoms: N_5  and  C_14
REMARK    4  A    between atoms: N_6  and  C_21
REMARK    5  A    between atoms: C_7  and  C_11
REMARK    6  A    between atoms: C_8  and  C_14
REMARK    7  A    between atoms: C_10  and  C_15
REMARK    8  A    between atoms: C_11  and  C_16
REMARK    9  A    between atoms: C_11  and  C_17
REMARK   10  A    between atoms: C_12  and  C_18
REMARK   11  A    between atoms: C_15  and  C_19
REMARK   12  A    between atoms: C_20  and  C_22
REMARK   13  A    between atoms: C_21  and  C_23
REMARK                            x       y       z     vdW  Elec       q    Type
REMARK                         _______ _______ _______ _____ _____    ______ ____
ROOT
ATOM      7  C   UNL     1      12.974  10.154  19.617  0.00  0.00    +0.000 C 
ATOM      8  C   UNL     1      12.410   9.349  18.418  0.00  0.00    +0.032 C 
ATOM      9  C   UNL     1      13.222  11.614  19.212  0.00  0.00    +0.012 C 
ATOM     10  C   UNL     1      14.211  11.734  18.037  0.00  0.00    +0.023 C 
ATOM     12  C   UNL     1      13.874  10.770  16.917  0.00  0.00    -0.073 C 
ATOM     13  C   UNL     1      13.056   9.718  17.103  0.00  0.00    -0.022 C 
ATOM     18  C   UNL     1      14.461  11.068  15.567  0.00  0.00    +0.039 C 
ENDROOT
BRANCH   7  11
ATOM     11  C   UNL     1      12.035  10.103  20.827  0.00  0.00    -0.013 C 
ATOM     16  C   UNL     1      12.674   9.310  21.962  0.00  0.00    +0.007 C 
ATOM     17  C   UNL     1      11.681  11.514  21.285  0.00  0.00    +0.007 C 
ENDBRANCH   7  11
BRANCH   8  14
ATOM     14  C   UNL     1      12.550   7.840  18.651  0.00  0.00    +0.112 C 
BRANCH  14   5
ATOM      2  O   UNL     1      13.816   6.520  20.864  0.00  0.00    -0.267 OA
ATOM      5  N   UNL     1      13.927   7.467  18.748  0.00  0.00    -0.308 N 
ATOM     20  C   UNL     1      14.462   6.826  19.864  0.00  0.00    +0.279 C 
ATOM     33  H   UNL     1      14.534   7.642  17.953  0.00  0.00    +0.149 HD
BRANCH  20  22
ATOM      3  O   UNL     1      16.379   5.773  18.790  0.00  0.00    -0.458 OA
ATOM     22  C   UNL     1      15.917   6.528  19.821  0.00  0.00    +0.189 A 
ATOM     24  C   UNL     1      16.947   6.884  20.660  0.00  0.00    +0.054 A 
ATOM     27  C   UNL     1      18.118   6.312  20.109  0.00  0.00    +0.042 A 
ATOM     28  C   UNL     1      17.720   5.646  18.973  0.00  0.00    +0.196 A 
ENDBRANCH  20  22
ENDBRANCH  14   5
ENDBRANCH   8  14
BRANCH  10  15
ATOM     15  C   UNL     1      15.656  11.542  18.509  0.00  0.00    +0.103 C 
BRANCH  15  19
ATOM      1  O   UNL     1      16.125  13.637  19.623  0.00  0.00    -0.276 OA
ATOM      6  N   UNL     1      16.115  11.665  20.853  0.00  0.00    -0.311 N 
ATOM     19  C   UNL     1      15.988  12.419  19.695  0.00  0.00    +0.214 C 
ATOM     34  H   UNL     1      15.980  10.659  20.812  0.00  0.00    +0.149 HD
BRANCH   6  21
ATOM     21  C   UNL     1      16.431  12.241  22.139  0.00  0.00    +0.139 C 
BRANCH  21  23
ATOM     23  C   UNL     1      15.197  12.528  22.945  0.00  0.00    -0.030 A 
ATOM     25  C   UNL     1      14.523  13.738  22.782  0.00  0.00    +0.009 A 
ATOM     26  C   UNL     1      14.725  11.583  23.857  0.00  0.00    +0.009 A 
ATOM     29  C   UNL     1      13.376  14.003  23.530  0.00  0.00    +0.046 A 
ATOM     30  C   UNL     1      13.579  11.849  24.606  0.00  0.00    +0.046 A 
ATOM     31  C   UNL     1      12.904  13.059  24.442  0.00  0.00    +0.120 A 
BRANCH  31   4
ATOM      4  O   UNL     1      11.785  13.318  25.172  0.00  0.00    -0.495 OA
ATOM     32  C   UNL     1      10.891  12.229  25.398  0.00  0.00    +0.277 C 
ENDBRANCH  31   4
ENDBRANCH  21  23
ENDBRANCH   6  21
ENDBRANCH  15  19
ENDBRANCH  10  15
TORSDOF 9
ENDMDL
MODEL 6
REMARK VINA RESULT:      -6.4     28.458     32.215
REMARK  Name = 38027853
REMARK  13 active torsions:
REMARK  status: ('A' for Active; 'I' for Inactive)
REMARK    1  A    between atoms: O_4  and  C_31
REMARK    2  A    between atoms: O_4  and  C_32
REMARK    3  A    between atoms: N_5  and  C_14
REMARK    4  A    between atoms: N_6  and  C_21
REMARK    5  A    between atoms: C_7  and  C_11
REMARK    6  A    between atoms: C_8  and  C_14
REMARK    7  A    between atoms: C_10  and  C_15
REMARK    8  A    between atoms: C_11  and  C_16
REMARK    9  A    between atoms: C_11  and  C_17
REMARK   10  A    between atoms: C_12  and  C_18
REMARK   11  A    between atoms: C_15  and  C_19
REMARK   12  A    between atoms: C_20  and  C_22
REMARK   13  A    between atoms: C_21  and  C_23
REMARK                            x       y       z     vdW  Elec       q    Type
REMARK                         _______ _______ _______ _____ _____    ______ ____
ROOT
ATOM      7  C   UNL     1      21.142   6.632  22.244  0.00  0.00    +0.000 C 
ATOM      8  C   UNL     1      20.979   5.391  21.330  0.00  0.00    +0.032 C 
ATOM      9  C   UNL     1      19.778   7.074  22.795  0.00  0.00    +0.012 C 
ATOM     10  C   UNL     1      18.781   7.423  21.673  0.00  0.00    +0.023 C 
ATOM     12  C   UNL     1      18.762   6.364  20.589  0.00  0.00    -0.073 C 
ATOM     13  C   UNL     1      19.746   5.456  20.460  0.00  0.00    -0.022 C 
ATOM     18  C   UNL     1      17.562   6.344  19.684  0.00  0.00    +0.039 C 
ENDROOT
BRANCH   7  11
ATOM     11  C   UNL     1      22.106   6.361  23.403  0.00  0.00    -0.013 C 
ATOM     16  C   UNL     1      23.346   7.242  23.280  0.00  0.00    +0.007 C 
ATOM     17  C   UNL     1      21.410   6.592  24.740  0.00  0.00    +0.007 C 
ENDBRANCH   7  11
BRANCH   8  14
ATOM     14  C   UNL     1      22.217   5.188  20.448  0.00  0.00    +0.112 C 
BRANCH  14   5
ATOM      2  O   UNL     1      24.974   4.926  21.206  0.00  0.00    -0.267 OA
ATOM      5  N   UNL     1      22.895   3.979  20.796  0.00  0.00    -0.308 N 
ATOM     20  C   UNL     1      24.242   3.941  21.154  0.00  0.00    +0.279 C 
ATOM     33  H   UNL     1      22.362   3.115  20.821  0.00  0.00    +0.149 HD
BRANCH  20  22
ATOM      3  O   UNL     1      26.027   2.547  22.054  0.00  0.00    -0.458 OA
ATOM     22  C   UNL     1      24.805   2.601  21.463  0.00  0.00    +0.189 A 
ATOM     24  C   UNL     1      24.308   1.334  21.262  0.00  0.00    +0.054 A 
ATOM     27  C   UNL     1      25.288   0.444  21.762  0.00  0.00    +0.042 A 
ATOM     28  C   UNL     1      26.315   1.231  22.232  0.00  0.00    +0.196 A 
ENDBRANCH  20  22
ENDBRANCH  14   5
ENDBRANCH   8  14
BRANCH  10  15
ATOM     15  C   UNL     1      19.075   8.806  21.084  0.00  0.00    +0.103 C 
BRANCH  15  19
ATOM      1  O   UNL     1      17.763  10.730  20.429  0.00  0.00    -0.276 OA
ATOM      6  N   UNL     1      16.868   9.191  21.922  0.00  0.00    -0.311 N 
ATOM     19  C   UNL     1      17.853   9.697  21.086  0.00  0.00    +0.214 C 
ATOM     34  H   UNL     1      17.035   8.323  22.424  0.00  0.00    +0.149 HD
BRANCH   6  21
ATOM     21  C   UNL     1      15.592   9.837  22.120  0.00  0.00    +0.139 C 
BRANCH  21  23
ATOM     23  C   UNL     1      14.445   8.940  21.752  0.00  0.00    -0.030 A 
ATOM     25  C   UNL     1      14.683   7.748  21.067  0.00  0.00    +0.009 A 
ATOM     26  C   UNL     1      13.142   9.299  22.095  0.00  0.00    +0.009 A 
ATOM     29  C   UNL     1      13.617   6.916  20.726  0.00  0.00    +0.046 A 
ATOM     30  C   UNL     1      12.076   8.466  21.754  0.00  0.00    +0.046 A 
ATOM     31  C   UNL     1      12.314   7.275  21.069  0.00  0.00    +0.120 A 
BRANCH  31   4
ATOM      4  O   UNL     1      11.274   6.462  20.736  0.00  0.00    -0.495 OA
ATOM     32  C   UNL     1      10.961   5.405  21.642  0.00  0.00    +0.277 C 
ENDBRANCH  31   4
ENDBRANCH  21  23
ENDBRANCH   6  21
ENDBRANCH  15  19
ENDBRANCH  10  15
TORSDOF 9
ENDMDL
MODEL 7
REMARK VINA RESULT:      -6.3     24.379     27.625
REMARK  Name = 38027853
REMARK  13 active torsions:
REMARK  status: ('A' for Active; 'I' for Inactive)
REMARK    1  A    between atoms: O_4  and  C_31
REMARK    2  A    between atoms: O_4  and  C_32
REMARK    3  A    between atoms: N_5  and  C_14
REMARK    4  A    between atoms: N_6  and  C_21
REMARK    5  A    between atoms: C_7  and  C_11
REMARK    6  A    between atoms: C_8  and  C_14
REMARK    7  A    between atoms: C_10  and  C_15
REMARK    8  A    between atoms: C_11  and  C_16
REMARK    9  A    between atoms: C_11  and  C_17
REMARK   10  A    between atoms: C_12  and  C_18
REMARK   11  A    between atoms: C_15  and  C_19
REMARK   12  A    between atoms: C_20  and  C_22
REMARK   13  A    between atoms: C_21  and  C_23
REMARK                            x       y       z     vdW  Elec       q    Type
REMARK                         _______ _______ _______ _____ _____    ______ ____
ROOT
ATOM      7  C   UNL     1       8.920   8.546   5.210  0.00  0.00    +0.000 C 
ATOM      8  C   UNL     1       8.861   7.987   6.654  0.00  0.00    +0.032 C 
ATOM      9  C   UNL     1       8.375   7.512   4.213  0.00  0.00    +0.012 C 
ATOM     10  C   UNL     1       9.162   6.189   4.255  0.00  0.00    +0.023 C 
ATOM     12  C   UNL     1       9.380   5.709   5.677  0.00  0.00    -0.073 C 
ATOM     13  C   UNL     1       9.227   6.523   6.736  0.00  0.00    -0.022 C 
ATOM     18  C   UNL     1       9.732   4.259   5.855  0.00  0.00    +0.039 C 
ENDROOT
BRANCH   7  11
ATOM     11  C   UNL     1       8.139   9.857   5.077  0.00  0.00    -0.013 C 
ATOM     16  C   UNL     1       9.065  10.983   4.626  0.00  0.00    +0.007 C 
ATOM     17  C   UNL     1       6.978   9.689   4.103  0.00  0.00    +0.007 C 
ENDBRANCH   7  11
BRANCH   8  14
ATOM     14  C   UNL     1       9.764   8.792   7.596  0.00  0.00    +0.112 C 
BRANCH  14   5
ATOM      2  O   UNL     1      11.753  10.752   6.930  0.00  0.00    -0.267 OA
ATOM      5  N   UNL     1      11.143   8.546   7.311  0.00  0.00    -0.308 N 
ATOM     20  C   UNL     1      12.045   9.561   6.996  0.00  0.00    +0.279 C 
ATOM     33  H   UNL     1      11.489   7.594   7.381  0.00  0.00    +0.149 HD
BRANCH  20  22
ATOM      3  O   UNL     1      14.369  10.108   6.503  0.00  0.00    -0.458 OA
ATOM     22  C   UNL     1      13.438   9.137   6.701  0.00  0.00    +0.189 A 
ATOM     24  C   UNL     1      14.007   7.890   6.584  0.00  0.00    +0.054 A 
ATOM     27  C   UNL     1      15.375   8.108   6.295  0.00  0.00    +0.042 A 
ATOM     28  C   UNL     1      15.545   9.473   6.256  0.00  0.00    +0.196 A 
ENDBRANCH  20  22
ENDBRANCH  14   5
ENDBRANCH   8  14
BRANCH  10  15
ATOM     15  C   UNL     1      10.495   6.315   3.510  0.00  0.00    +0.103 C 
BRANCH  15  19
ATOM      1  O   UNL     1      10.027   5.173   1.430  0.00  0.00    -0.276 OA
ATOM      6  N   UNL     1      11.645   4.322   2.863  0.00  0.00    -0.311 N 
ATOM     19  C   UNL     1      10.671   5.229   2.473  0.00  0.00    +0.214 C 
ATOM     34  H   UNL     1      12.128   4.454   3.747  0.00  0.00    +0.149 HD
BRANCH   6  21
ATOM     21  C   UNL     1      12.023   3.178   2.066  0.00  0.00    +0.139 C 
BRANCH  21  23
ATOM     23  C   UNL     1      13.168   3.488   1.146  0.00  0.00    -0.030 A 
ATOM     25  C   UNL     1      12.936   3.689  -0.216  0.00  0.00    +0.009 A 
ATOM     26  C   UNL     1      14.466   3.575   1.652  0.00  0.00    +0.009 A 
ATOM     29  C   UNL     1      14.000   3.977  -1.069  0.00  0.00    +0.046 A 
ATOM     30  C   UNL     1      15.530   3.863   0.797  0.00  0.00    +0.046 A 
ATOM     31  C   UNL     1      15.297   4.064  -0.563  0.00  0.00    +0.120 A 
BRANCH  31   4
ATOM      4  O   UNL     1      16.335   4.346  -1.397  0.00  0.00    -0.495 OA
ATOM     32  C   UNL     1      16.016   4.950  -2.649  0.00  0.00    +0.277 C 
ENDBRANCH  31   4
ENDBRANCH  21  23
ENDBRANCH   6  21
ENDBRANCH  15  19
ENDBRANCH  10  15
TORSDOF 9
ENDMDL
MODEL 8
REMARK VINA RESULT:      -6.3      4.318      8.083
REMARK  Name = 38027853
REMARK  13 active torsions:
REMARK  status: ('A' for Active; 'I' for Inactive)
REMARK    1  A    between atoms: O_4  and  C_31
REMARK    2  A    between atoms: O_4  and  C_32
REMARK    3  A    between atoms: N_5  and  C_14
REMARK    4  A    between atoms: N_6  and  C_21
REMARK    5  A    between atoms: C_7  and  C_11
REMARK    6  A    between atoms: C_8  and  C_14
REMARK    7  A    between atoms: C_10  and  C_15
REMARK    8  A    between atoms: C_11  and  C_16
REMARK    9  A    between atoms: C_11  and  C_17
REMARK   10  A    between atoms: C_12  and  C_18
REMARK   11  A    between atoms: C_15  and  C_19
REMARK   12  A    between atoms: C_20  and  C_22
REMARK   13  A    between atoms: C_21  and  C_23
REMARK                            x       y       z     vdW  Elec       q    Type
REMARK                         _______ _______ _______ _____ _____    ______ ____
ROOT
ATOM      7  C   UNL     1      -6.215  -9.582   7.396  0.00  0.00    +0.000 C 
ATOM      8  C   UNL     1      -7.436  -8.892   8.055  0.00  0.00    +0.032 C 
ATOM      9  C   UNL     1      -5.584 -10.593   8.365  0.00  0.00    +0.012 C 
ATOM     10  C   UNL     1      -5.121  -9.934   9.678  0.00  0.00    +0.023 C 
ATOM     12  C   UNL     1      -6.184  -9.019  10.253  0.00  0.00    -0.073 C 
ATOM     13  C   UNL     1      -7.218  -8.575   9.517  0.00  0.00    -0.022 C 
ATOM     18  C   UNL     1      -6.056  -8.663  11.708  0.00  0.00    +0.039 C 
ENDROOT
BRANCH   7  11
ATOM     11  C   UNL     1      -6.595 -10.283   6.089  0.00  0.00    -0.013 C 
ATOM     16  C   UNL     1      -5.391 -11.019   5.511  0.00  0.00    +0.007 C 
ATOM     17  C   UNL     1      -7.757 -11.244   6.319  0.00  0.00    +0.007 C 
ENDBRANCH   7  11
BRANCH   8  14
ATOM     14  C   UNL     1      -7.818  -7.610   7.306  0.00  0.00    +0.112 C 
BRANCH  14   5
ATOM      2  O   UNL     1     -10.408  -6.553   6.659  0.00  0.00    -0.267 OA
ATOM      5  N   UNL     1      -8.624  -6.763   8.128  0.00  0.00    -0.308 N 
ATOM     20  C   UNL     1      -9.876  -6.293   7.735  0.00  0.00    +0.279 C 
ATOM     33  H   UNL     1      -8.286  -6.525   9.056  0.00  0.00    +0.149 HD
BRANCH  20  22
ATOM      3  O   UNL     1     -10.284  -4.074   8.657  0.00  0.00    -0.458 OA
ATOM     22  C   UNL     1     -10.577  -5.400   8.694  0.00  0.00    +0.189 A 
ATOM     24  C   UNL     1     -11.516  -5.662   9.664  0.00  0.00    +0.054 A 
ATOM     27  C   UNL     1     -11.821  -4.416  10.262  0.00  0.00    +0.042 A 
ATOM     28  C   UNL     1     -11.045  -3.482   9.614  0.00  0.00    +0.196 A 
ENDBRANCH  20  22
ENDBRANCH  14   5
ENDBRANCH   8  14
BRANCH  10  15
ATOM     15  C   UNL     1      -3.799  -9.184   9.483  0.00  0.00    +0.103 C 
BRANCH  15  19
ATOM      1  O   UNL     1      -1.701  -8.999  10.673  0.00  0.00    -0.276 OA
ATOM      6  N   UNL     1      -3.137 -10.761  11.154  0.00  0.00    -0.311 N 
ATOM     19  C   UNL     1      -2.751  -9.608  10.487  0.00  0.00    +0.214 C 
ATOM     34  H   UNL     1      -4.030 -11.193  10.932  0.00  0.00    +0.149 HD
BRANCH   6  21
ATOM     21  C   UNL     1      -2.328 -11.395  12.169  0.00  0.00    +0.139 C 
BRANCH  21  23
ATOM     23  C   UNL     1      -2.868 -11.154  13.549  0.00  0.00    -0.030 A 
ATOM     25  C   UNL     1      -4.245 -11.183  13.775  0.00  0.00    +0.009 A 
ATOM     26  C   UNL     1      -1.993 -10.901  14.606  0.00  0.00    +0.009 A 
ATOM     29  C   UNL     1      -4.746 -10.961  15.057  0.00  0.00    +0.046 A 
ATOM     30  C   UNL     1      -2.495 -10.678  15.888  0.00  0.00    +0.046 A 
ATOM     31  C   UNL     1      -3.871 -10.708  16.114  0.00  0.00    +0.120 A 
BRANCH  31   4
ATOM      4  O   UNL     1      -4.360 -10.491  17.365  0.00  0.00    -0.495 OA
ATOM     32  C   UNL     1      -5.777 -10.387  17.498  0.00  0.00    +0.277 C 
ENDBRANCH  31   4
ENDBRANCH  21  23
ENDBRANCH   6  21
ENDBRANCH  15  19
ENDBRANCH  10  15
TORSDOF 9
ENDMDL
MODEL 9
REMARK VINA RESULT:      -6.2     18.500     21.853
REMARK  Name = 38027853
REMARK  13 active torsions:
REMARK  status: ('A' for Active; 'I' for Inactive)
REMARK    1  A    between atoms: O_4  and  C_31
REMARK    2  A    between atoms: O_4  and  C_32
REMARK    3  A    between atoms: N_5  and  C_14
REMARK    4  A    between atoms: N_6  and  C_21
REMARK    5  A    between atoms: C_7  and  C_11
REMARK    6  A    between atoms: C_8  and  C_14
REMARK    7  A    between atoms: C_10  and  C_15
REMARK    8  A    between atoms: C_11  and  C_16
REMARK    9  A    between atoms: C_11  and  C_17
REMARK   10  A    between atoms: C_12  and  C_18
REMARK   11  A    between atoms: C_15  and  C_19
REMARK   12  A    between atoms: C_20  and  C_22
REMARK   13  A    between atoms: C_21  and  C_23
REMARK                            x       y       z     vdW  Elec       q    Type
REMARK                         _______ _______ _______ _____ _____    ______ ____
ROOT
ATOM      7  C   UNL     1     -12.206  10.084  19.260  0.00  0.00    +0.000 C 
ATOM      8  C   UNL     1     -10.865   9.453  19.713  0.00  0.00    +0.032 C 
ATOM      9  C   UNL     1     -13.316   9.765  20.273  0.00  0.00    +0.012 C 
ATOM     10  C   UNL     1     -13.526   8.249  20.452  0.00  0.00    +0.023 C 
ATOM     12  C   UNL     1     -12.212   7.517  20.636  0.00  0.00    -0.073 C 
ATOM     13  C   UNL     1     -11.032   8.077  20.313  0.00  0.00    -0.022 C 
ATOM     18  C   UNL     1     -12.281   6.144  21.244  0.00  0.00    +0.039 C 
ENDROOT
BRANCH   7  11
ATOM     11  C   UNL     1     -12.089  11.600  19.079  0.00  0.00    -0.013 C 
ATOM     16  C   UNL     1     -12.688  12.023  17.742  0.00  0.00    +0.007 C 
ATOM     17  C   UNL     1     -12.771  12.328  20.233  0.00  0.00    +0.007 C 
ENDBRANCH   7  11
BRANCH   8  14
ATOM     14  C   UNL     1      -9.866   9.386  18.552  0.00  0.00    +0.112 C 
BRANCH  14   5
ATOM      2  O   UNL     1     -10.122  10.499  15.917  0.00  0.00    -0.267 OA
ATOM      5  N   UNL     1     -10.454   8.755  17.412  0.00  0.00    -0.308 N 
ATOM     20  C   UNL     1     -10.538   9.370  16.163  0.00  0.00    +0.279 C 
ATOM     33  H   UNL     1     -10.791   7.801  17.506  0.00  0.00    +0.149 HD
BRANCH  20  22
ATOM      3  O   UNL     1     -10.411   7.886  14.234  0.00  0.00    -0.458 OA
ATOM     22  C   UNL     1     -11.201   8.590  15.087  0.00  0.00    +0.189 A 
ATOM     24  C   UNL     1     -12.528   8.427  14.763  0.00  0.00    +0.054 A 
ATOM     27  C   UNL     1     -12.556   7.567  13.640  0.00  0.00    +0.042 A 
ATOM     28  C   UNL     1     -11.243   7.266  13.356  0.00  0.00    +0.196 A 
ENDBRANCH  20  22
ENDBRANCH  14   5
ENDBRANCH   8  14
BRANCH  10  15
ATOM     15  C   UNL     1     -14.322   7.660  19.283  0.00  0.00    +0.103 C 
BRANCH  15  19
ATOM      1  O   UNL     1     -16.408   6.474  18.980  0.00  0.00    -0.276 OA
ATOM      6  N   UNL     1     -15.832   7.254  21.092  0.00  0.00    -0.311 N 
ATOM     19  C   UNL     1     -15.633   7.057  19.733  0.00  0.00    +0.214 C 
ATOM     34  H   UNL     1     -15.129   7.748  21.634  0.00  0.00    +0.149 HD
BRANCH   6  21
ATOM     21  C   UNL     1     -17.003   6.784  21.794  0.00  0.00    +0.139 C 
BRANCH  21  23
ATOM     23  C   UNL     1     -16.728   5.526  22.565  0.00  0.00    -0.030 A 
ATOM     25  C   UNL     1     -15.640   5.464  23.438  0.00  0.00    +0.009 A 
ATOM     26  C   UNL     1     -17.560   4.417  22.410  0.00  0.00    +0.009 A 
ATOM     29  C   UNL     1     -15.386   4.295  24.154  0.00  0.00    +0.046 A 
ATOM     30  C   UNL     1     -17.305   3.247  23.126  0.00  0.00    +0.046 A 
ATOM     31  C   UNL     1     -16.219   3.186  23.998  0.00  0.00    +0.120 A 
BRANCH  31   4
ATOM      4  O   UNL     1     -15.970   2.046  24.697  0.00  0.00    -0.495 OA
ATOM     32  C   UNL     1     -16.658   1.881  25.936  0.00  0.00    +0.277 C 
ENDBRANCH  31   4
ENDBRANCH  21  23
ENDBRANCH   6  21
ENDBRANCH  15  19
ENDBRANCH  10  15
TORSDOF 9
ENDMDL
MODEL 10
REMARK VINA RESULT:      -6.2      3.210      6.655
REMARK  Name = 38027853
REMARK  13 active torsions:
REMARK  status: ('A' for Active; 'I' for Inactive)
REMARK    1  A    between atoms: O_4  and  C_31
REMARK    2  A    between atoms: O_4  and  C_32
REMARK    3  A    between atoms: N_5  and  C_14
REMARK    4  A    between atoms: N_6  and  C_21
REMARK    5  A    between atoms: C_7  and  C_11
REMARK    6  A    between atoms: C_8  and  C_14
REMARK    7  A    between atoms: C_10  and  C_15
REMARK    8  A    between atoms: C_11  and  C_16
REMARK    9  A    between atoms: C_11  and  C_17
REMARK   10  A    between atoms: C_12  and  C_18
REMARK   11  A    between atoms: C_15  and  C_19
REMARK   12  A    between atoms: C_20  and  C_22
REMARK   13  A    between atoms: C_21  and  C_23
REMARK                            x       y       z     vdW  Elec       q    Type
REMARK                         _______ _______ _______ _____ _____    ______ ____
ROOT
ATOM      7  C   UNL     1      -3.086 -12.280  12.355  0.00  0.00    +0.000 C 
ATOM      8  C   UNL     1      -2.026 -11.150  12.304  0.00  0.00    +0.032 C 
ATOM      9  C   UNL     1      -3.630 -12.566  10.947  0.00  0.00    +0.012 C 
ATOM     10  C   UNL     1      -4.275 -11.322  10.306  0.00  0.00    +0.023 C 
ATOM     12  C   UNL     1      -3.398 -10.095  10.456  0.00  0.00    -0.073 C 
ATOM     13  C   UNL     1      -2.390 -10.041  11.344  0.00  0.00    -0.022 C 
ATOM     18  C   UNL     1      -3.678  -8.946   9.527  0.00  0.00    +0.039 C 
ENDROOT
BRANCH   7  11
ATOM     11  C   UNL     1      -2.517 -13.566  12.962  0.00  0.00    -0.013 C 
ATOM     16  C   UNL     1      -3.325 -13.976  14.189  0.00  0.00    +0.007 C 
ATOM     17  C   UNL     1      -2.501 -14.683  11.925  0.00  0.00    +0.007 C 
ENDBRANCH   7  11
BRANCH   8  14
ATOM     14  C   UNL     1      -1.782 -10.559  13.698  0.00  0.00    +0.112 C 
BRANCH  14   5
ATOM      2  O   UNL     1      -2.288 -11.021  16.486  0.00  0.00    -0.267 OA
ATOM      5  N   UNL     1      -3.018 -10.354  14.386  0.00  0.00    -0.308 N 
ATOM     20  C   UNL     1      -3.178 -10.605  15.748  0.00  0.00    +0.279 C 
ATOM     33  H   UNL     1      -3.803  -9.971  13.868  0.00  0.00    +0.149 HD
BRANCH  20  22
ATOM      3  O   UNL     1      -4.763 -10.736  17.595  0.00  0.00    -0.458 OA
ATOM     22  C   UNL     1      -4.533 -10.365  16.308  0.00  0.00    +0.189 A 
ATOM     24  C   UNL     1      -5.664  -9.810  15.756  0.00  0.00    +0.054 A 
ATOM     27  C   UNL     1      -6.652  -9.842  16.768  0.00  0.00    +0.042 A 
ATOM     28  C   UNL     1      -6.054 -10.415  17.867  0.00  0.00    +0.196 A 
ENDBRANCH  20  22
ENDBRANCH  14   5
ENDBRANCH   8  14
BRANCH  10  15
ATOM     15  C   UNL     1      -5.674 -11.069  10.876  0.00  0.00    +0.103 C 
BRANCH  15  19
ATOM      1  O   UNL     1      -7.935 -11.348  10.063  0.00  0.00    -0.276 OA
ATOM      6  N   UNL     1      -6.207 -11.017   8.546  0.00  0.00    -0.311 N 
ATOM     19  C   UNL     1      -6.747 -11.164   9.815  0.00  0.00    +0.214 C 
ATOM     34  H   UNL     1      -5.207 -10.865   8.442  0.00  0.00    +0.149 HD
BRANCH   6  21
ATOM     21  C   UNL     1      -7.000 -11.065   7.340  0.00  0.00    +0.139 C 
BRANCH  21  23
ATOM     23  C   UNL     1      -6.180 -11.456   6.144  0.00  0.00    -0.030 A 
ATOM     25  C   UNL     1      -4.804 -11.649   6.273  0.00  0.00    +0.009 A 
ATOM     26  C   UNL     1      -6.795 -11.626   4.903  0.00  0.00    +0.009 A 
ATOM     29  C   UNL     1      -4.044 -12.012   5.162  0.00  0.00    +0.046 A 
ATOM     30  C   UNL     1      -6.034 -11.989   3.792  0.00  0.00    +0.046 A 
ATOM     31  C   UNL     1      -4.659 -12.182   3.921  0.00  0.00    +0.120 A 
BRANCH  31   4
ATOM      4  O   UNL     1      -3.917 -12.537   2.837  0.00  0.00    -0.495 OA
ATOM     32  C   UNL     1      -2.528 -12.781   3.054  0.00  0.00    +0.277 C 
ENDBRANCH  31   4
ENDBRANCH  21  23
ENDBRANCH   6  21
ENDBRANCH  15  19
ENDBRANCH  10  15
TORSDOF 9
ENDMDL
