MODEL 1
REMARK VINA RESULT:      -7.5      0.000      0.000
REMARK  Name = 56774898
REMARK  6 active torsions:
REMARK  status: ('A' for Active; 'I' for Inactive)
REMARK    1  A    between atoms: O_2  and  C_10
REMARK    2  A    between atoms: N_5  and  C_15
REMARK    3  A    between atoms: N_6  and  C_20
REMARK    4  A    between atoms: C_9  and  C_10
REMARK    5  A    between atoms: C_10  and  C_12
REMARK    6  A    between atoms: C_21  and  C_22
REMARK                            x       y       z     vdW  Elec       q    Type
REMARK                         _______ _______ _______ _____ _____    ______ ____
ROOT
ATOM     12  C   UNL     1      16.001   6.688  20.121  0.00  0.00    -0.017 A 
ATOM     16  C   UNL     1      16.690   5.983  19.134  0.00  0.00    +0.008 A 
ATOM     17  C   UNL     1      16.695   7.237  21.199  0.00  0.00    +0.008 A 
ATOM     18  C   UNL     1      18.072   5.826  19.226  0.00  0.00    +0.023 A 
ATOM     19  C   UNL     1      18.077   7.081  21.291  0.00  0.00    +0.023 A 
ATOM     20  C   UNL     1      18.766   6.375  20.304  0.00  0.00    +0.034 A 
ENDROOT
BRANCH  20   6
ATOM      4  O   UNL     1      20.422   3.889  20.572  0.00  0.00    -0.268 OA
ATOM      6  N   UNL     1      20.149   6.219  20.396  0.00  0.00    -0.280 N 
ATOM     21  C   UNL     1      20.877   5.028  20.521  0.00  0.00    +0.268 C 
ATOM     27  H   UNL     1      20.689   7.082  20.365  0.00  0.00    +0.155 HD
BRANCH  21  22
ATOM      7  N   UNL     1      23.077   4.056  20.707  0.00  0.00    -0.247 NA
ATOM      8  N   UNL     1      24.288   6.578  20.519  0.00  0.00    -0.259 NA
ATOM     22  C   UNL     1      22.354   5.185  20.568  0.00  0.00    +0.144 A 
ATOM     23  C   UNL     1      22.949   6.423  20.476  0.00  0.00    +0.143 A 
ATOM     24  C   UNL     1      24.415   4.210  20.752  0.00  0.00    +0.131 A 
ATOM     25  C   UNL     1      25.010   5.449  20.659  0.00  0.00    +0.130 A 
ENDBRANCH  21  22
ENDBRANCH  20   6
BRANCH  12  10
ATOM     10  C   UNL     1      14.506   6.856  20.022  0.00  0.00    +0.167 C 
BRANCH  10   9
ATOM      1  O   UNL     1      13.718   8.467  17.700  0.00  0.00    -0.369 OA
ATOM      3  O   UNL     1      10.516   8.444  19.370  0.00  0.00    -0.273 OA
ATOM      5  N   UNL     1      12.652   8.461  20.293  0.00  0.00    -0.295 N 
ATOM      9  C   UNL     1      14.096   8.331  20.056  0.00  0.00    +0.134 C 
ATOM     11  C   UNL     1      14.476   9.037  18.760  0.00  0.00    +0.185 C 
ATOM     13  C   UNL     1      11.740   8.507  19.240  0.00  0.00    +0.241 C 
ATOM     14  C   UNL     1      12.344   8.738  17.860  0.00  0.00    +0.255 C 
ATOM     15  C   UNL     1      12.184   8.356  21.669  0.00  0.00    +0.132 C 
ENDBRANCH  10   9
BRANCH  10   2
ATOM      2  O   UNL     1      13.878   6.168  21.099  0.00  0.00    -0.385 OA
ATOM     26  H   UNL     1      14.515   5.542  21.482  0.00  0.00    +0.210 HD
ENDBRANCH  10   2
ENDBRANCH  12  10
TORSDOF 5
ENDMDL
MODEL 2
REMARK VINA RESULT:      -7.3      1.384      2.107
REMARK  Name = 56774898
REMARK  6 active torsions:
REMARK  status: ('A' for Active; 'I' for Inactive)
REMARK    1  A    between atoms: O_2  and  C_10
REMARK    2  A    between atoms: N_5  and  C_15
REMARK    3  A    between atoms: N_6  and  C_20
REMARK    4  A    between atoms: C_9  and  C_10
REMARK    5  A    between atoms: C_10  and  C_12
REMARK    6  A    between atoms: C_21  and  C_22
REMARK                            x       y       z     vdW  Elec       q    Type
REMARK                         _______ _______ _______ _____ _____    ______ ____
ROOT
ATOM     12  C   UNL     1      15.746   6.533  20.160  0.00  0.00    -0.017 A 
ATOM     16  C   UNL     1      16.467   6.798  21.324  0.00  0.00    +0.008 A 
ATOM     17  C   UNL     1      16.405   6.060  19.024  0.00  0.00    +0.008 A 
ATOM     18  C   UNL     1      17.846   6.591  21.353  0.00  0.00    +0.023 A 
ATOM     19  C   UNL     1      17.783   5.852  19.053  0.00  0.00    +0.023 A 
ATOM     20  C   UNL     1      18.504   6.118  20.218  0.00  0.00    +0.034 A 
ENDROOT
BRANCH  20   6
ATOM      4  O   UNL     1      20.738   8.018  20.843  0.00  0.00    -0.268 OA
ATOM      6  N   UNL     1      19.883   5.910  20.247  0.00  0.00    -0.280 N 
ATOM     21  C   UNL     1      20.890   6.837  20.547  0.00  0.00    +0.268 C 
ATOM     27  H   UNL     1      20.186   4.963  20.024  0.00  0.00    +0.155 HD
BRANCH  21  22
ATOM      7  N   UNL     1      23.273   7.212  20.503  0.00  0.00    -0.247 NA
ATOM      8  N   UNL     1      23.780   4.454  20.490  0.00  0.00    -0.259 NA
ATOM     22  C   UNL     1      22.277   6.304  20.522  0.00  0.00    +0.144 A 
ATOM     23  C   UNL     1      22.527   4.949  20.515  0.00  0.00    +0.143 A 
ATOM     24  C   UNL     1      24.525   6.717  20.477  0.00  0.00    +0.131 A 
ATOM     25  C   UNL     1      24.775   5.363  20.471  0.00  0.00    +0.130 A 
ENDBRANCH  21  22
ENDBRANCH  20   6
BRANCH  12  10
ATOM     10  C   UNL     1      14.256   6.758  20.129  0.00  0.00    +0.167 C 
BRANCH  10   9
ATOM      1  O   UNL     1      11.578   7.410  19.125  0.00  0.00    -0.369 OA
ATOM      3  O   UNL     1      11.869  10.120  21.495  0.00  0.00    -0.273 OA
ATOM      5  N   UNL     1      13.525   9.114  20.206  0.00  0.00    -0.295 N 
ATOM      9  C   UNL     1      13.885   8.002  19.316  0.00  0.00    +0.134 C 
ATOM     11  C   UNL     1      12.738   7.709  18.358  0.00  0.00    +0.185 C 
ATOM     13  C   UNL     1      12.211   9.319  20.622  0.00  0.00    +0.241 C 
ATOM     14  C   UNL     1      11.151   8.539  19.854  0.00  0.00    +0.255 C 
ATOM     15  C   UNL     1      14.612   9.887  20.791  0.00  0.00    +0.132 C 
ENDBRANCH  10   9
BRANCH  10   2
ATOM      2  O   UNL     1      13.771   6.904  21.460  0.00  0.00    -0.385 OA
ATOM     26  H   UNL     1      14.530   6.996  22.060  0.00  0.00    +0.210 HD
ENDBRANCH  10   2
ENDBRANCH  12  10
TORSDOF 5
ENDMDL
MODEL 3
REMARK VINA RESULT:      -7.0      1.265      2.249
REMARK  Name = 56774898
REMARK  6 active torsions:
REMARK  status: ('A' for Active; 'I' for Inactive)
REMARK    1  A    between atoms: O_2  and  C_10
REMARK    2  A    between atoms: N_5  and  C_15
REMARK    3  A    between atoms: N_6  and  C_20
REMARK    4  A    between atoms: C_9  and  C_10
REMARK    5  A    between atoms: C_10  and  C_12
REMARK    6  A    between atoms: C_21  and  C_22
REMARK                            x       y       z     vdW  Elec       q    Type
REMARK                         _______ _______ _______ _____ _____    ______ ____
ROOT
ATOM     12  C   UNL     1      15.985   7.663  20.244  0.00  0.00    -0.017 A 
ATOM     16  C   UNL     1      16.975   8.238  21.042  0.00  0.00    +0.008 A 
ATOM     17  C   UNL     1      16.279   6.540  19.470  0.00  0.00    +0.008 A 
ATOM     18  C   UNL     1      18.257   7.691  21.065  0.00  0.00    +0.023 A 
ATOM     19  C   UNL     1      17.561   5.993  19.493  0.00  0.00    +0.023 A 
ATOM     20  C   UNL     1      18.551   6.569  20.291  0.00  0.00    +0.034 A 
ENDROOT
BRANCH  20   6
ATOM      4  O   UNL     1      20.298   5.824  22.611  0.00  0.00    -0.268 OA
ATOM      6  N   UNL     1      19.834   6.022  20.314  0.00  0.00    -0.280 N 
ATOM     21  C   UNL     1      20.611   5.691  21.432  0.00  0.00    +0.268 C 
ATOM     27  H   UNL     1      20.247   5.841  19.401  0.00  0.00    +0.155 HD
BRANCH  21  22
ATOM      7  N   UNL     1      22.063   3.767  21.337  0.00  0.00    -0.247 NA
ATOM      8  N   UNL     1      24.194   5.330  20.398  0.00  0.00    -0.259 NA
ATOM     22  C   UNL     1      21.938   5.093  21.132  0.00  0.00    +0.144 A 
ATOM     23  C   UNL     1      22.985   5.860  20.671  0.00  0.00    +0.143 A 
ATOM     24  C   UNL     1      23.272   3.236  21.065  0.00  0.00    +0.131 A 
ATOM     25  C   UNL     1      24.318   4.004  20.603  0.00  0.00    +0.130 A 
ENDBRANCH  21  22
ENDBRANCH  20   6
BRANCH  12  10
ATOM     10  C   UNL     1      14.599   8.255  20.220  0.00  0.00    +0.167 C 
BRANCH  10   9
ATOM      1  O   UNL     1      12.233   8.135  21.949  0.00  0.00    -0.369 OA
ATOM      3  O   UNL     1      10.512   8.733  18.830  0.00  0.00    -0.273 OA
ATOM      5  N   UNL     1      12.463   7.527  19.222  0.00  0.00    -0.295 N 
ATOM      9  C   UNL     1      13.518   7.171  20.180  0.00  0.00    +0.134 C 
ATOM     11  C   UNL     1      12.913   6.949  21.561  0.00  0.00    +0.185 C 
ATOM     13  C   UNL     1      11.342   8.258  19.608  0.00  0.00    +0.241 C 
ATOM     14  C   UNL     1      11.124   8.378  21.112  0.00  0.00    +0.255 C 
ATOM     15  C   UNL     1      12.713   7.251  17.813  0.00  0.00    +0.132 C 
ENDBRANCH  10   9
BRANCH  10   2
ATOM      2  O   UNL     1      14.463   9.097  19.079  0.00  0.00    -0.385 OA
ATOM     26  H   UNL     1      14.398  10.020  19.380  0.00  0.00    +0.210 HD
ENDBRANCH  10   2
ENDBRANCH  12  10
TORSDOF 5
ENDMDL
MODEL 4
REMARK VINA RESULT:      -6.9      1.928      9.259
REMARK  Name = 56774898
REMARK  6 active torsions:
REMARK  status: ('A' for Active; 'I' for Inactive)
REMARK    1  A    between atoms: O_2  and  C_10
REMARK    2  A    between atoms: N_5  and  C_15
REMARK    3  A    between atoms: N_6  and  C_20
REMARK    4  A    between atoms: C_9  and  C_10
REMARK    5  A    between atoms: C_10  and  C_12
REMARK    6  A    between atoms: C_21  and  C_22
REMARK                            x       y       z     vdW  Elec       q    Type
REMARK                         _______ _______ _______ _____ _____    ______ ____
ROOT
ATOM     12  C   UNL     1      19.202   5.785  20.448  0.00  0.00    -0.017 A 
ATOM     16  C   UNL     1      18.589   5.214  19.333  0.00  0.00    +0.008 A 
ATOM     17  C   UNL     1      18.564   6.811  21.145  0.00  0.00    +0.008 A 
ATOM     18  C   UNL     1      17.340   5.669  18.914  0.00  0.00    +0.023 A 
ATOM     19  C   UNL     1      17.314   7.266  20.727  0.00  0.00    +0.023 A 
ATOM     20  C   UNL     1      16.702   6.695  19.611  0.00  0.00    +0.034 A 
ENDROOT
BRANCH  20   6
ATOM      4  O   UNL     1      14.041   6.592  20.990  0.00  0.00    -0.268 OA
ATOM      6  N   UNL     1      15.451   7.151  19.192  0.00  0.00    -0.280 N 
ATOM     21  C   UNL     1      14.232   7.077  19.879  0.00  0.00    +0.268 C 
ATOM     27  H   UNL     1      15.432   7.592  18.275  0.00  0.00    +0.155 HD
BRANCH  21  22
ATOM      7  N   UNL     1      13.241   7.993  17.879  0.00  0.00    -0.247 NA
ATOM      8  N   UNL     1      10.814   8.457  19.205  0.00  0.00    -0.259 NA
ATOM     22  C   UNL     1      13.068   7.680  19.178  0.00  0.00    +0.144 A 
ATOM     23  C   UNL     1      11.876   7.909  19.829  0.00  0.00    +0.143 A 
ATOM     24  C   UNL     1      12.181   8.542  17.255  0.00  0.00    +0.131 A 
ATOM     25  C   UNL     1      10.989   8.769  17.906  0.00  0.00    +0.130 A 
ENDBRANCH  21  22
ENDBRANCH  20   6
BRANCH  12  10
ATOM     10  C   UNL     1      20.553   5.293  20.899  0.00  0.00    +0.167 C 
BRANCH  10   9
ATOM      1  O   UNL     1      22.792   4.726  22.708  0.00  0.00    -0.369 OA
ATOM      3  O   UNL     1      24.586   6.816  20.372  0.00  0.00    -0.273 OA
ATOM      5  N   UNL     1      22.368   6.956  21.062  0.00  0.00    -0.295 N 
ATOM      9  C   UNL     1      21.264   6.317  21.789  0.00  0.00    +0.134 C 
ATOM     11  C   UNL     1      21.786   5.666  23.064  0.00  0.00    +0.185 C 
ATOM     13  C   UNL     1      23.659   6.433  21.089  0.00  0.00    +0.241 C 
ATOM     14  C   UNL     1      23.916   5.374  22.155  0.00  0.00    +0.255 C 
ATOM     15  C   UNL     1      22.036   8.052  20.161  0.00  0.00    +0.132 C 
ENDBRANCH  10   9
BRANCH  10   2
ATOM      2  O   UNL     1      21.363   5.017  19.761  0.00  0.00    -0.385 OA
ATOM     26  H   UNL     1      21.993   5.748  19.643  0.00  0.00    +0.210 HD
ENDBRANCH  10   2
ENDBRANCH  12  10
TORSDOF 5
ENDMDL
MODEL 5
REMARK VINA RESULT:      -6.8     28.690     31.504
REMARK  Name = 56774898
REMARK  6 active torsions:
REMARK  status: ('A' for Active; 'I' for Inactive)
REMARK    1  A    between atoms: O_2  and  C_10
REMARK    2  A    between atoms: N_5  and  C_15
REMARK    3  A    between atoms: N_6  and  C_20
REMARK    4  A    between atoms: C_9  and  C_10
REMARK    5  A    between atoms: C_10  and  C_12
REMARK    6  A    between atoms: C_21  and  C_22
REMARK                            x       y       z     vdW  Elec       q    Type
REMARK                         _______ _______ _______ _____ _____    ______ ____
ROOT
ATOM     12  C   UNL     1     -11.853   8.760  20.414  0.00  0.00    -0.017 A 
ATOM     16  C   UNL     1     -11.451   7.424  20.413  0.00  0.00    +0.008 A 
ATOM     17  C   UNL     1     -13.007   9.140  21.100  0.00  0.00    +0.008 A 
ATOM     18  C   UNL     1     -12.202   6.470  21.098  0.00  0.00    +0.023 A 
ATOM     19  C   UNL     1     -13.757   8.186  21.785  0.00  0.00    +0.023 A 
ATOM     20  C   UNL     1     -13.355   6.850  21.784  0.00  0.00    +0.034 A 
ENDROOT
BRANCH  20   6
ATOM      4  O   UNL     1     -15.672   5.183  20.867  0.00  0.00    -0.268 OA
ATOM      6  N   UNL     1     -14.106   5.895  22.470  0.00  0.00    -0.280 N 
ATOM     21  C   UNL     1     -15.185   5.140  21.993  0.00  0.00    +0.268 C 
ATOM     27  H   UNL     1     -13.826   5.731  23.436  0.00  0.00    +0.155 HD
BRANCH  21  22
ATOM      7  N   UNL     1     -16.786   3.413  22.517  0.00  0.00    -0.247 NA
ATOM      8  N   UNL     1     -15.811   3.203  25.138  0.00  0.00    -0.259 NA
ATOM     22  C   UNL     1     -15.767   4.176  22.962  0.00  0.00    +0.144 A 
ATOM     23  C   UNL     1     -15.290   4.073  24.249  0.00  0.00    +0.143 A 
ATOM     24  C   UNL     1     -17.307   2.544  23.404  0.00  0.00    +0.131 A 
ATOM     25  C   UNL     1     -16.829   2.440  24.692  0.00  0.00    +0.130 A 
ENDBRANCH  21  22
ENDBRANCH  20   6
BRANCH  12  10
ATOM     10  C   UNL     1     -11.042   9.791  19.672  0.00  0.00    +0.167 C 
BRANCH  10   9
ATOM      1  O   UNL     1     -10.090  11.944  17.922  0.00  0.00    -0.369 OA
ATOM      3  O   UNL     1     -10.441   9.394  15.389  0.00  0.00    -0.273 OA
ATOM      5  N   UNL     1     -11.720   9.749  17.300  0.00  0.00    -0.295 N 
ATOM      9  C   UNL     1     -11.858  10.473  18.571  0.00  0.00    +0.134 C 
ATOM     11  C   UNL     1     -11.432  11.925  18.392  0.00  0.00    +0.185 C 
ATOM     13  C   UNL     1     -10.717  10.065  16.385  0.00  0.00    +0.241 C 
ATOM     14  C   UNL     1      -9.999  11.387  16.630  0.00  0.00    +0.255 C 
ATOM     15  C   UNL     1     -12.549   8.567  17.105  0.00  0.00    +0.132 C 
ENDBRANCH  10   9
BRANCH  10   2
ATOM      2  O   UNL     1      -9.898   9.169  19.094  0.00  0.00    -0.385 OA
ATOM     26  H   UNL     1     -10.044   9.080  18.136  0.00  0.00    +0.210 HD
ENDBRANCH  10   2
ENDBRANCH  12  10
TORSDOF 5
ENDMDL
MODEL 6
REMARK VINA RESULT:      -6.1     17.333     20.435
REMARK  Name = 56774898
REMARK  6 active torsions:
REMARK  status: ('A' for Active; 'I' for Inactive)
REMARK    1  A    between atoms: O_2  and  C_10
REMARK    2  A    between atoms: N_5  and  C_15
REMARK    3  A    between atoms: N_6  and  C_20
REMARK    4  A    between atoms: C_9  and  C_10
REMARK    5  A    between atoms: C_10  and  C_12
REMARK    6  A    between atoms: C_21  and  C_22
REMARK                            x       y       z     vdW  Elec       q    Type
REMARK                         _______ _______ _______ _____ _____    ______ ____
ROOT
ATOM     12  C   UNL     1      10.659   5.377   3.665  0.00  0.00    -0.017 A 
ATOM     16  C   UNL     1      11.029   4.100   3.241  0.00  0.00    +0.008 A 
ATOM     17  C   UNL     1      10.185   6.309   2.742  0.00  0.00    +0.008 A 
ATOM     18  C   UNL     1      10.926   3.757   1.894  0.00  0.00    +0.023 A 
ATOM     19  C   UNL     1      10.081   5.965   1.395  0.00  0.00    +0.023 A 
ATOM     20  C   UNL     1      10.452   4.689   0.970  0.00  0.00    +0.034 A 
ENDROOT
BRANCH  20   6
ATOM      4  O   UNL     1      12.561   4.523  -1.155  0.00  0.00    -0.268 OA
ATOM      6  N   UNL     1      10.348   4.345  -0.378  0.00  0.00    -0.280 N 
ATOM     21  C   UNL     1      11.371   4.283  -1.334  0.00  0.00    +0.268 C 
ATOM     27  H   UNL     1       9.410   4.108  -0.697  0.00  0.00    +0.155 HD
BRANCH  21  22
ATOM      7  N   UNL     1       9.679   3.419  -2.821  0.00  0.00    -0.247 NA
ATOM      8  N   UNL     1      11.444   3.507  -4.998  0.00  0.00    -0.259 NA
ATOM     22  C   UNL     1      10.948   3.853  -2.693  0.00  0.00    +0.144 A 
ATOM     23  C   UNL     1      11.815   3.895  -3.762  0.00  0.00    +0.143 A 
ATOM     24  C   UNL     1       9.308   3.030  -4.057  0.00  0.00    +0.131 A 
ATOM     25  C   UNL     1      10.174   3.073  -5.126  0.00  0.00    +0.130 A 
ENDBRANCH  21  22
ENDBRANCH  20   6
BRANCH  12  10
ATOM     10  C   UNL     1      10.771   5.748   5.122  0.00  0.00    +0.167 C 
BRANCH  10   9
ATOM      1  O   UNL     1      10.751   5.143   7.992  0.00  0.00    -0.369 OA
ATOM      3  O   UNL     1       8.587   8.033   8.100  0.00  0.00    -0.273 OA
ATOM      5  N   UNL     1       8.795   6.417   6.439  0.00  0.00    -0.295 N 
ATOM      9  C   UNL     1       9.558   5.271   5.926  0.00  0.00    +0.134 C 
ATOM     11  C   UNL     1       9.983   4.370   7.079  0.00  0.00    +0.185 C 
ATOM     13  C   UNL     1       9.068   6.976   7.686  0.00  0.00    +0.241 C 
ATOM     14  C   UNL     1       9.961   6.143   8.597  0.00  0.00    +0.255 C 
ATOM     15  C   UNL     1       7.865   7.069   5.526  0.00  0.00    +0.132 C 
ENDBRANCH  10   9
BRANCH  10   2
ATOM      2  O   UNL     1      10.891   7.161   5.244  0.00  0.00    -0.385 OA
ATOM     26  H   UNL     1      11.667   7.362   5.794  0.00  0.00    +0.210 HD
ENDBRANCH  10   2
ENDBRANCH  12  10
TORSDOF 5
ENDMDL
MODEL 7
REMARK VINA RESULT:      -6.0     29.058     32.534
REMARK  Name = 56774898
REMARK  6 active torsions:
REMARK  status: ('A' for Active; 'I' for Inactive)
REMARK    1  A    between atoms: O_2  and  C_10
REMARK    2  A    between atoms: N_5  and  C_15
REMARK    3  A    between atoms: N_6  and  C_20
REMARK    4  A    between atoms: C_9  and  C_10
REMARK    5  A    between atoms: C_10  and  C_12
REMARK    6  A    between atoms: C_21  and  C_22
REMARK                            x       y       z     vdW  Elec       q    Type
REMARK                         _______ _______ _______ _____ _____    ______ ____
ROOT
ATOM     12  C   UNL     1     -13.424   7.226  20.402  0.00  0.00    -0.017 A 
ATOM     16  C   UNL     1     -14.792   6.974  20.303  0.00  0.00    +0.008 A 
ATOM     17  C   UNL     1     -12.633   6.455  21.253  0.00  0.00    +0.008 A 
ATOM     18  C   UNL     1     -15.369   5.952  21.055  0.00  0.00    +0.023 A 
ATOM     19  C   UNL     1     -13.209   5.432  22.004  0.00  0.00    +0.023 A 
ATOM     20  C   UNL     1     -14.578   5.180  21.906  0.00  0.00    +0.034 A 
ENDROOT
BRANCH  20   6
ATOM      4  O   UNL     1     -16.252   5.308  24.390  0.00  0.00    -0.268 OA
ATOM      6  N   UNL     1     -15.154   4.156  22.658  0.00  0.00    -0.280 N 
ATOM     21  C   UNL     1     -15.932   4.270  23.818  0.00  0.00    +0.268 C 
ATOM     27  H   UNL     1     -14.986   3.213  22.312  0.00  0.00    +0.155 HD
BRANCH  21  22
ATOM      7  N   UNL     1     -16.168   2.756  25.681  0.00  0.00    -0.247 NA
ATOM      8  N   UNL     1     -17.581   0.918  24.103  0.00  0.00    -0.259 NA
ATOM     22  C   UNL     1     -16.432   2.988  24.380  0.00  0.00    +0.144 A 
ATOM     23  C   UNL     1     -17.125   2.085  23.605  0.00  0.00    +0.143 A 
ATOM     24  C   UNL     1     -16.623   1.590  26.179  0.00  0.00    +0.131 A 
ATOM     25  C   UNL     1     -17.317   0.687  25.404  0.00  0.00    +0.130 A 
ENDBRANCH  21  22
ENDBRANCH  20   6
BRANCH  12  10
ATOM     10  C   UNL     1     -12.802   8.333  19.589  0.00  0.00    +0.167 C 
BRANCH  10   9
ATOM      1  O   UNL     1     -11.061  10.447  18.538  0.00  0.00    -0.369 OA
ATOM      3  O   UNL     1     -13.019  12.509  20.764  0.00  0.00    -0.273 OA
ATOM      5  N   UNL     1     -12.355  10.293  21.020  0.00  0.00    -0.295 N 
ATOM      9  C   UNL     1     -11.754   9.109  20.392  0.00  0.00    +0.134 C 
ATOM     11  C   UNL     1     -10.584   9.525  19.510  0.00  0.00    +0.185 C 
ATOM     13  C   UNL     1     -12.386  11.526  20.372  0.00  0.00    +0.241 C 
ATOM     14  C   UNL     1     -11.489  11.645  19.146  0.00  0.00    +0.255 C 
ATOM     15  C   UNL     1     -13.085  10.097  22.266  0.00  0.00    +0.132 C 
ENDBRANCH  10   9
BRANCH  10   2
ATOM      2  O   UNL     1     -13.818   9.230  19.151  0.00  0.00    -0.385 OA
ATOM     26  H   UNL     1     -14.674   8.922  19.495  0.00  0.00    +0.210 HD
ENDBRANCH  10   2
ENDBRANCH  12  10
TORSDOF 5
ENDMDL
MODEL 8
REMARK VINA RESULT:      -6.0     27.849     30.876
REMARK  Name = 56774898
REMARK  6 active torsions:
REMARK  status: ('A' for Active; 'I' for Inactive)
REMARK    1  A    between atoms: O_2  and  C_10
REMARK    2  A    between atoms: N_5  and  C_15
REMARK    3  A    between atoms: N_6  and  C_20
REMARK    4  A    between atoms: C_9  and  C_10
REMARK    5  A    between atoms: C_10  and  C_12
REMARK    6  A    between atoms: C_21  and  C_22
REMARK                            x       y       z     vdW  Elec       q    Type
REMARK                         _______ _______ _______ _____ _____    ______ ____
ROOT
ATOM     12  C   UNL     1      -3.262 -10.619  10.625  0.00  0.00    -0.017 A 
ATOM     16  C   UNL     1      -4.032 -11.535   9.908  0.00  0.00    +0.008 A 
ATOM     17  C   UNL     1      -3.320  -9.262  10.309  0.00  0.00    +0.008 A 
ATOM     18  C   UNL     1      -4.858 -11.095   8.875  0.00  0.00    +0.023 A 
ATOM     19  C   UNL     1      -4.146  -8.821   9.276  0.00  0.00    +0.023 A 
ATOM     20  C   UNL     1      -4.915  -9.737   8.559  0.00  0.00    +0.034 A 
ENDROOT
BRANCH  20   6
ATOM      4  O   UNL     1      -7.726  -8.695   8.637  0.00  0.00    -0.268 OA
ATOM      6  N   UNL     1      -5.742  -9.296   7.525  0.00  0.00    -0.280 N 
ATOM     21  C   UNL     1      -7.055  -8.816   7.616  0.00  0.00    +0.268 C 
ATOM     27  H   UNL     1      -5.331  -9.327   6.594  0.00  0.00    +0.155 HD
BRANCH  21  22
ATOM      7  N   UNL     1      -7.047  -8.790   5.203  0.00  0.00    -0.247 NA
ATOM      8  N   UNL     1      -9.380  -7.235   5.140  0.00  0.00    -0.259 NA
ATOM     22  C   UNL     1      -7.670  -8.392   6.331  0.00  0.00    +0.144 A 
ATOM     23  C   UNL     1      -8.815  -7.628   6.299  0.00  0.00    +0.143 A 
ATOM     24  C   UNL     1      -7.611  -8.397   4.045  0.00  0.00    +0.131 A 
ATOM     25  C   UNL     1      -8.757  -7.634   4.013  0.00  0.00    +0.130 A 
ENDBRANCH  21  22
ENDBRANCH  20   6
BRANCH  12  10
ATOM     10  C   UNL     1      -2.369 -11.097  11.741  0.00  0.00    +0.167 C 
BRANCH  10   9
ATOM      1  O   UNL     1      -1.232 -12.331  14.147  0.00  0.00    -0.369 OA
ATOM      3  O   UNL     1      -3.748 -10.323  15.787  0.00  0.00    -0.273 OA
ATOM      5  N   UNL     1      -3.830 -11.371  13.710  0.00  0.00    -0.295 N 
ATOM      9  C   UNL     1      -3.088 -12.085  12.663  0.00  0.00    +0.134 C 
ATOM     11  C   UNL     1      -2.104 -13.062  13.295  0.00  0.00    +0.185 C 
ATOM     13  C   UNL     1      -3.246 -11.062  14.937  0.00  0.00    +0.241 C 
ATOM     14  C   UNL     1      -1.936 -11.781  15.239  0.00  0.00    +0.255 C 
ATOM     15  C   UNL     1      -5.137 -10.830  13.360  0.00  0.00    +0.132 C 
ENDBRANCH  10   9
BRANCH  10   2
ATOM      2  O   UNL     1      -1.924  -9.979  12.505  0.00  0.00    -0.385 OA
ATOM     26  H   UNL     1      -1.532 -10.305  13.333  0.00  0.00    +0.210 HD
ENDBRANCH  10   2
ENDBRANCH  12  10
TORSDOF 5
ENDMDL
MODEL 9
REMARK VINA RESULT:      -5.9      2.465      9.278
REMARK  Name = 56774898
REMARK  6 active torsions:
REMARK  status: ('A' for Active; 'I' for Inactive)
REMARK    1  A    between atoms: O_2  and  C_10
REMARK    2  A    between atoms: N_5  and  C_15
REMARK    3  A    between atoms: N_6  and  C_20
REMARK    4  A    between atoms: C_9  and  C_10
REMARK    5  A    between atoms: C_10  and  C_12
REMARK    6  A    between atoms: C_21  and  C_22
REMARK                            x       y       z     vdW  Elec       q    Type
REMARK                         _______ _______ _______ _____ _____    ______ ____
ROOT
ATOM     12  C   UNL     1      19.616   7.188  20.825  0.00  0.00    -0.017 A 
ATOM     16  C   UNL     1      18.752   6.131  20.537  0.00  0.00    +0.008 A 
ATOM     17  C   UNL     1      19.113   8.374  21.359  0.00  0.00    +0.008 A 
ATOM     18  C   UNL     1      17.386   6.261  20.783  0.00  0.00    +0.023 A 
ATOM     19  C   UNL     1      17.747   8.504  21.605  0.00  0.00    +0.023 A 
ATOM     20  C   UNL     1      16.883   7.447  21.316  0.00  0.00    +0.034 A 
ENDROOT
BRANCH  20   6
ATOM      4  O   UNL     1      14.535   6.981  19.510  0.00  0.00    -0.268 OA
ATOM      6  N   UNL     1      15.515   7.577  21.563  0.00  0.00    -0.280 N 
ATOM     21  C   UNL     1      14.453   7.346  20.679  0.00  0.00    +0.268 C 
ATOM     27  H   UNL     1      15.268   7.874  22.505  0.00  0.00    +0.155 HD
BRANCH  21  22
ATOM      7  N   UNL     1      12.229   6.521  21.115  0.00  0.00    -0.247 NA
ATOM      8  N   UNL     1      11.513   8.912  22.393  0.00  0.00    -0.259 NA
ATOM     22  C   UNL     1      13.095   7.545  21.248  0.00  0.00    +0.144 A 
ATOM     23  C   UNL     1      12.743   8.719  21.875  0.00  0.00    +0.143 A 
ATOM     24  C   UNL     1      10.999   6.713  21.631  0.00  0.00    +0.131 A 
ATOM     25  C   UNL     1      10.648   7.888  22.259  0.00  0.00    +0.130 A 
ENDBRANCH  21  22
ENDBRANCH  20   6
BRANCH  12  10
ATOM     10  C   UNL     1      21.093   7.047  20.558  0.00  0.00    +0.167 C 
BRANCH  10   9
ATOM      1  O   UNL     1      23.868   6.118  20.366  0.00  0.00    -0.369 OA
ATOM      3  O   UNL     1      24.046   7.455  23.717  0.00  0.00    -0.273 OA
ATOM      5  N   UNL     1      22.258   6.423  22.641  0.00  0.00    -0.295 N 
ATOM      9  C   UNL     1      21.713   5.912  21.377  0.00  0.00    +0.134 C 
ATOM     11  C   UNL     1      22.806   5.200  20.589  0.00  0.00    +0.185 C 
ATOM     13  C   UNL     1      23.578   6.861  22.743  0.00  0.00    +0.241 C 
ATOM     14  C   UNL     1      24.487   6.479  21.581  0.00  0.00    +0.255 C 
ATOM     15  C   UNL     1      21.326   6.633  23.741  0.00  0.00    +0.132 C 
ENDBRANCH  10   9
BRANCH  10   2
ATOM      2  O   UNL     1      21.751   8.270  20.874  0.00  0.00    -0.385 OA
ATOM     26  H   UNL     1      22.556   8.067  21.381  0.00  0.00    +0.210 HD
ENDBRANCH  10   2
ENDBRANCH  12  10
TORSDOF 5
ENDMDL
MODEL 10
REMARK VINA RESULT:      -5.9     29.193     32.641
REMARK  Name = 56774898
REMARK  6 active torsions:
REMARK  status: ('A' for Active; 'I' for Inactive)
REMARK    1  A    between atoms: O_2  and  C_10
REMARK    2  A    between atoms: N_5  and  C_15
REMARK    3  A    between atoms: N_6  and  C_20
REMARK    4  A    between atoms: C_9  and  C_10
REMARK    5  A    between atoms: C_10  and  C_12
REMARK    6  A    between atoms: C_21  and  C_22
REMARK                            x       y       z     vdW  Elec       q    Type
REMARK                         _______ _______ _______ _____ _____    ______ ____
ROOT
ATOM     12  C   UNL     1      -9.010  -9.716  16.843  0.00  0.00    -0.017 A 
ATOM     16  C   UNL     1      -9.399  -9.934  15.522  0.00  0.00    +0.008 A 
ATOM     17  C   UNL     1      -9.386  -8.542  17.496  0.00  0.00    +0.008 A 
ATOM     18  C   UNL     1     -10.164  -8.980  14.853  0.00  0.00    +0.023 A 
ATOM     19  C   UNL     1     -10.152  -7.588  16.828  0.00  0.00    +0.023 A 
ATOM     20  C   UNL     1     -10.541  -7.806  15.506  0.00  0.00    +0.034 A 
ENDROOT
BRANCH  20   6
ATOM      4  O   UNL     1     -13.517  -7.545  15.247  0.00  0.00    -0.268 OA
ATOM      6  N   UNL     1     -11.308  -6.851  14.838  0.00  0.00    -0.280 N 
ATOM     21  C   UNL     1     -12.704  -6.774  14.747  0.00  0.00    +0.268 C 
ATOM     27  H   UNL     1     -10.778  -6.122  14.363  0.00  0.00    +0.155 HD
BRANCH  21  22
ATOM      7  N   UNL     1     -14.564  -5.573  13.789  0.00  0.00    -0.247 NA
ATOM      8  N   UNL     1     -12.859  -3.581  12.794  0.00  0.00    -0.259 NA
ATOM     22  C   UNL     1     -13.230  -5.615  13.981  0.00  0.00    +0.144 A 
ATOM     23  C   UNL     1     -12.394  -4.636  13.491  0.00  0.00    +0.143 A 
ATOM     24  C   UNL     1     -15.030  -4.519  13.091  0.00  0.00    +0.131 A 
ATOM     25  C   UNL     1     -14.193  -3.541  12.602  0.00  0.00    +0.130 A 
ENDBRANCH  21  22
ENDBRANCH  20   6
BRANCH  12  10
ATOM     10  C   UNL     1      -8.181 -10.748  17.565  0.00  0.00    +0.167 C 
BRANCH  10   9
ATOM      1  O   UNL     1      -6.319 -12.066  19.408  0.00  0.00    -0.369 OA
ATOM      3  O   UNL     1      -4.203 -12.115  16.481  0.00  0.00    -0.273 OA
ATOM      5  N   UNL     1      -5.762 -10.516  17.139  0.00  0.00    -0.295 N 
ATOM      9  C   UNL     1      -6.853 -10.168  18.059  0.00  0.00    +0.134 C 
ATOM     11  C   UNL     1      -6.527 -10.661  19.463  0.00  0.00    +0.185 C 
ATOM     13  C   UNL     1      -5.011 -11.678  17.304  0.00  0.00    +0.241 C 
ATOM     14  C   UNL     1      -5.171 -12.377  18.650  0.00  0.00    +0.255 C 
ATOM     15  C   UNL     1      -5.607  -9.704  15.939  0.00  0.00    +0.132 C 
ENDBRANCH  10   9
BRANCH  10   2
ATOM      2  O   UNL     1      -7.921 -11.843  16.692  0.00  0.00    -0.385 OA
ATOM     26  H   UNL     1      -8.744 -12.073  16.228  0.00  0.00    +0.210 HD
ENDBRANCH  10   2
ENDBRANCH  12  10
TORSDOF 5
ENDMDL
