MODEL 1
REMARK VINA RESULT:      -6.9      0.000      0.000
REMARK  Name = 45784183
REMARK  4 active torsions:
REMARK  status: ('A' for Active; 'I' for Inactive)
REMARK    1  A    between atoms: N_3  and  C_9
REMARK    2  A    between atoms: C_5  and  C_10
REMARK    3  A    between atoms: C_9  and  C_11
REMARK    4  A    between atoms: C_18  and  C_23
REMARK                            x       y       z     vdW  Elec       q    Type
REMARK                         _______ _______ _______ _____ _____    ______ ____
ROOT
ATOM      3  N   UNL     1      11.848   9.897  21.240  0.00  0.00    -0.297 NA
ATOM      5  C   UNL     1      13.860   9.481  20.110  0.00  0.00    +0.090 C 
ATOM      6  C   UNL     1      12.691   8.862  19.325  0.00  0.00    +0.029 C 
ATOM      7  C   UNL     1      13.284   9.770  21.503  0.00  0.00    +0.097 C 
ATOM      8  C   UNL     1      11.536   8.807  20.316  0.00  0.00    +0.085 C 
ENDROOT
BRANCH   5  10
ATOM      2  O   UNL     1      15.123   7.542  19.344  0.00  0.00    -0.439 OA
ATOM      4  N   UNL     1      16.198   8.823  20.874  0.00  0.00    -0.213 NA
ATOM     10  C   UNL     1      15.114   8.637  20.155  0.00  0.00    +0.201 A 
ATOM     12  C   UNL     1      16.999   7.764  20.517  0.00  0.00    +0.110 A 
ATOM     13  C   UNL     1      16.344   6.978  19.580  0.00  0.00    +0.155 A 
ATOM     16  C   UNL     1      18.287   7.394  20.931  0.00  0.00    +0.035 A 
ATOM     17  C   UNL     1      16.869   5.828  19.006  0.00  0.00    +0.049 A 
ATOM     18  C   UNL     1      18.851   6.238  20.373  0.00  0.00    -0.048 A 
ATOM     19  C   UNL     1      18.155   5.472  19.430  0.00  0.00    +0.007 A 
ATOM     23  C   UNL     1      20.220   5.817  20.794  0.00  0.00    +0.044 C 
ENDBRANCH   5  10
BRANCH   3   9
ATOM      9  C   UNL     1      11.054   9.836  22.459  0.00  0.00    +0.119 C 
BRANCH   9  11
ATOM      1 CL   UNL     1      10.801  15.028  22.087  0.00  0.00    -0.084 Cl
ATOM     11  C   UNL     1      10.976  11.174  23.144  0.00  0.00    -0.032 A 
ATOM     14  C   UNL     1      10.930  12.344  22.387  0.00  0.00    +0.025 A 
ATOM     15  C   UNL     1      10.949  11.244  24.537  0.00  0.00    +0.005 A 
ATOM     20  C   UNL     1      10.856  13.584  23.021  0.00  0.00    +0.041 A 
ATOM     21  C   UNL     1      10.876  12.483  25.173  0.00  0.00    +0.002 A 
ATOM     22  C   UNL     1      10.829  13.653  24.415  0.00  0.00    +0.020 A 
ENDBRANCH   9  11
ENDBRANCH   3   9
TORSDOF 3
ENDMDL
MODEL 2
REMARK VINA RESULT:      -6.9     17.543     20.567
REMARK  Name = 45784183
REMARK  4 active torsions:
REMARK  status: ('A' for Active; 'I' for Inactive)
REMARK    1  A    between atoms: N_3  and  C_9
REMARK    2  A    between atoms: C_5  and  C_10
REMARK    3  A    between atoms: C_9  and  C_11
REMARK    4  A    between atoms: C_18  and  C_23
REMARK                            x       y       z     vdW  Elec       q    Type
REMARK                         _______ _______ _______ _____ _____    ______ ____
ROOT
ATOM      3  N   UNL     1      11.973   4.263   1.444  0.00  0.00    -0.297 NA
ATOM      5  C   UNL     1      10.396   5.011   3.009  0.00  0.00    +0.090 C 
ATOM      6  C   UNL     1      11.160   6.215   2.434  0.00  0.00    +0.029 C 
ATOM      7  C   UNL     1      11.243   3.792   2.623  0.00  0.00    +0.097 C 
ATOM      8  C   UNL     1      12.403   5.620   1.784  0.00  0.00    +0.085 C 
ENDROOT
BRANCH   5  10
ATOM      2  O   UNL     1       9.705   6.300   4.959  0.00  0.00    -0.439 OA
ATOM      4  N   UNL     1      10.211   4.134   5.392  0.00  0.00    -0.213 NA
ATOM     10  C   UNL     1      10.114   5.088   4.492  0.00  0.00    +0.201 A 
ATOM     12  C   UNL     1       9.837   4.760   6.557  0.00  0.00    +0.110 A 
ATOM     13  C   UNL     1       9.527   6.087   6.296  0.00  0.00    +0.155 A 
ATOM     16  C   UNL     1       9.733   4.286   7.873  0.00  0.00    +0.035 A 
ATOM     17  C   UNL     1       9.111   7.006   7.251  0.00  0.00    +0.049 A 
ATOM     18  C   UNL     1       9.316   5.185   8.866  0.00  0.00    -0.048 A 
ATOM     19  C   UNL     1       9.012   6.517   8.559  0.00  0.00    +0.007 A 
ATOM     23  C   UNL     1       9.194   4.711  10.276  0.00  0.00    +0.044 C 
ENDBRANCH   5  10
BRANCH   3   9
ATOM      9  C   UNL     1      13.092   3.397   1.101  0.00  0.00    +0.119 C 
BRANCH   9  11
ATOM      1 CL   UNL     1      17.365   4.794  -1.534  0.00  0.00    -0.084 Cl
ATOM     11  C   UNL     1      13.727   3.793  -0.204  0.00  0.00    -0.032 A 
ATOM     14  C   UNL     1      15.092   4.076  -0.258  0.00  0.00    +0.025 A 
ATOM     15  C   UNL     1      12.952   3.875  -1.361  0.00  0.00    +0.005 A 
ATOM     20  C   UNL     1      15.681   4.442  -1.468  0.00  0.00    +0.041 A 
ATOM     21  C   UNL     1      13.541   4.241  -2.571  0.00  0.00    +0.002 A 
ATOM     22  C   UNL     1      14.905   4.524  -2.625  0.00  0.00    +0.020 A 
ENDBRANCH   9  11
ENDBRANCH   3   9
TORSDOF 3
ENDMDL
MODEL 3
REMARK VINA RESULT:      -6.9      2.632      8.156
REMARK  Name = 45784183
REMARK  4 active torsions:
REMARK  status: ('A' for Active; 'I' for Inactive)
REMARK    1  A    between atoms: N_3  and  C_9
REMARK    2  A    between atoms: C_5  and  C_10
REMARK    3  A    between atoms: C_9  and  C_11
REMARK    4  A    between atoms: C_18  and  C_23
REMARK                            x       y       z     vdW  Elec       q    Type
REMARK                         _______ _______ _______ _____ _____    ______ ____
ROOT
ATOM      3  N   UNL     1      13.182   7.975  19.611  0.00  0.00    -0.297 NA
ATOM      5  C   UNL     1      11.871   8.829  21.358  0.00  0.00    +0.090 C 
ATOM      6  C   UNL     1      10.973   8.501  20.153  0.00  0.00    +0.029 C 
ATOM      7  C   UNL     1      13.296   8.838  20.790  0.00  0.00    +0.097 C 
ATOM      8  C   UNL     1      11.928   8.373  18.973  0.00  0.00    +0.085 C 
ENDROOT
BRANCH   5  10
ATOM      2  O   UNL     1      11.452  10.020  23.443  0.00  0.00    -0.439 OA
ATOM      4  N   UNL     1      11.266  11.292  21.577  0.00  0.00    -0.213 NA
ATOM     10  C   UNL     1      11.518  10.107  22.085  0.00  0.00    +0.201 A 
ATOM     12  C   UNL     1      11.010  12.063  22.685  0.00  0.00    +0.110 A 
ATOM     13  C   UNL     1      11.123  11.287  23.830  0.00  0.00    +0.155 A 
ATOM     16  C   UNL     1      10.676  13.419  22.815  0.00  0.00    +0.035 A 
ATOM     17  C   UNL     1      10.929  11.752  25.124  0.00  0.00    +0.049 A 
ATOM     18  C   UNL     1      10.472  13.926  24.107  0.00  0.00    -0.048 A 
ATOM     19  C   UNL     1      10.596  13.108  25.237  0.00  0.00    +0.007 A 
ATOM     23  C   UNL     1      10.115  15.365  24.280  0.00  0.00    +0.044 C 
ENDBRANCH   5  10
BRANCH   3   9
ATOM      9  C   UNL     1      14.324   8.103  18.718  0.00  0.00    +0.119 C 
BRANCH   9  11
ATOM      1 CL   UNL     1      18.325   9.214  21.868  0.00  0.00    -0.084 Cl
ATOM     11  C   UNL     1      15.604   7.664  19.378  0.00  0.00    -0.032 A 
ATOM     14  C   UNL     1      16.291   8.540  20.219  0.00  0.00    +0.025 A 
ATOM     15  C   UNL     1      16.103   6.382  19.149  0.00  0.00    +0.005 A 
ATOM     20  C   UNL     1      17.476   8.133  20.832  0.00  0.00    +0.041 A 
ATOM     21  C   UNL     1      17.288   5.975  19.761  0.00  0.00    +0.002 A 
ATOM     22  C   UNL     1      17.974   6.850  20.603  0.00  0.00    +0.020 A 
ENDBRANCH   9  11
ENDBRANCH   3   9
TORSDOF 3
ENDMDL
MODEL 4
REMARK VINA RESULT:      -6.8     27.319     29.798
REMARK  Name = 45784183
REMARK  4 active torsions:
REMARK  status: ('A' for Active; 'I' for Inactive)
REMARK    1  A    between atoms: N_3  and  C_9
REMARK    2  A    between atoms: C_5  and  C_10
REMARK    3  A    between atoms: C_9  and  C_11
REMARK    4  A    between atoms: C_18  and  C_23
REMARK                            x       y       z     vdW  Elec       q    Type
REMARK                         _______ _______ _______ _____ _____    ______ ____
ROOT
ATOM      3  N   UNL     1      -4.028 -10.859  14.903  0.00  0.00    -0.297 NA
ATOM      5  C   UNL     1      -5.398  -9.819  16.497  0.00  0.00    +0.090 C 
ATOM      6  C   UNL     1      -4.343 -10.683  17.209  0.00  0.00    +0.029 C 
ATOM      7  C   UNL     1      -5.375 -10.301  15.040  0.00  0.00    +0.097 C 
ATOM      8  C   UNL     1      -3.807 -11.618  16.133  0.00  0.00    +0.085 C 
ENDROOT
BRANCH   5  10
ATOM      2  O   UNL     1      -6.931 -10.712  18.168  0.00  0.00    -0.439 OA
ATOM      4  N   UNL     1      -7.852  -9.193  16.760  0.00  0.00    -0.213 NA
ATOM     10  C   UNL     1      -6.778  -9.865  17.112  0.00  0.00    +0.201 A 
ATOM     12  C   UNL     1      -8.802  -9.626  17.654  0.00  0.00    +0.110 A 
ATOM     13  C   UNL     1      -8.241 -10.556  18.518  0.00  0.00    +0.155 A 
ATOM     16  C   UNL     1     -10.154  -9.288  17.806  0.00  0.00    +0.035 A 
ATOM     17  C   UNL     1      -8.924 -11.194  19.544  0.00  0.00    +0.049 A 
ATOM     18  C   UNL     1     -10.878  -9.912  18.833  0.00  0.00    -0.048 A 
ATOM     19  C   UNL     1     -10.273 -10.846  19.684  0.00  0.00    +0.007 A 
ATOM     23  C   UNL     1     -12.319  -9.573  19.022  0.00  0.00    +0.044 C 
ENDBRANCH   5  10
BRANCH   3   9
ATOM      9  C   UNL     1      -3.887 -11.681  13.710  0.00  0.00    +0.119 C 
BRANCH   9  11
ATOM      1 CL   UNL     1      -0.401  -8.866  11.049  0.00  0.00    -0.084 Cl
ATOM     11  C   UNL     1      -3.555 -10.856  12.496  0.00  0.00    -0.032 A 
ATOM     14  C   UNL     1      -2.281 -10.308  12.352  0.00  0.00    +0.025 A 
ATOM     15  C   UNL     1      -4.522 -10.639  11.514  0.00  0.00    +0.005 A 
ATOM     20  C   UNL     1      -1.973  -9.544  11.226  0.00  0.00    +0.041 A 
ATOM     21  C   UNL     1      -4.215  -9.875  10.389  0.00  0.00    +0.002 A 
ATOM     22  C   UNL     1      -2.941  -9.328  10.244  0.00  0.00    +0.020 A 
ENDBRANCH   9  11
ENDBRANCH   3   9
TORSDOF 3
ENDMDL
MODEL 5
REMARK VINA RESULT:      -6.7      3.656      5.636
REMARK  Name = 45784183
REMARK  4 active torsions:
REMARK  status: ('A' for Active; 'I' for Inactive)
REMARK    1  A    between atoms: N_3  and  C_9
REMARK    2  A    between atoms: C_5  and  C_10
REMARK    3  A    between atoms: C_9  and  C_11
REMARK    4  A    between atoms: C_18  and  C_23
REMARK                            x       y       z     vdW  Elec       q    Type
REMARK                         _______ _______ _______ _____ _____    ______ ____
ROOT
ATOM      3  N   UNL     1      16.232   7.601  20.598  0.00  0.00    -0.297 NA
ATOM      5  C   UNL     1      18.305   6.676  20.012  0.00  0.00    +0.090 C 
ATOM      6  C   UNL     1      17.176   5.872  19.345  0.00  0.00    +0.029 C 
ATOM      7  C   UNL     1      17.605   7.502  21.099  0.00  0.00    +0.097 C 
ATOM      8  C   UNL     1      15.913   6.262  20.104  0.00  0.00    +0.085 C 
ENDROOT
BRANCH   5  10
ATOM      2  O   UNL     1      20.074   6.334  21.654  0.00  0.00    -0.439 OA
ATOM      4  N   UNL     1      19.913   4.703  20.089  0.00  0.00    -0.213 NA
ATOM     10  C   UNL     1      19.447   5.842  20.549  0.00  0.00    +0.201 A 
ATOM     12  C   UNL     1      20.938   4.407  20.956  0.00  0.00    +0.110 A 
ATOM     13  C   UNL     1      21.039   5.404  21.915  0.00  0.00    +0.155 A 
ATOM     16  C   UNL     1      21.827   3.325  21.006  0.00  0.00    +0.035 A 
ATOM     17  C   UNL     1      21.971   5.419  22.945  0.00  0.00    +0.049 A 
ATOM     18  C   UNL     1      22.783   3.304  22.032  0.00  0.00    -0.048 A 
ATOM     19  C   UNL     1      22.851   4.331  22.981  0.00  0.00    +0.007 A 
ATOM     23  C   UNL     1      23.745   2.165  22.112  0.00  0.00    +0.044 C 
ENDBRANCH   5  10
BRANCH   3   9
ATOM      9  C   UNL     1      15.299   8.051  21.621  0.00  0.00    +0.119 C 
BRANCH   9  11
ATOM      1 CL   UNL     1      10.171   7.190  21.964  0.00  0.00    -0.084 Cl
ATOM     11  C   UNL     1      13.918   8.266  21.065  0.00  0.00    -0.032 A 
ATOM     14  C   UNL     1      12.813   7.696  21.698  0.00  0.00    +0.025 A 
ATOM     15  C   UNL     1      13.740   9.036  19.915  0.00  0.00    +0.005 A 
ATOM     20  C   UNL     1      11.533   7.896  21.183  0.00  0.00    +0.041 A 
ATOM     21  C   UNL     1      12.460   9.237  19.399  0.00  0.00    +0.002 A 
ATOM     22  C   UNL     1      11.356   8.667  20.033  0.00  0.00    +0.020 A 
ENDBRANCH   9  11
ENDBRANCH   3   9
TORSDOF 3
ENDMDL
MODEL 6
REMARK VINA RESULT:      -6.7     17.895     20.716
REMARK  Name = 45784183
REMARK  4 active torsions:
REMARK  status: ('A' for Active; 'I' for Inactive)
REMARK    1  A    between atoms: N_3  and  C_9
REMARK    2  A    between atoms: C_5  and  C_10
REMARK    3  A    between atoms: C_9  and  C_11
REMARK    4  A    between atoms: C_18  and  C_23
REMARK                            x       y       z     vdW  Elec       q    Type
REMARK                         _______ _______ _______ _____ _____    ______ ____
ROOT
ATOM      3  N   UNL     1      11.480   5.780   1.141  0.00  0.00    -0.297 NA
ATOM      5  C   UNL     1      10.072   6.286   2.947  0.00  0.00    +0.090 C 
ATOM      6  C   UNL     1      10.903   7.527   2.578  0.00  0.00    +0.029 C 
ATOM      7  C   UNL     1      10.784   5.120   2.249  0.00  0.00    +0.097 C 
ATOM      8  C   UNL     1      12.047   6.997   1.723  0.00  0.00    +0.085 C 
ENDROOT
BRANCH   5  10
ATOM      2  O   UNL     1       9.329   7.093   5.123  0.00  0.00    -0.439 OA
ATOM      4  N   UNL     1      10.199   5.000   5.140  0.00  0.00    -0.213 NA
ATOM     10  C   UNL     1       9.889   6.062   4.430  0.00  0.00    +0.201 A 
ATOM     12  C   UNL     1       9.817   5.349   6.414  0.00  0.00    +0.110 A 
ATOM     13  C   UNL     1       9.283   6.630   6.407  0.00  0.00    +0.155 A 
ATOM     16  C   UNL     1       9.882   4.648   7.626  0.00  0.00    +0.035 A 
ATOM     17  C   UNL     1       8.799   7.291   7.528  0.00  0.00    +0.049 A 
ATOM     18  C   UNL     1       9.402   5.283   8.781  0.00  0.00    -0.048 A 
ATOM     19  C   UNL     1       8.871   6.578   8.730  0.00  0.00    +0.007 A 
ATOM     23  C   UNL     1       9.458   4.564  10.088  0.00  0.00    +0.044 C 
ENDBRANCH   5  10
BRANCH   3   9
ATOM      9  C   UNL     1      12.496   4.928   0.538  0.00  0.00    +0.119 C 
BRANCH   9  11
ATOM      1 CL   UNL     1       9.056   4.657  -3.368  0.00  0.00    -0.084 Cl
ATOM     11  C   UNL     1      11.968   4.192  -0.663  0.00  0.00    -0.032 A 
ATOM     14  C   UNL     1      10.884   4.706  -1.376  0.00  0.00    +0.025 A 
ATOM     15  C   UNL     1      12.562   2.996  -1.066  0.00  0.00    +0.005 A 
ATOM     20  C   UNL     1      10.395   4.024  -2.490  0.00  0.00    +0.041 A 
ATOM     21  C   UNL     1      12.074   2.314  -2.180  0.00  0.00    +0.002 A 
ATOM     22  C   UNL     1      10.991   2.828  -2.892  0.00  0.00    +0.020 A 
ENDBRANCH   9  11
ENDBRANCH   3   9
TORSDOF 3
ENDMDL
MODEL 7
REMARK VINA RESULT:      -6.5     27.326     30.036
REMARK  Name = 45784183
REMARK  4 active torsions:
REMARK  status: ('A' for Active; 'I' for Inactive)
REMARK    1  A    between atoms: N_3  and  C_9
REMARK    2  A    between atoms: C_5  and  C_10
REMARK    3  A    between atoms: C_9  and  C_11
REMARK    4  A    between atoms: C_18  and  C_23
REMARK                            x       y       z     vdW  Elec       q    Type
REMARK                         _______ _______ _______ _____ _____    ______ ____
ROOT
ATOM      3  N   UNL     1      -4.667 -11.562  17.363  0.00  0.00    -0.297 NA
ATOM      5  C   UNL     1      -6.430 -10.328  18.296  0.00  0.00    +0.090 C 
ATOM      6  C   UNL     1      -6.121 -11.541  19.189  0.00  0.00    +0.029 C 
ATOM      7  C   UNL     1      -5.732 -10.638  16.965  0.00  0.00    +0.097 C 
ATOM      8  C   UNL     1      -5.298 -12.477  18.314  0.00  0.00    +0.085 C 
ENDROOT
BRANCH   5  10
ATOM      2  O   UNL     1      -8.196  -8.913  17.391  0.00  0.00    -0.439 OA
ATOM      4  N   UNL     1      -8.932 -10.674  18.612  0.00  0.00    -0.213 NA
ATOM     10  C   UNL     1      -7.900 -10.017  18.132  0.00  0.00    +0.201 A 
ATOM     12  C   UNL     1     -10.008  -9.950  18.156  0.00  0.00    +0.110 A 
ATOM     13  C   UNL     1      -9.561  -8.871  17.408  0.00  0.00    +0.155 A 
ATOM     16  C   UNL     1     -11.388 -10.133  18.325  0.00  0.00    +0.035 A 
ATOM     17  C   UNL     1     -10.385  -7.934  16.798  0.00  0.00    +0.049 A 
ATOM     18  C   UNL     1     -12.253  -9.207  17.725  0.00  0.00    -0.048 A 
ATOM     19  C   UNL     1     -11.760  -8.131  16.976  0.00  0.00    +0.007 A 
ATOM     23  C   UNL     1     -13.728  -9.373  17.886  0.00  0.00    +0.044 C 
ENDBRANCH   5  10
BRANCH   3   9
ATOM      9  C   UNL     1      -4.083 -12.259  16.226  0.00  0.00    +0.119 C 
BRANCH   9  11
ATOM      1 CL   UNL     1      -2.355 -10.236  11.745  0.00  0.00    -0.084 Cl
ATOM     11  C   UNL     1      -3.077 -11.405  15.502  0.00  0.00    -0.032 A 
ATOM     14  C   UNL     1      -3.171 -11.236  14.121  0.00  0.00    +0.025 A 
ATOM     15  C   UNL     1      -2.051 -10.782  16.212  0.00  0.00    +0.005 A 
ATOM     20  C   UNL     1      -2.240 -10.444  13.450  0.00  0.00    +0.041 A 
ATOM     21  C   UNL     1      -1.119  -9.990  15.542  0.00  0.00    +0.002 A 
ATOM     22  C   UNL     1      -1.214  -9.820  14.161  0.00  0.00    +0.020 A 
ENDBRANCH   9  11
ENDBRANCH   3   9
TORSDOF 3
ENDMDL
MODEL 8
REMARK VINA RESULT:      -6.5      3.684      9.150
REMARK  Name = 45784183
REMARK  4 active torsions:
REMARK  status: ('A' for Active; 'I' for Inactive)
REMARK    1  A    between atoms: N_3  and  C_9
REMARK    2  A    between atoms: C_5  and  C_10
REMARK    3  A    between atoms: C_9  and  C_11
REMARK    4  A    between atoms: C_18  and  C_23
REMARK                            x       y       z     vdW  Elec       q    Type
REMARK                         _______ _______ _______ _____ _____    ______ ____
ROOT
ATOM      3  N   UNL     1      17.980   6.344  20.680  0.00  0.00    -0.297 NA
ATOM      5  C   UNL     1      15.716   6.723  21.156  0.00  0.00    +0.090 C 
ATOM      6  C   UNL     1      15.859   6.199  19.717  0.00  0.00    +0.029 C 
ATOM      7  C   UNL     1      17.132   7.159  21.554  0.00  0.00    +0.097 C 
ATOM      8  C   UNL     1      17.329   6.393  19.371  0.00  0.00    +0.085 C 
ENDROOT
BRANCH   5  10
ATOM      2  O   UNL     1      13.486   7.431  21.840  0.00  0.00    -0.439 OA
ATOM      4  N   UNL     1      14.809   9.100  21.066  0.00  0.00    -0.213 NA
ATOM     10  C   UNL     1      14.690   7.819  21.335  0.00  0.00    +0.201 A 
ATOM     12  C   UNL     1      13.583   9.612  21.420  0.00  0.00    +0.110 A 
ATOM     13  C   UNL     1      12.771   8.593  21.894  0.00  0.00    +0.155 A 
ATOM     16  C   UNL     1      13.075  10.918  21.374  0.00  0.00    +0.035 A 
ATOM     17  C   UNL     1      11.466   8.762  22.338  0.00  0.00    +0.049 A 
ATOM     18  C   UNL     1      11.760  11.129  21.813  0.00  0.00    -0.048 A 
ATOM     19  C   UNL     1      10.973  10.072  22.285  0.00  0.00    +0.007 A 
ATOM     23  C   UNL     1      11.190  12.509  21.777  0.00  0.00    +0.044 C 
ENDBRANCH   5  10
BRANCH   3   9
ATOM      9  C   UNL     1      19.354   6.825  20.635  0.00  0.00    +0.119 C 
BRANCH   9  11
ATOM      1 CL   UNL     1      22.684   5.401  24.382  0.00  0.00    -0.084 Cl
ATOM     11  C   UNL     1      20.321   5.809  21.180  0.00  0.00    -0.032 A 
ATOM     14  C   UNL     1      20.977   6.047  22.388  0.00  0.00    +0.025 A 
ATOM     15  C   UNL     1      20.562   4.628  20.477  0.00  0.00    +0.005 A 
ATOM     20  C   UNL     1      21.873   5.106  22.893  0.00  0.00    +0.041 A 
ATOM     21  C   UNL     1      21.458   3.686  20.982  0.00  0.00    +0.002 A 
ATOM     22  C   UNL     1      22.113   3.924  22.190  0.00  0.00    +0.020 A 
ENDBRANCH   9  11
ENDBRANCH   3   9
TORSDOF 3
ENDMDL
MODEL 9
REMARK VINA RESULT:      -6.4      3.225      4.429
REMARK  Name = 45784183
REMARK  4 active torsions:
REMARK  status: ('A' for Active; 'I' for Inactive)
REMARK    1  A    between atoms: N_3  and  C_9
REMARK    2  A    between atoms: C_5  and  C_10
REMARK    3  A    between atoms: C_9  and  C_11
REMARK    4  A    between atoms: C_18  and  C_23
REMARK                            x       y       z     vdW  Elec       q    Type
REMARK                         _______ _______ _______ _____ _____    ______ ____
ROOT
ATOM      3  N   UNL     1      14.846   9.543  20.589  0.00  0.00    -0.297 NA
ATOM      5  C   UNL     1      16.893   9.037  21.615  0.00  0.00    +0.090 C 
ATOM      6  C   UNL     1      17.059  10.274  20.716  0.00  0.00    +0.029 C 
ATOM      7  C   UNL     1      15.567   8.406  21.167  0.00  0.00    +0.097 C 
ATOM      8  C   UNL     1      15.845  10.260  19.797  0.00  0.00    +0.085 C 
ENDROOT
BRANCH   5  10
ATOM      2  O   UNL     1      17.974   7.083  20.637  0.00  0.00    -0.439 OA
ATOM      4  N   UNL     1      19.123   8.044  22.338  0.00  0.00    -0.213 NA
ATOM     10  C   UNL     1      18.050   8.065  21.578  0.00  0.00    +0.201 A 
ATOM     12  C   UNL     1      19.822   6.958  21.867  0.00  0.00    +0.110 A 
ATOM     13  C   UNL     1      19.121   6.367  20.825  0.00  0.00    +0.155 A 
ATOM     16  C   UNL     1      21.049   6.404  22.259  0.00  0.00    +0.035 A 
ATOM     17  C   UNL     1      19.544   5.247  20.122  0.00  0.00    +0.049 A 
ATOM     18  C   UNL     1      21.510   5.271  21.572  0.00  0.00    -0.048 A 
ATOM     19  C   UNL     1      20.771   4.706  20.525  0.00  0.00    +0.007 A 
ATOM     23  C   UNL     1      22.813   4.658  21.964  0.00  0.00    +0.044 C 
ENDBRANCH   5  10
BRANCH   3   9
ATOM      9  C   UNL     1      13.701   9.125  19.792  0.00  0.00    +0.119 C 
BRANCH   9  11
ATOM      1 CL   UNL     1      10.892   5.142  21.637  0.00  0.00    -0.084 Cl
ATOM     11  C   UNL     1      12.566   8.640  20.653  0.00  0.00    -0.032 A 
ATOM     14  C   UNL     1      12.288   7.275  20.737  0.00  0.00    +0.025 A 
ATOM     15  C   UNL     1      11.793   9.554  21.369  0.00  0.00    +0.005 A 
ATOM     20  C   UNL     1      11.237   6.825  21.536  0.00  0.00    +0.041 A 
ATOM     21  C   UNL     1      10.741   9.105  22.167  0.00  0.00    +0.002 A 
ATOM     22  C   UNL     1      10.463   7.740  22.251  0.00  0.00    +0.020 A 
ENDBRANCH   9  11
ENDBRANCH   3   9
TORSDOF 3
ENDMDL
MODEL 10
REMARK VINA RESULT:      -6.4     26.047     29.087
REMARK  Name = 45784183
REMARK  4 active torsions:
REMARK  status: ('A' for Active; 'I' for Inactive)
REMARK    1  A    between atoms: N_3  and  C_9
REMARK    2  A    between atoms: C_5  and  C_10
REMARK    3  A    between atoms: C_9  and  C_11
REMARK    4  A    between atoms: C_18  and  C_23
REMARK                            x       y       z     vdW  Elec       q    Type
REMARK                         _______ _______ _______ _____ _____    ______ ____
ROOT
ATOM      3  N   UNL     1     -13.245   7.233  20.932  0.00  0.00    -0.297 NA
ATOM      5  C   UNL     1     -15.029   5.854  21.575  0.00  0.00    +0.090 C 
ATOM      6  C   UNL     1     -15.392   7.324  21.846  0.00  0.00    +0.029 C 
ATOM      7  C   UNL     1     -13.509   5.860  21.369  0.00  0.00    +0.097 C 
ATOM      8  C   UNL     1     -14.065   8.071  21.807  0.00  0.00    +0.085 C 
ENDROOT
BRANCH   5  10
ATOM      2  O   UNL     1     -16.392   3.952  22.257  0.00  0.00    -0.439 OA
ATOM      4  N   UNL     1     -15.094   4.819  23.900  0.00  0.00    -0.213 NA
ATOM     10  C   UNL     1     -15.476   4.883  22.644  0.00  0.00    +0.201 A 
ATOM     12  C   UNL     1     -15.814   3.758  24.396  0.00  0.00    +0.110 A 
ATOM     13  C   UNL     1     -16.610   3.225  23.392  0.00  0.00    +0.155 A 
ATOM     16  C   UNL     1     -15.856   3.181  25.673  0.00  0.00    +0.035 A 
ATOM     17  C   UNL     1     -17.465   2.142  23.551  0.00  0.00    +0.049 A 
ATOM     18  C   UNL     1     -16.708   2.085  25.873  0.00  0.00    -0.048 A 
ATOM     19  C   UNL     1     -17.495   1.577  24.832  0.00  0.00    +0.007 A 
ATOM     23  C   UNL     1     -16.775   1.448  27.222  0.00  0.00    +0.044 C 
ENDBRANCH   5  10
BRANCH   3   9
ATOM      9  C   UNL     1     -11.832   7.575  21.000  0.00  0.00    +0.119 C 
BRANCH   9  11
ATOM      1 CL   UNL     1     -10.031  11.537  18.133  0.00  0.00    -0.084 Cl
ATOM     11  C   UNL     1     -11.313   8.077  19.680  0.00  0.00    -0.032 A 
ATOM     14  C   UNL     1     -10.954   9.418  19.535  0.00  0.00    +0.025 A 
ATOM     15  C   UNL     1     -11.189   7.203  18.600  0.00  0.00    +0.005 A 
ATOM     20  C   UNL     1     -10.472   9.883  18.312  0.00  0.00    +0.041 A 
ATOM     21  C   UNL     1     -10.707   7.667  17.377  0.00  0.00    +0.002 A 
ATOM     22  C   UNL     1     -10.348   9.007  17.233  0.00  0.00    +0.020 A 
ENDBRANCH   9  11
ENDBRANCH   3   9
TORSDOF 3
ENDMDL
