MODEL 1
REMARK VINA RESULT:      -7.4      0.000      0.000
REMARK  Name = 71693182
REMARK  12 active torsions:
REMARK  status: ('A' for Active; 'I' for Inactive)
REMARK    1  A    between atoms: O_1  and  C_31
REMARK    2  A    between atoms: O_1  and  C_32
REMARK    3  A    between atoms: N_3  and  C_11
REMARK    4  A    between atoms: N_3  and  C_14
REMARK    5  A    between atoms: C_6  and  C_10
REMARK    6  A    between atoms: C_7  and  C_11
REMARK    7  A    between atoms: C_9  and  C_15
REMARK    8  A    between atoms: C_10  and  C_18
REMARK    9  A    between atoms: C_10  and  C_19
REMARK   10  A    between atoms: C_12  and  C_22
REMARK   11  A    between atoms: C_15  and  C_24
REMARK   12  A    between atoms: C_29  and  C_31
REMARK                            x       y       z     vdW  Elec       q    Type
REMARK                         _______ _______ _______ _____ _____    ______ ____
ROOT
ATOM      6  C   UNL     1     -13.794   8.600  20.795  0.00  0.00    +0.000 C 
ATOM      7  C   UNL     1     -12.475   8.001  20.251  0.00  0.00    +0.029 C 
ATOM      8  C   UNL     1     -14.848   7.499  20.982  0.00  0.00    +0.012 C 
ATOM      9  C   UNL     1     -14.381   6.357  21.908  0.00  0.00    +0.022 C 
ATOM     12  C   UNL     1     -12.923   5.979  21.701  0.00  0.00    -0.073 C 
ATOM     13  C   UNL     1     -12.091   6.720  20.947  0.00  0.00    -0.023 C 
ATOM     22  C   UNL     1     -12.410   4.762  22.423  0.00  0.00    +0.039 C 
ENDROOT
BRANCH   6  10
ATOM     10  C   UNL     1     -13.559   9.371  22.102  0.00  0.00    -0.013 C 
ATOM     18  C   UNL     1     -12.462  10.414  21.914  0.00  0.00    +0.007 C 
ATOM     19  C   UNL     1     -14.855  10.027  22.570  0.00  0.00    +0.007 C 
ENDBRANCH   6  10
BRANCH   7  11
ATOM     11  C   UNL     1     -12.548   7.751  18.741  0.00  0.00    +0.089 C 
BRANCH  11   3
ATOM      3  N   UNL     1     -11.274   7.265  18.240  0.00  0.00    -0.313 NA
ATOM     33  H   UNL     1     -11.418   6.368  17.778  0.00  0.00    +0.122 HD
BRANCH   3  14
ATOM     14  C   UNL     1     -10.668   8.228  17.323  0.00  0.00    +0.054 C 
ATOM     16  C   UNL     1     -10.361   9.533  18.067  0.00  0.00    +0.019 C 
ATOM     17  C   UNL     1     -11.602   8.476  16.134  0.00  0.00    +0.019 C 
ATOM     20  C   UNL     1      -9.795  10.591  17.121  0.00  0.00    +0.002 C 
ATOM     21  C   UNL     1     -11.035   9.536  15.192  0.00  0.00    +0.002 C 
ATOM     23  C   UNL     1     -10.717  10.833  15.930  0.00  0.00    +0.000 C 
ENDBRANCH   3  14
ENDBRANCH  11   3
ENDBRANCH   7  11
BRANCH   9  15
ATOM     15  C   UNL     1     -15.335   5.168  21.737  0.00  0.00    +0.082 C 
BRANCH  15  24
ATOM      4  N   UNL     1     -15.748   3.265  23.308  0.00  0.00    -0.342 N 
ATOM      5  N   UNL     1     -16.176   5.294  24.108  0.00  0.00    -0.232 NA
ATOM     24  C   UNL     1     -15.760   4.609  23.065  0.00  0.00    +0.109 A 
ATOM     25  C   UNL     1     -16.185   3.067  24.593  0.00  0.00    +0.067 A 
ATOM     26  C   UNL     1     -16.445   4.349  25.071  0.00  0.00    +0.089 A 
ATOM     27  C   UNL     1     -16.368   1.913  25.355  0.00  0.00    +0.042 A 
ATOM     28  C   UNL     1     -16.917   4.507  26.384  0.00  0.00    +0.030 A 
ATOM     29  C   UNL     1     -16.839   2.088  26.661  0.00  0.00    +0.061 A 
ATOM     30  C   UNL     1     -17.109   3.362  27.168  0.00  0.00    +0.017 A 
ATOM     34  H   UNL     1     -15.466   2.542  22.659  0.00  0.00    +0.167 HD
BRANCH  29  31
ATOM      2  O   UNL     1     -18.120   0.306  27.591  0.00  0.00    -0.245 OA
ATOM     31  C   UNL     1     -17.050   0.922  27.503  0.00  0.00    +0.339 C 
BRANCH  31   1
ATOM      1  O   UNL     1     -15.915   0.586  28.190  0.00  0.00    -0.464 OA
ATOM     32  C   UNL     1     -15.940   0.772  29.610  0.00  0.00    +0.280 C 
ENDBRANCH  31   1
ENDBRANCH  29  31
ENDBRANCH  15  24
ENDBRANCH   9  15
TORSDOF 8
ENDMDL
MODEL 2
REMARK VINA RESULT:      -7.0     20.743     23.273
REMARK  Name = 71693182
REMARK  12 active torsions:
REMARK  status: ('A' for Active; 'I' for Inactive)
REMARK    1  A    between atoms: O_1  and  C_31
REMARK    2  A    between atoms: O_1  and  C_32
REMARK    3  A    between atoms: N_3  and  C_11
REMARK    4  A    between atoms: N_3  and  C_14
REMARK    5  A    between atoms: C_6  and  C_10
REMARK    6  A    between atoms: C_7  and  C_11
REMARK    7  A    between atoms: C_9  and  C_15
REMARK    8  A    between atoms: C_10  and  C_18
REMARK    9  A    between atoms: C_10  and  C_19
REMARK   10  A    between atoms: C_12  and  C_22
REMARK   11  A    between atoms: C_15  and  C_24
REMARK   12  A    between atoms: C_29  and  C_31
REMARK                            x       y       z     vdW  Elec       q    Type
REMARK                         _______ _______ _______ _____ _____    ______ ____
ROOT
ATOM      6  C   UNL     1      -5.047 -12.269  15.615  0.00  0.00    +0.000 C 
ATOM      7  C   UNL     1      -4.898 -10.762  15.926  0.00  0.00    +0.029 C 
ATOM      8  C   UNL     1      -4.059 -12.693  14.518  0.00  0.00    +0.012 C 
ATOM      9  C   UNL     1      -2.589 -12.382  14.866  0.00  0.00    +0.022 C 
ATOM     12  C   UNL     1      -2.411 -11.044  15.567  0.00  0.00    -0.073 C 
ATOM     13  C   UNL     1      -3.457 -10.330  16.022  0.00  0.00    -0.023 C 
ATOM     22  C   UNL     1      -1.005 -10.559  15.794  0.00  0.00    +0.039 C 
ENDROOT
BRANCH   6  10
ATOM     10  C   UNL     1      -4.868 -13.121  16.880  0.00  0.00    -0.013 C 
ATOM     18  C   UNL     1      -5.721 -12.568  18.018  0.00  0.00    +0.007 C 
ATOM     19  C   UNL     1      -5.224 -14.577  16.595  0.00  0.00    +0.007 C 
ENDBRANCH   6  10
BRANCH   7  11
ATOM     11  C   UNL     1      -5.614  -9.896  14.884  0.00  0.00    +0.089 C 
BRANCH  11   3
ATOM      3  N   UNL     1      -7.049 -10.120  14.929  0.00  0.00    -0.313 NA
ATOM     33  H   UNL     1      -7.476  -9.420  15.534  0.00  0.00    +0.122 HD
BRANCH   3  14
ATOM     14  C   UNL     1      -7.631 -10.071  13.590  0.00  0.00    +0.054 C 
ATOM     16  C   UNL     1      -7.982 -11.488  13.124  0.00  0.00    +0.019 C 
ATOM     17  C   UNL     1      -6.655  -9.396  12.621  0.00  0.00    +0.019 C 
ATOM     20  C   UNL     1      -8.525 -11.485  11.695  0.00  0.00    +0.002 C 
ATOM     21  C   UNL     1      -7.199  -9.396  11.194  0.00  0.00    +0.002 C 
ATOM     23  C   UNL     1      -7.561 -10.804  10.729  0.00  0.00    +0.000 C 
ENDBRANCH   3  14
ENDBRANCH  11   3
ENDBRANCH   7  11
BRANCH   9  15
ATOM     15  C   UNL     1      -1.747 -12.502  13.589  0.00  0.00    +0.082 C 
BRANCH  15  24
ATOM      4  N   UNL     1      -3.031 -12.380  11.445  0.00  0.00    -0.342 N 
ATOM      5  N   UNL     1      -2.347 -10.437  12.279  0.00  0.00    -0.232 NA
ATOM     24  C   UNL     1      -2.365 -11.739  12.452  0.00  0.00    +0.109 A 
ATOM     25  C   UNL     1      -3.475 -11.427  10.565  0.00  0.00    +0.067 A 
ATOM     26  C   UNL     1      -3.036 -10.222  11.108  0.00  0.00    +0.089 A 
ATOM     27  C   UNL     1      -4.201 -11.512   9.377  0.00  0.00    +0.042 A 
ATOM     28  C   UNL     1      -3.329  -9.022  10.439  0.00  0.00    +0.030 A 
ATOM     29  C   UNL     1      -4.485 -10.308   8.723  0.00  0.00    +0.061 A 
ATOM     30  C   UNL     1      -4.057  -9.084   9.244  0.00  0.00    +0.017 A 
ATOM     34  H   UNL     1      -3.176 -13.377  11.362  0.00  0.00    +0.167 HD
BRANCH  29  31
ATOM      2  O   UNL     1      -6.193  -9.589   7.223  0.00  0.00    -0.245 OA
ATOM     31  C   UNL     1      -5.238 -10.333   7.479  0.00  0.00    +0.339 C 
BRANCH  31   1
ATOM      1  O   UNL     1      -4.759 -11.286   6.622  0.00  0.00    -0.464 OA
ATOM     32  C   UNL     1      -5.284 -11.280   5.290  0.00  0.00    +0.280 C 
ENDBRANCH  31   1
ENDBRANCH  29  31
ENDBRANCH  15  24
ENDBRANCH   9  15
TORSDOF 8
ENDMDL
MODEL 3
REMARK VINA RESULT:      -7.0     21.639     24.557
REMARK  Name = 71693182
REMARK  12 active torsions:
REMARK  status: ('A' for Active; 'I' for Inactive)
REMARK    1  A    between atoms: O_1  and  C_31
REMARK    2  A    between atoms: O_1  and  C_32
REMARK    3  A    between atoms: N_3  and  C_11
REMARK    4  A    between atoms: N_3  and  C_14
REMARK    5  A    between atoms: C_6  and  C_10
REMARK    6  A    between atoms: C_7  and  C_11
REMARK    7  A    between atoms: C_9  and  C_15
REMARK    8  A    between atoms: C_10  and  C_18
REMARK    9  A    between atoms: C_10  and  C_19
REMARK   10  A    between atoms: C_12  and  C_22
REMARK   11  A    between atoms: C_15  and  C_24
REMARK   12  A    between atoms: C_29  and  C_31
REMARK                            x       y       z     vdW  Elec       q    Type
REMARK                         _______ _______ _______ _____ _____    ______ ____
ROOT
ATOM      6  C   UNL     1      -3.641 -12.342  13.826  0.00  0.00    +0.000 C 
ATOM      7  C   UNL     1      -2.450 -11.528  14.384  0.00  0.00    +0.029 C 
ATOM      8  C   UNL     1      -4.539 -11.453  12.954  0.00  0.00    +0.012 C 
ATOM      9  C   UNL     1      -3.786 -10.778  11.789  0.00  0.00    +0.022 C 
ATOM     12  C   UNL     1      -2.396 -10.299  12.175  0.00  0.00    -0.073 C 
ATOM     13  C   UNL     1      -1.821 -10.635  13.345  0.00  0.00    -0.023 C 
ATOM     22  C   UNL     1      -1.642  -9.470  11.171  0.00  0.00    +0.039 C 
ENDROOT
BRANCH   6  10
ATOM     10  C   UNL     1      -3.158 -13.575  13.047  0.00  0.00    -0.013 C 
ATOM     18  C   UNL     1      -2.138 -14.357  13.868  0.00  0.00    +0.007 C 
ATOM     19  C   UNL     1      -4.341 -14.460  12.669  0.00  0.00    +0.007 C 
ENDBRANCH   6  10
BRANCH   7  11
ATOM     11  C   UNL     1      -2.862 -10.682  15.593  0.00  0.00    +0.089 C 
BRANCH  11   3
ATOM      3  N   UNL     1      -2.891 -11.490  16.800  0.00  0.00    -0.313 NA
ATOM     33  H   UNL     1      -2.232 -11.106  17.475  0.00  0.00    +0.122 HD
BRANCH   3  14
ATOM     14  C   UNL     1      -4.238 -11.543  17.365  0.00  0.00    +0.054 C 
ATOM     16  C   UNL     1      -5.013 -10.277  16.982  0.00  0.00    +0.019 C 
ATOM     17  C   UNL     1      -4.158 -11.703  18.886  0.00  0.00    +0.019 C 
ATOM     20  C   UNL     1      -6.402 -10.262  17.619  0.00  0.00    +0.002 C 
ATOM     21  C   UNL     1      -5.548 -11.686  19.521  0.00  0.00    +0.002 C 
ATOM     23  C   UNL     1      -6.328 -10.432  19.133  0.00  0.00    +0.000 C 
ENDBRANCH   3  14
ENDBRANCH  11   3
ENDBRANCH   7  11
BRANCH   9  15
ATOM     15  C   UNL     1      -4.667  -9.657  11.221  0.00  0.00    +0.082 C 
BRANCH  15  24
ATOM      4  N   UNL     1      -4.347 -10.862   9.052  0.00  0.00    -0.342 N 
ATOM      5  N   UNL     1      -5.849  -9.224   9.040  0.00  0.00    -0.232 NA
ATOM     24  C   UNL     1      -4.980  -9.887   9.770  0.00  0.00    +0.109 A 
ATOM     25  C   UNL     1      -4.840 -10.827   7.773  0.00  0.00    +0.067 A 
ATOM     26  C   UNL     1      -5.776  -9.796   7.791  0.00  0.00    +0.089 A 
ATOM     27  C   UNL     1      -4.556 -11.585   6.637  0.00  0.00    +0.042 A 
ATOM     28  C   UNL     1      -6.480  -9.491   6.614  0.00  0.00    +0.030 A 
ATOM     29  C   UNL     1      -5.266 -11.267   5.473  0.00  0.00    +0.061 A 
ATOM     30  C   UNL     1      -6.212 -10.238   5.461  0.00  0.00    +0.017 A 
ATOM     34  H   UNL     1      -3.642 -11.499   9.399  0.00  0.00    +0.167 HD
BRANCH  29  31
ATOM      2  O   UNL     1      -5.883 -12.341   3.436  0.00  0.00    -0.245 OA
ATOM     31  C   UNL     1      -5.013 -12.023   4.257  0.00  0.00    +0.339 C 
BRANCH  31   1
ATOM      1  O   UNL     1      -3.688 -12.339   4.129  0.00  0.00    -0.464 OA
ATOM     32  C   UNL     1      -3.224 -12.661   2.813  0.00  0.00    +0.280 C 
ENDBRANCH  31   1
ENDBRANCH  29  31
ENDBRANCH  15  24
ENDBRANCH   9  15
TORSDOF 8
ENDMDL
MODEL 4
REMARK VINA RESULT:      -6.9     21.376     24.403
REMARK  Name = 71693182
REMARK  12 active torsions:
REMARK  status: ('A' for Active; 'I' for Inactive)
REMARK    1  A    between atoms: O_1  and  C_31
REMARK    2  A    between atoms: O_1  and  C_32
REMARK    3  A    between atoms: N_3  and  C_11
REMARK    4  A    between atoms: N_3  and  C_14
REMARK    5  A    between atoms: C_6  and  C_10
REMARK    6  A    between atoms: C_7  and  C_11
REMARK    7  A    between atoms: C_9  and  C_15
REMARK    8  A    between atoms: C_10  and  C_18
REMARK    9  A    between atoms: C_10  and  C_19
REMARK   10  A    between atoms: C_12  and  C_22
REMARK   11  A    between atoms: C_15  and  C_24
REMARK   12  A    between atoms: C_29  and  C_31
REMARK                            x       y       z     vdW  Elec       q    Type
REMARK                         _______ _______ _______ _____ _____    ______ ____
ROOT
ATOM      6  C   UNL     1      -4.170 -12.201  12.254  0.00  0.00    +0.000 C 
ATOM      7  C   UNL     1      -3.325 -11.483  13.332  0.00  0.00    +0.029 C 
ATOM      8  C   UNL     1      -4.659 -11.198  11.199  0.00  0.00    +0.012 C 
ATOM      9  C   UNL     1      -3.514 -10.418  10.520  0.00  0.00    +0.022 C 
ATOM     12  C   UNL     1      -2.409 -10.020  11.486  0.00  0.00    -0.073 C 
ATOM     13  C   UNL     1      -2.349 -10.497  12.742  0.00  0.00    -0.023 C 
ATOM     22  C   UNL     1      -1.332  -9.104  10.970  0.00  0.00    +0.039 C 
ENDROOT
BRANCH   6  10
ATOM     10  C   UNL     1      -3.388 -13.351  11.606  0.00  0.00    -0.013 C 
ATOM     18  C   UNL     1      -2.757 -14.235  12.676  0.00  0.00    +0.007 C 
ATOM     19  C   UNL     1      -4.302 -14.169  10.698  0.00  0.00    +0.007 C 
ENDBRANCH   6  10
BRANCH   7  11
ATOM     11  C   UNL     1      -4.208 -10.765  14.358  0.00  0.00    +0.089 C 
BRANCH  11   3
ATOM      3  N   UNL     1      -3.418 -10.317  15.492  0.00  0.00    -0.313 NA
ATOM     33  H   UNL     1      -2.998  -9.415  15.270  0.00  0.00    +0.122 HD
BRANCH   3  14
ATOM     14  C   UNL     1      -4.235 -10.224  16.699  0.00  0.00    +0.054 C 
ATOM     16  C   UNL     1      -3.973 -11.437  17.600  0.00  0.00    +0.019 C 
ATOM     17  C   UNL     1      -5.716 -10.127  16.320  0.00  0.00    +0.019 C 
ATOM     20  C   UNL     1      -4.868 -11.412  18.839  0.00  0.00    +0.002 C 
ATOM     21  C   UNL     1      -6.608 -10.106  17.559  0.00  0.00    +0.002 C 
ATOM     23  C   UNL     1      -6.343 -11.305  18.466  0.00  0.00    +0.000 C 
ENDBRANCH   3  14
ENDBRANCH  11   3
ENDBRANCH   7  11
BRANCH   9  15
ATOM     15  C   UNL     1      -4.114  -9.220   9.773  0.00  0.00    +0.082 C 
BRANCH  15  24
ATOM      4  N   UNL     1      -5.782  -8.932   7.931  0.00  0.00    -0.342 N 
ATOM      5  N   UNL     1      -4.429 -10.686   7.750  0.00  0.00    -0.232 NA
ATOM     24  C   UNL     1      -4.752  -9.642   8.480  0.00  0.00    +0.109 A 
ATOM     25  C   UNL     1      -6.149  -9.558   6.767  0.00  0.00    +0.067 A 
ATOM     26  C   UNL     1      -5.289 -10.650   6.676  0.00  0.00    +0.089 A 
ATOM     27  C   UNL     1      -7.128  -9.273   5.815  0.00  0.00    +0.042 A 
ATOM     28  C   UNL     1      -5.399 -11.518   5.577  0.00  0.00    +0.030 A 
ATOM     29  C   UNL     1      -7.223 -10.147   4.727  0.00  0.00    +0.061 A 
ATOM     30  C   UNL     1      -6.375 -11.251   4.609  0.00  0.00    +0.017 A 
ATOM     34  H   UNL     1      -6.201  -8.093   8.310  0.00  0.00    +0.167 HD
BRANCH  29  31
ATOM      2  O   UNL     1      -9.446 -10.005   3.878  0.00  0.00    -0.245 OA
ATOM     31  C   UNL     1      -8.226  -9.901   3.703  0.00  0.00    +0.339 C 
BRANCH  31   1
ATOM      1  O   UNL     1      -7.651  -9.537   2.515  0.00  0.00    -0.464 OA
ATOM     32  C   UNL     1      -8.118  -8.322   1.917  0.00  0.00    +0.280 C 
ENDBRANCH  31   1
ENDBRANCH  29  31
ENDBRANCH  15  24
ENDBRANCH   9  15
TORSDOF 8
ENDMDL
MODEL 5
REMARK VINA RESULT:      -6.8     18.185     19.956
REMARK  Name = 71693182
REMARK  12 active torsions:
REMARK  status: ('A' for Active; 'I' for Inactive)
REMARK    1  A    between atoms: O_1  and  C_31
REMARK    2  A    between atoms: O_1  and  C_32
REMARK    3  A    between atoms: N_3  and  C_11
REMARK    4  A    between atoms: N_3  and  C_14
REMARK    5  A    between atoms: C_6  and  C_10
REMARK    6  A    between atoms: C_7  and  C_11
REMARK    7  A    between atoms: C_9  and  C_15
REMARK    8  A    between atoms: C_10  and  C_18
REMARK    9  A    between atoms: C_10  and  C_19
REMARK   10  A    between atoms: C_12  and  C_22
REMARK   11  A    between atoms: C_15  and  C_24
REMARK   12  A    between atoms: C_29  and  C_31
REMARK                            x       y       z     vdW  Elec       q    Type
REMARK                         _______ _______ _______ _____ _____    ______ ____
ROOT
ATOM      6  C   UNL     1      -3.592 -10.647  15.012  0.00  0.00    +0.000 C 
ATOM      7  C   UNL     1      -4.684 -11.528  14.364  0.00  0.00    +0.029 C 
ATOM      8  C   UNL     1      -3.941 -10.346  16.476  0.00  0.00    +0.012 C 
ATOM      9  C   UNL     1      -4.149 -11.616  17.328  0.00  0.00    +0.022 C 
ATOM     12  C   UNL     1      -4.890 -12.717  16.586  0.00  0.00    -0.073 C 
ATOM     13  C   UNL     1      -5.130 -12.653  15.263  0.00  0.00    -0.023 C 
ATOM     22  C   UNL     1      -5.304 -13.930  17.374  0.00  0.00    +0.039 C 
ENDROOT
BRANCH   6  10
ATOM     10  C   UNL     1      -2.206 -11.298  14.894  0.00  0.00    -0.013 C 
ATOM     18  C   UNL     1      -1.845 -11.520  13.429  0.00  0.00    +0.007 C 
ATOM     19  C   UNL     1      -1.154 -10.438  15.587  0.00  0.00    +0.007 C 
ENDBRANCH   6  10
BRANCH   7  11
ATOM     11  C   UNL     1      -5.906 -10.701  13.950  0.00  0.00    +0.089 C 
BRANCH  11   3
ATOM      3  N   UNL     1      -6.497 -11.231  12.733  0.00  0.00    -0.313 NA
ATOM     33  H   UNL     1      -7.510 -11.130  12.782  0.00  0.00    +0.122 HD
BRANCH   3  14
ATOM     14  C   UNL     1      -5.967 -10.552  11.553  0.00  0.00    +0.054 C 
ATOM     16  C   UNL     1      -4.729 -11.295  11.036  0.00  0.00    +0.019 C 
ATOM     17  C   UNL     1      -5.634  -9.096  11.894  0.00  0.00    +0.019 C 
ATOM     20  C   UNL     1      -4.102 -10.570   9.846  0.00  0.00    +0.002 C 
ATOM     21  C   UNL     1      -5.005  -8.374  10.704  0.00  0.00    +0.002 C 
ATOM     23  C   UNL     1      -3.780  -9.117  10.178  0.00  0.00    +0.000 C 
ENDBRANCH   3  14
ENDBRANCH  11   3
ENDBRANCH   7  11
BRANCH   9  15
ATOM     15  C   UNL     1      -4.835 -11.217  18.642  0.00  0.00    +0.082 C 
BRANCH  15  24
ATOM      4  N   UNL     1      -6.582  -9.712  17.671  0.00  0.00    -0.342 N 
ATOM      5  N   UNL     1      -7.334 -11.426  18.870  0.00  0.00    -0.232 NA
ATOM     24  C   UNL     1      -6.264 -10.814  18.414  0.00  0.00    +0.109 A 
ATOM     25  C   UNL     1      -7.949  -9.606  17.645  0.00  0.00    +0.067 A 
ATOM     26  C   UNL     1      -8.395 -10.688  18.401  0.00  0.00    +0.089 A 
ATOM     27  C   UNL     1      -8.808  -8.685  17.044  0.00  0.00    +0.042 A 
ATOM     28  C   UNL     1      -9.776 -10.876  18.577  0.00  0.00    +0.030 A 
ATOM     29  C   UNL     1     -10.180  -8.888  17.230  0.00  0.00    +0.061 A 
ATOM     30  C   UNL     1     -10.657  -9.964  17.982  0.00  0.00    +0.017 A 
ATOM     34  H   UNL     1      -5.930  -9.086  17.218  0.00  0.00    +0.167 HD
BRANCH  29  31
ATOM      2  O   UNL     1     -12.321  -8.206  16.435  0.00  0.00    -0.245 OA
ATOM     31  C   UNL     1     -11.124  -7.960  16.627  0.00  0.00    +0.339 C 
BRANCH  31   1
ATOM      1  O   UNL     1     -10.523  -6.775  16.299  0.00  0.00    -0.464 OA
ATOM     32  C   UNL     1     -11.181  -5.968  15.316  0.00  0.00    +0.280 C 
ENDBRANCH  31   1
ENDBRANCH  29  31
ENDBRANCH  15  24
ENDBRANCH   9  15
TORSDOF 8
ENDMDL
MODEL 6
REMARK VINA RESULT:      -6.7     19.652     21.584
REMARK  Name = 71693182
REMARK  12 active torsions:
REMARK  status: ('A' for Active; 'I' for Inactive)
REMARK    1  A    between atoms: O_1  and  C_31
REMARK    2  A    between atoms: O_1  and  C_32
REMARK    3  A    between atoms: N_3  and  C_11
REMARK    4  A    between atoms: N_3  and  C_14
REMARK    5  A    between atoms: C_6  and  C_10
REMARK    6  A    between atoms: C_7  and  C_11
REMARK    7  A    between atoms: C_9  and  C_15
REMARK    8  A    between atoms: C_10  and  C_18
REMARK    9  A    between atoms: C_10  and  C_19
REMARK   10  A    between atoms: C_12  and  C_22
REMARK   11  A    between atoms: C_15  and  C_24
REMARK   12  A    between atoms: C_29  and  C_31
REMARK                            x       y       z     vdW  Elec       q    Type
REMARK                         _______ _______ _______ _____ _____    ______ ____
ROOT
ATOM      6  C   UNL     1      -4.096 -10.352  11.665  0.00  0.00    +0.000 C 
ATOM      7  C   UNL     1      -5.087 -11.517  11.435  0.00  0.00    +0.029 C 
ATOM      8  C   UNL     1      -3.147 -10.674  12.829  0.00  0.00    +0.012 C 
ATOM      9  C   UNL     1      -2.361 -11.987  12.632  0.00  0.00    +0.022 C 
ATOM     12  C   UNL     1      -3.196 -13.095  12.010  0.00  0.00    -0.073 C 
ATOM     13  C   UNL     1      -4.417 -12.867  11.492  0.00  0.00    -0.023 C 
ATOM     22  C   UNL     1      -2.586 -14.468  11.936  0.00  0.00    +0.039 C 
ENDROOT
BRANCH   6  10
ATOM     10  C   UNL     1      -3.312 -10.026  10.385  0.00  0.00    -0.013 C 
ATOM     18  C   UNL     1      -4.212  -9.320   9.376  0.00  0.00    +0.007 C 
ATOM     19  C   UNL     1      -2.092  -9.171  10.714  0.00  0.00    +0.007 C 
ENDBRANCH   6  10
BRANCH   7  11
ATOM     11  C   UNL     1      -6.240 -11.485  12.443  0.00  0.00    +0.089 C 
BRANCH  11   3
ATOM      3  N   UNL     1      -7.116 -10.355  12.186  0.00  0.00    -0.313 NA
ATOM     33  H   UNL     1      -7.954 -10.684  11.709  0.00  0.00    +0.122 HD
BRANCH   3  14
ATOM     14  C   UNL     1      -7.464  -9.666  13.427  0.00  0.00    +0.054 C 
ATOM     16  C   UNL     1      -6.592 -10.190  14.574  0.00  0.00    +0.019 C 
ATOM     17  C   UNL     1      -8.953  -9.860  13.731  0.00  0.00    +0.019 C 
ATOM     20  C   UNL     1      -6.980  -9.545  15.905  0.00  0.00    +0.002 C 
ATOM     21  C   UNL     1      -9.337  -9.218  15.062  0.00  0.00    +0.002 C 
ATOM     23  C   UNL     1      -8.464  -9.727  16.206  0.00  0.00    +0.000 C 
ENDBRANCH   3  14
ENDBRANCH  11   3
ENDBRANCH   7  11
BRANCH   9  15
ATOM     15  C   UNL     1      -1.740 -12.391  13.975  0.00  0.00    +0.082 C 
BRANCH  15  24
ATOM      4  N   UNL     1      -3.752 -12.955  15.350  0.00  0.00    -0.342 N 
ATOM      5  N   UNL     1      -2.616 -11.153  15.985  0.00  0.00    -0.232 NA
ATOM     24  C   UNL     1      -2.684 -12.136  15.115  0.00  0.00    +0.109 A 
ATOM     25  C   UNL     1      -4.419 -12.468  16.446  0.00  0.00    +0.067 A 
ATOM     26  C   UNL     1      -3.690 -11.344  16.823  0.00  0.00    +0.089 A 
ATOM     27  C   UNL     1      -5.562 -12.902  17.118  0.00  0.00    +0.042 A 
ATOM     28  C   UNL     1      -4.112 -10.596  17.935  0.00  0.00    +0.030 A 
ATOM     29  C   UNL     1      -5.968 -12.146  18.223  0.00  0.00    +0.061 A 
ATOM     30  C   UNL     1      -5.257 -11.013  18.626  0.00  0.00    +0.017 A 
ATOM     34  H   UNL     1      -4.007 -13.775  14.817  0.00  0.00    +0.167 HD
BRANCH  29  31
ATOM      2  O   UNL     1      -7.457 -12.124  20.085  0.00  0.00    -0.245 OA
ATOM     31  C   UNL     1      -7.153 -12.550  18.964  0.00  0.00    +0.339 C 
BRANCH  31   1
ATOM      1  O   UNL     1      -7.896 -13.462  18.264  0.00  0.00    -0.464 OA
ATOM     32  C   UNL     1      -9.262 -13.120  18.006  0.00  0.00    +0.280 C 
ENDBRANCH  31   1
ENDBRANCH  29  31
ENDBRANCH  15  24
ENDBRANCH   9  15
TORSDOF 8
ENDMDL
MODEL 7
REMARK VINA RESULT:      -6.7      5.531      9.861
REMARK  Name = 71693182
REMARK  12 active torsions:
REMARK  status: ('A' for Active; 'I' for Inactive)
REMARK    1  A    between atoms: O_1  and  C_31
REMARK    2  A    between atoms: O_1  and  C_32
REMARK    3  A    between atoms: N_3  and  C_11
REMARK    4  A    between atoms: N_3  and  C_14
REMARK    5  A    between atoms: C_6  and  C_10
REMARK    6  A    between atoms: C_7  and  C_11
REMARK    7  A    between atoms: C_9  and  C_15
REMARK    8  A    between atoms: C_10  and  C_18
REMARK    9  A    between atoms: C_10  and  C_19
REMARK   10  A    between atoms: C_12  and  C_22
REMARK   11  A    between atoms: C_15  and  C_24
REMARK   12  A    between atoms: C_29  and  C_31
REMARK                            x       y       z     vdW  Elec       q    Type
REMARK                         _______ _______ _______ _____ _____    ______ ____
ROOT
ATOM      6  C   UNL     1     -15.764   7.712  20.574  0.00  0.00    +0.000 C 
ATOM      7  C   UNL     1     -16.124   7.613  22.074  0.00  0.00    +0.029 C 
ATOM      8  C   UNL     1     -14.240   7.694  20.383  0.00  0.00    +0.012 C 
ATOM      9  C   UNL     1     -13.562   6.450  20.994  0.00  0.00    +0.022 C 
ATOM     12  C   UNL     1     -14.162   6.040  22.330  0.00  0.00    -0.073 C 
ATOM     13  C   UNL     1     -15.300   6.581  22.801  0.00  0.00    -0.023 C 
ATOM     22  C   UNL     1     -13.465   4.951  23.101  0.00  0.00    +0.039 C 
ENDROOT
BRANCH   6  10
ATOM     10  C   UNL     1     -16.437   6.594  19.764  0.00  0.00    -0.013 C 
ATOM     18  C   UNL     1     -17.822   6.290  20.326  0.00  0.00    +0.007 C 
ATOM     19  C   UNL     1     -16.524   6.984  18.291  0.00  0.00    +0.007 C 
ENDBRANCH   6  10
BRANCH   7  11
ATOM     11  C   UNL     1     -15.974   8.964  22.781  0.00  0.00    +0.089 C 
BRANCH  11   3
ATOM      3  N   UNL     1     -15.035   8.865  23.885  0.00  0.00    -0.313 NA
ATOM     33  H   UNL     1     -14.447   8.043  23.750  0.00  0.00    +0.122 HD
BRANCH   3  14
ATOM     14  C   UNL     1     -14.219  10.072  23.993  0.00  0.00    +0.054 C 
ATOM     16  C   UNL     1     -13.131  10.062  22.913  0.00  0.00    +0.019 C 
ATOM     17  C   UNL     1     -13.606  10.164  25.394  0.00  0.00    +0.019 C 
ATOM     20  C   UNL     1     -12.209  11.275  23.042  0.00  0.00    +0.002 C 
ATOM     21  C   UNL     1     -12.684  11.375  25.519  0.00  0.00    +0.002 C 
ATOM     23  C   UNL     1     -11.605  11.377  24.438  0.00  0.00    +0.000 C 
ENDBRANCH   3  14
ENDBRANCH  11   3
ENDBRANCH   7  11
BRANCH   9  15
ATOM     15  C   UNL     1     -12.051   6.704  21.072  0.00  0.00    +0.082 C 
BRANCH  15  24
ATOM      4  N   UNL     1     -11.220   8.869  20.133  0.00  0.00    -0.342 N 
ATOM      5  N   UNL     1     -11.462   7.208  18.676  0.00  0.00    -0.232 NA
ATOM     24  C   UNL     1     -11.581   7.566  19.935  0.00  0.00    +0.109 A 
ATOM     25  C   UNL     1     -10.842   9.387  18.921  0.00  0.00    +0.067 A 
ATOM     26  C   UNL     1     -11.002   8.331  18.027  0.00  0.00    +0.089 A 
ATOM     27  C   UNL     1     -10.387  10.650  18.540  0.00  0.00    +0.042 A 
ATOM     28  C   UNL     1     -10.695   8.529  16.671  0.00  0.00    +0.030 A 
ATOM     29  C   UNL     1     -10.086  10.830  17.185  0.00  0.00    +0.061 A 
ATOM     30  C   UNL     1     -10.237   9.789  16.266  0.00  0.00    +0.017 A 
ATOM     34  H   UNL     1     -11.226   9.365  21.013  0.00  0.00    +0.167 HD
BRANCH  29  31
ATOM      2  O   UNL     1      -9.106  12.985  17.464  0.00  0.00    -0.245 OA
ATOM     31  C   UNL     1      -9.608  12.126  16.729  0.00  0.00    +0.339 C 
BRANCH  31   1
ATOM      1  O   UNL     1      -9.783  12.278  15.380  0.00  0.00    -0.464 OA
ATOM     32  C   UNL     1     -10.291  13.541  14.934  0.00  0.00    +0.280 C 
ENDBRANCH  31   1
ENDBRANCH  29  31
ENDBRANCH  15  24
ENDBRANCH   9  15
TORSDOF 8
ENDMDL
MODEL 8
REMARK VINA RESULT:      -6.7     29.028     32.543
REMARK  Name = 71693182
REMARK  12 active torsions:
REMARK  status: ('A' for Active; 'I' for Inactive)
REMARK    1  A    between atoms: O_1  and  C_31
REMARK    2  A    between atoms: O_1  and  C_32
REMARK    3  A    between atoms: N_3  and  C_11
REMARK    4  A    between atoms: N_3  and  C_14
REMARK    5  A    between atoms: C_6  and  C_10
REMARK    6  A    between atoms: C_7  and  C_11
REMARK    7  A    between atoms: C_9  and  C_15
REMARK    8  A    between atoms: C_10  and  C_18
REMARK    9  A    between atoms: C_10  and  C_19
REMARK   10  A    between atoms: C_12  and  C_22
REMARK   11  A    between atoms: C_15  and  C_24
REMARK   12  A    between atoms: C_29  and  C_31
REMARK                            x       y       z     vdW  Elec       q    Type
REMARK                         _______ _______ _______ _____ _____    ______ ____
ROOT
ATOM      6  C   UNL     1       8.950   8.860   4.270  0.00  0.00    +0.000 C 
ATOM      7  C   UNL     1       8.570   8.411   5.701  0.00  0.00    +0.029 C 
ATOM      8  C   UNL     1      10.200   8.112   3.786  0.00  0.00    +0.012 C 
ATOM      9  C   UNL     1      10.047   6.577   3.820  0.00  0.00    +0.022 C 
ATOM     12  C   UNL     1       9.297   6.080   5.046  0.00  0.00    -0.073 C 
ATOM     13  C   UNL     1       8.653   6.917   5.881  0.00  0.00    -0.023 C 
ATOM     22  C   UNL     1       9.243   4.593   5.273  0.00  0.00    +0.039 C 
ENDROOT
BRANCH   6  10
ATOM     10  C   UNL     1       7.778   8.670   3.296  0.00  0.00    -0.013 C 
ATOM     18  C   UNL     1       6.643   9.630   3.635  0.00  0.00    +0.007 C 
ATOM     19  C   UNL     1       8.246   8.870   1.858  0.00  0.00    +0.007 C 
ENDBRANCH   6  10
BRANCH   7  11
ATOM     11  C   UNL     1       9.443   9.094   6.758  0.00  0.00    +0.089 C 
BRANCH  11   3
ATOM      3  N   UNL     1      10.069   8.108   7.622  0.00  0.00    -0.313 NA
ATOM     33  H   UNL     1       9.760   7.177   7.345  0.00  0.00    +0.122 HD
BRANCH   3  14
ATOM     14  C   UNL     1      11.526   8.208   7.566  0.00  0.00    +0.054 C 
ATOM     16  C   UNL     1      11.932   9.369   6.650  0.00  0.00    +0.019 C 
ATOM     17  C   UNL     1      12.120   6.884   7.076  0.00  0.00    +0.019 C 
ATOM     20  C   UNL     1      13.451   9.457   6.507  0.00  0.00    +0.002 C 
ATOM     21  C   UNL     1      13.638   6.975   6.931  0.00  0.00    +0.002 C 
ATOM     23  C   UNL     1      14.049   8.137   6.030  0.00  0.00    +0.000 C 
ENDBRANCH   3  14
ENDBRANCH  11   3
ENDBRANCH   7  11
BRANCH   9  15
ATOM     15  C   UNL     1      11.436   5.943   3.673  0.00  0.00    +0.082 C 
BRANCH  15  24
ATOM      4  N   UNL     1      10.692   5.468   1.333  0.00  0.00    -0.342 N 
ATOM      5  N   UNL     1      12.557   4.449   1.984  0.00  0.00    -0.232 NA
ATOM     24  C   UNL     1      11.594   5.270   2.340  0.00  0.00    +0.109 A 
ATOM     25  C   UNL     1      11.101   4.727   0.253  0.00  0.00    +0.067 A 
ATOM     26  C   UNL     1      12.267   4.101   0.685  0.00  0.00    +0.089 A 
ATOM     27  C   UNL     1      10.568   4.556  -1.024  0.00  0.00    +0.042 A 
ATOM     28  C   UNL     1      12.955   3.250  -0.197  0.00  0.00    +0.030 A 
ATOM     29  C   UNL     1      11.264   3.706  -1.890  0.00  0.00    +0.061 A 
ATOM     30  C   UNL     1      12.437   3.064  -1.485  0.00  0.00    +0.017 A 
ATOM     34  H   UNL     1       9.871   6.057   1.371  0.00  0.00    +0.167 HD
BRANCH  29  31
ATOM      2  O   UNL     1      11.391   3.723  -4.271  0.00  0.00    -0.245 OA
ATOM     31  C   UNL     1      10.756   3.488  -3.235  0.00  0.00    +0.339 C 
BRANCH  31   1
ATOM      1  O   UNL     1       9.482   2.988  -3.215  0.00  0.00    -0.464 OA
ATOM     32  C   UNL     1       9.321   1.617  -3.595  0.00  0.00    +0.280 C 
ENDBRANCH  31   1
ENDBRANCH  29  31
ENDBRANCH  15  24
ENDBRANCH   9  15
TORSDOF 8
ENDMDL
MODEL 9
REMARK VINA RESULT:      -6.5      3.926      7.723
REMARK  Name = 71693182
REMARK  12 active torsions:
REMARK  status: ('A' for Active; 'I' for Inactive)
REMARK    1  A    between atoms: O_1  and  C_31
REMARK    2  A    between atoms: O_1  and  C_32
REMARK    3  A    between atoms: N_3  and  C_11
REMARK    4  A    between atoms: N_3  and  C_14
REMARK    5  A    between atoms: C_6  and  C_10
REMARK    6  A    between atoms: C_7  and  C_11
REMARK    7  A    between atoms: C_9  and  C_15
REMARK    8  A    between atoms: C_10  and  C_18
REMARK    9  A    between atoms: C_10  and  C_19
REMARK   10  A    between atoms: C_12  and  C_22
REMARK   11  A    between atoms: C_15  and  C_24
REMARK   12  A    between atoms: C_29  and  C_31
REMARK                            x       y       z     vdW  Elec       q    Type
REMARK                         _______ _______ _______ _____ _____    ______ ____
ROOT
ATOM      6  C   UNL     1      -9.769  12.360  17.339  0.00  0.00    +0.000 C 
ATOM      7  C   UNL     1     -11.194  12.812  17.734  0.00  0.00    +0.029 C 
ATOM      8  C   UNL     1      -9.763  10.872  16.957  0.00  0.00    +0.012 C 
ATOM      9  C   UNL     1     -10.745  10.529  15.818  0.00  0.00    +0.022 C 
ATOM     12  C   UNL     1     -12.065  11.276  15.924  0.00  0.00    -0.073 C 
ATOM     13  C   UNL     1     -12.250  12.285  16.795  0.00  0.00    -0.023 C 
ATOM     22  C   UNL     1     -13.163  10.888  14.970  0.00  0.00    +0.039 C 
ENDROOT
BRANCH   6  10
ATOM     10  C   UNL     1      -9.203  13.226  16.205  0.00  0.00    -0.013 C 
ATOM     18  C   UNL     1      -9.790  14.632  16.265  0.00  0.00    +0.007 C 
ATOM     19  C   UNL     1      -7.680  13.270  16.281  0.00  0.00    +0.007 C 
ENDBRANCH   6  10
BRANCH   7  11
ATOM     11  C   UNL     1     -11.543  12.396  19.166  0.00  0.00    +0.089 C 
BRANCH  11   3
ATOM      3  N   UNL     1     -12.825  11.713  19.205  0.00  0.00    -0.313 NA
ATOM     33  H   UNL     1     -12.736  10.810  18.742  0.00  0.00    +0.122 HD
BRANCH   3  14
ATOM     14  C   UNL     1     -13.291  11.546  20.580  0.00  0.00    +0.054 C 
ATOM     16  C   UNL     1     -12.203  10.865  21.419  0.00  0.00    +0.019 C 
ATOM     17  C   UNL     1     -14.589  10.733  20.596  0.00  0.00    +0.019 C 
ATOM     20  C   UNL     1     -12.683  10.605  22.846  0.00  0.00    +0.002 C 
ATOM     21  C   UNL     1     -15.066  10.472  22.023  0.00  0.00    +0.002 C 
ATOM     23  C   UNL     1     -13.981   9.805  22.866  0.00  0.00    +0.000 C 
ENDBRANCH   3  14
ENDBRANCH  11   3
ENDBRANCH   7  11
BRANCH   9  15
ATOM     15  C   UNL     1     -10.924   9.006  15.769  0.00  0.00    +0.082 C 
BRANCH  15  24
ATOM      4  N   UNL     1     -12.800   8.236  17.234  0.00  0.00    -0.342 N 
ATOM      5  N   UNL     1     -10.774   8.187  18.145  0.00  0.00    -0.232 NA
ATOM     24  C   UNL     1     -11.465   8.475  17.065  0.00  0.00    +0.109 A 
ATOM     25  C   UNL     1     -12.983   7.762  18.508  0.00  0.00    +0.067 A 
ATOM     26  C   UNL     1     -11.703   7.740  19.056  0.00  0.00    +0.089 A 
ATOM     27  C   UNL     1     -14.122   7.362  19.206  0.00  0.00    +0.042 A 
ATOM     28  C   UNL     1     -11.532   7.296  20.378  0.00  0.00    +0.030 A 
ATOM     29  C   UNL     1     -13.934   6.923  20.521  0.00  0.00    +0.061 A 
ATOM     30  C   UNL     1     -12.662   6.890  21.098  0.00  0.00    +0.017 A 
ATOM     34  H   UNL     1     -13.526   8.380  16.545  0.00  0.00    +0.167 HD
BRANCH  29  31
ATOM      2  O   UNL     1     -16.019   7.233  21.635  0.00  0.00    -0.245 OA
ATOM     31  C   UNL     1     -15.085   6.494  21.300  0.00  0.00    +0.339 C 
BRANCH  31   1
ATOM      1  O   UNL     1     -15.009   5.165  21.617  0.00  0.00    -0.464 OA
ATOM     32  C   UNL     1     -14.928   4.836  23.008  0.00  0.00    +0.280 C 
ENDBRANCH  31   1
ENDBRANCH  29  31
ENDBRANCH  15  24
ENDBRANCH   9  15
TORSDOF 8
ENDMDL
MODEL 10
REMARK VINA RESULT:      -6.5     27.935     33.299
REMARK  Name = 71693182
REMARK  12 active torsions:
REMARK  status: ('A' for Active; 'I' for Inactive)
REMARK    1  A    between atoms: O_1  and  C_31
REMARK    2  A    between atoms: O_1  and  C_32
REMARK    3  A    between atoms: N_3  and  C_11
REMARK    4  A    between atoms: N_3  and  C_14
REMARK    5  A    between atoms: C_6  and  C_10
REMARK    6  A    between atoms: C_7  and  C_11
REMARK    7  A    between atoms: C_9  and  C_15
REMARK    8  A    between atoms: C_10  and  C_18
REMARK    9  A    between atoms: C_10  and  C_19
REMARK   10  A    between atoms: C_12  and  C_22
REMARK   11  A    between atoms: C_15  and  C_24
REMARK   12  A    between atoms: C_29  and  C_31
REMARK                            x       y       z     vdW  Elec       q    Type
REMARK                         _______ _______ _______ _____ _____    ______ ____
ROOT
ATOM      6  C   UNL     1      13.449   6.534  -1.113  0.00  0.00    +0.000 C 
ATOM      7  C   UNL     1      14.046   5.214  -1.655  0.00  0.00    +0.029 C 
ATOM      8  C   UNL     1      12.097   6.274  -0.434  0.00  0.00    +0.012 C 
ATOM      9  C   UNL     1      12.175   5.239   0.708  0.00  0.00    +0.022 C 
ATOM     12  C   UNL     1      13.099   4.073   0.392  0.00  0.00    -0.073 C 
ATOM     13  C   UNL     1      13.918   4.075  -0.675  0.00  0.00    -0.023 C 
ATOM     22  C   UNL     1      13.115   2.917   1.357  0.00  0.00    +0.039 C 
ENDROOT
BRANCH   6  10
ATOM     10  C   UNL     1      14.424   7.237  -0.158  0.00  0.00    -0.013 C 
ATOM     18  C   UNL     1      15.802   7.358  -0.799  0.00  0.00    +0.007 C 
ATOM     19  C   UNL     1      13.886   8.610   0.233  0.00  0.00    +0.007 C 
ENDBRANCH   6  10
BRANCH   7  11
ATOM     11  C   UNL     1      13.404   4.807  -2.985  0.00  0.00    +0.089 C 
BRANCH  11   3
ATOM      3  N   UNL     1      13.593   3.388  -3.233  0.00  0.00    -0.313 NA
ATOM     33  H   UNL     1      13.845   2.927  -2.360  0.00  0.00    +0.122 HD
BRANCH   3  14
ATOM     14  C   UNL     1      12.388   2.789  -3.804  0.00  0.00    +0.054 C 
ATOM     16  C   UNL     1      12.017   3.507  -5.106  0.00  0.00    +0.019 C 
ATOM     17  C   UNL     1      11.242   2.856  -2.790  0.00  0.00    +0.019 C 
ATOM     20  C   UNL     1      10.718   2.957  -5.693  0.00  0.00    +0.002 C 
ATOM     21  C   UNL     1       9.944   2.308  -3.379  0.00  0.00    +0.002 C 
ATOM     23  C   UNL     1       9.576   3.012  -4.683  0.00  0.00    +0.000 C 
ENDBRANCH   3  14
ENDBRANCH  11   3
ENDBRANCH   7  11
BRANCH   9  15
ATOM     15  C   UNL     1      10.750   4.792   1.062  0.00  0.00    +0.082 C 
BRANCH  15  24
ATOM      4  N   UNL     1      10.456   4.793   3.546  0.00  0.00    -0.342 N 
ATOM      5  N   UNL     1       9.678   6.578   2.476  0.00  0.00    -0.232 NA
ATOM     24  C   UNL     1      10.282   5.419   2.344  0.00  0.00    +0.109 A 
ATOM     25  C   UNL     1       9.930   5.603   4.520  0.00  0.00    +0.067 A 
ATOM     26  C   UNL     1       9.451   6.711   3.826  0.00  0.00    +0.089 A 
ATOM     27  C   UNL     1       9.835   5.466   5.905  0.00  0.00    +0.042 A 
ATOM     28  C   UNL     1       8.838   7.754   4.541  0.00  0.00    +0.030 A 
ATOM     29  C   UNL     1       9.222   6.513   6.601  0.00  0.00    +0.061 A 
ATOM     30  C   UNL     1       8.732   7.638   5.933  0.00  0.00    +0.017 A 
ATOM     34  H   UNL     1      10.895   3.894   3.696  0.00  0.00    +0.167 HD
BRANCH  29  31
ATOM      2  O   UNL     1       8.555   7.286   8.755  0.00  0.00    -0.245 OA
ATOM     31  C   UNL     1       9.093   6.426   8.048  0.00  0.00    +0.339 C 
BRANCH  31   1
ATOM      1  O   UNL     1       9.644   5.271   8.532  0.00  0.00    -0.464 OA
ATOM     32  C   UNL     1       9.198   4.833   9.820  0.00  0.00    +0.280 C 
ENDBRANCH  31   1
ENDBRANCH  29  31
ENDBRANCH  15  24
ENDBRANCH   9  15
TORSDOF 8
ENDMDL
