MODEL 1
REMARK VINA RESULT:      -6.6      0.000      0.000
REMARK  Name = 28960420
REMARK  10 active torsions:
REMARK  status: ('A' for Active; 'I' for Inactive)
REMARK    1  A    between atoms: O_3  and  C_11
REMARK    2  A    between atoms: O_4  and  C_17
REMARK    3  A    between atoms: O_4  and  C_23
REMARK    4  A    between atoms: O_5  and  C_18
REMARK    5  A    between atoms: N_6  and  C_8
REMARK    6  A    between atoms: N_6  and  C_14
REMARK    7  A    between atoms: N_7  and  C_10
REMARK    8  A    between atoms: N_7  and  C_15
REMARK    9  A    between atoms: C_14  and  C_16
REMARK   10  A    between atoms: C_15  and  C_17
REMARK                            x       y       z     vdW  Elec       q    Type
REMARK                         _______ _______ _______ _____ _____    ______ ____
ROOT
ATOM      1  O   UNL     1      12.339   6.553  19.807  0.00  0.00    -0.343 OA
ATOM      2  O   UNL     1      10.758   8.249  19.870  0.00  0.00    -0.347 OA
ATOM      8  C   UNL     1      13.325   7.901  21.553  0.00  0.00    +0.116 C 
ATOM      9  C   UNL     1      12.184   6.928  21.180  0.00  0.00    +0.166 C 
ATOM     10  C   UNL     1      13.000   8.774  19.133  0.00  0.00    +0.141 C 
ATOM     11  C   UNL     1      13.422   9.104  20.584  0.00  0.00    +0.156 C 
ATOM     12  C   UNL     1      11.871   7.725  19.127  0.00  0.00    +0.270 C 
ATOM     13  C   UNL     1      10.808   7.571  21.135  0.00  0.00    +0.196 C 
ENDROOT
BRANCH  11   3
ATOM      3  O   UNL     1      12.557  10.145  21.060  0.00  0.00    -0.388 OA
ATOM     26  H   UNL     1      13.116  10.911  21.283  0.00  0.00    +0.210 HD
ENDBRANCH  11   3
BRANCH   8   6
ATOM      6  N   UNL     1      14.583   7.146  21.566  0.00  0.00    -0.305 NA
ATOM     24  H   UNL     1      14.672   6.654  22.455  0.00  0.00    +0.123 HD
BRANCH   6  14
ATOM     14  C   UNL     1      15.716   8.041  21.409  0.00  0.00    +0.120 C 
BRANCH  14  16
ATOM     16  C   UNL     1      16.962   7.301  20.998  0.00  0.00    +0.008 A 
ATOM     18  C   UNL     1      16.939   6.402  19.932  0.00  0.00    +0.121 A 
ATOM     19  C   UNL     1      18.147   7.520  21.700  0.00  0.00    +0.008 A 
ATOM     20  C   UNL     1      18.102   5.723  19.567  0.00  0.00    +0.046 A 
ATOM     21  C   UNL     1      19.310   6.841  21.335  0.00  0.00    +0.001 A 
ATOM     22  C   UNL     1      19.287   5.942  20.269  0.00  0.00    +0.004 A 
BRANCH  18   5
ATOM      5  O   UNL     1      15.789   6.175  19.238  0.00  0.00    -0.506 OA
ATOM     27  H   UNL     1      15.169   5.682  19.804  0.00  0.00    +0.292 HD
ENDBRANCH  18   5
ENDBRANCH  14  16
ENDBRANCH   6  14
ENDBRANCH   8   6
BRANCH  10   7
ATOM      7  N   UNL     1      14.141   8.284  18.359  0.00  0.00    -0.305 NA
ATOM     25  H   UNL     1      14.471   7.404  18.754  0.00  0.00    +0.123 HD
BRANCH   7  15
ATOM     15  C   UNL     1      13.765   8.064  16.972  0.00  0.00    +0.109 C 
BRANCH  15  17
ATOM     17  C   UNL     1      13.282   9.357  16.335  0.00  0.00    +0.174 C 
BRANCH  17   4
ATOM      4  O   UNL     1      12.369   9.040  15.293  0.00  0.00    -0.382 OA
ATOM     23  C   UNL     1      11.021   9.155  15.728  0.00  0.00    +0.194 C 
ENDBRANCH  17   4
ENDBRANCH  15  17
ENDBRANCH   7  15
ENDBRANCH  10   7
TORSDOF 9
ENDMDL
MODEL 2
REMARK VINA RESULT:      -6.6      2.118      4.115
REMARK  Name = 28960420
REMARK  10 active torsions:
REMARK  status: ('A' for Active; 'I' for Inactive)
REMARK    1  A    between atoms: O_3  and  C_11
REMARK    2  A    between atoms: O_4  and  C_17
REMARK    3  A    between atoms: O_4  and  C_23
REMARK    4  A    between atoms: O_5  and  C_18
REMARK    5  A    between atoms: N_6  and  C_8
REMARK    6  A    between atoms: N_6  and  C_14
REMARK    7  A    between atoms: N_7  and  C_10
REMARK    8  A    between atoms: N_7  and  C_15
REMARK    9  A    between atoms: C_14  and  C_16
REMARK   10  A    between atoms: C_15  and  C_17
REMARK                            x       y       z     vdW  Elec       q    Type
REMARK                         _______ _______ _______ _____ _____    ______ ____
ROOT
ATOM      1  O   UNL     1      12.678   9.382  19.809  0.00  0.00    -0.343 OA
ATOM      2  O   UNL     1      10.950   8.181  18.833  0.00  0.00    -0.347 OA
ATOM      8  C   UNL     1      13.597   7.161  20.057  0.00  0.00    +0.116 C 
ATOM      9  C   UNL     1      13.277   8.309  19.074  0.00  0.00    +0.166 C 
ATOM     10  C   UNL     1      11.382   7.889  21.194  0.00  0.00    +0.141 C 
ATOM     11  C   UNL     1      12.365   6.734  20.893  0.00  0.00    +0.156 C 
ATOM     12  C   UNL     1      11.349   8.886  20.020  0.00  0.00    +0.270 C 
ATOM     13  C   UNL     1      12.165   7.995  18.090  0.00  0.00    +0.196 C 
ENDROOT
BRANCH  11   3
ATOM      3  O   UNL     1      11.643   5.731  20.163  0.00  0.00    -0.388 OA
ATOM     26  H   UNL     1      11.643   4.920  20.702  0.00  0.00    +0.210 HD
ENDBRANCH  11   3
BRANCH   8   6
ATOM      6  N   UNL     1      14.687   7.600  20.934  0.00  0.00    -0.305 NA
ATOM     24  H   UNL     1      14.333   8.291  21.595  0.00  0.00    +0.123 HD
BRANCH   6  14
ATOM     14  C   UNL     1      15.758   8.200  20.157  0.00  0.00    +0.120 C 
BRANCH  14  16
ATOM     16  C   UNL     1      17.072   7.500  20.380  0.00  0.00    +0.008 A 
ATOM     18  C   UNL     1      17.372   6.313  19.710  0.00  0.00    +0.121 A 
ATOM     19  C   UNL     1      17.994   8.050  21.271  0.00  0.00    +0.008 A 
ATOM     20  C   UNL     1      18.594   5.677  19.931  0.00  0.00    +0.046 A 
ATOM     21  C   UNL     1      19.216   7.413  21.492  0.00  0.00    +0.001 A 
ATOM     22  C   UNL     1      19.516   6.227  20.822  0.00  0.00    +0.004 A 
BRANCH  18   5
ATOM      5  O   UNL     1      16.482   5.762  18.838  0.00  0.00    -0.506 OA
ATOM     27  H   UNL     1      15.866   6.452  18.536  0.00  0.00    +0.292 HD
ENDBRANCH  18   5
ENDBRANCH  14  16
ENDBRANCH   6  14
ENDBRANCH   8   6
BRANCH  10   7
ATOM      7  N   UNL     1      11.758   8.582  22.427  0.00  0.00    -0.305 NA
ATOM     25  H   UNL     1      12.644   9.067  22.292  0.00  0.00    +0.123 HD
BRANCH   7  15
ATOM     15  C   UNL     1      10.744   9.554  22.800  0.00  0.00    +0.109 C 
BRANCH  15  17
ATOM     17  C   UNL     1      11.384  10.791  23.409  0.00  0.00    +0.174 C 
BRANCH  17   4
ATOM      4  O   UNL     1      10.496  11.336  24.377  0.00  0.00    -0.382 OA
ATOM     23  C   UNL     1      11.172  12.208  25.273  0.00  0.00    +0.194 C 
ENDBRANCH  17   4
ENDBRANCH  15  17
ENDBRANCH   7  15
ENDBRANCH  10   7
TORSDOF 9
ENDMDL
MODEL 3
REMARK VINA RESULT:      -6.3      2.155      4.059
REMARK  Name = 28960420
REMARK  10 active torsions:
REMARK  status: ('A' for Active; 'I' for Inactive)
REMARK    1  A    between atoms: O_3  and  C_11
REMARK    2  A    between atoms: O_4  and  C_17
REMARK    3  A    between atoms: O_4  and  C_23
REMARK    4  A    between atoms: O_5  and  C_18
REMARK    5  A    between atoms: N_6  and  C_8
REMARK    6  A    between atoms: N_6  and  C_14
REMARK    7  A    between atoms: N_7  and  C_10
REMARK    8  A    between atoms: N_7  and  C_15
REMARK    9  A    between atoms: C_14  and  C_16
REMARK   10  A    between atoms: C_15  and  C_17
REMARK                            x       y       z     vdW  Elec       q    Type
REMARK                         _______ _______ _______ _____ _____    ______ ____
ROOT
ATOM      1  O   UNL     1      13.394   8.783  19.576  0.00  0.00    -0.343 OA
ATOM      2  O   UNL     1      11.133   8.532  19.121  0.00  0.00    -0.347 OA
ATOM      8  C   UNL     1      13.112   6.521  20.380  0.00  0.00    +0.116 C 
ATOM      9  C   UNL     1      13.203   7.433  19.136  0.00  0.00    +0.166 C 
ATOM     10  C   UNL     1      11.862   8.539  21.426  0.00  0.00    +0.141 C 
ATOM     11  C   UNL     1      12.046   7.003  21.394  0.00  0.00    +0.156 C 
ATOM     12  C   UNL     1      12.077   9.135  20.021  0.00  0.00    +0.270 C 
ATOM     13  C   UNL     1      11.899   7.575  18.372  0.00  0.00    +0.196 C 
ENDROOT
BRANCH  11   3
ATOM      3  O   UNL     1      10.782   6.424  21.040  0.00  0.00    -0.388 OA
ATOM     26  H   UNL     1      10.756   6.351  20.069  0.00  0.00    +0.210 HD
ENDBRANCH  11   3
BRANCH   8   6
ATOM      6  N   UNL     1      14.436   6.471  21.009  0.00  0.00    -0.305 NA
ATOM     24  H   UNL     1      14.567   7.300  21.588  0.00  0.00    +0.123 HD
BRANCH   6  14
ATOM     14  C   UNL     1      15.480   6.435  19.999  0.00  0.00    +0.120 C 
BRANCH  14  16
ATOM     16  C   UNL     1      16.779   6.994  20.515  0.00  0.00    +0.008 A 
ATOM     18  C   UNL     1      16.820   8.236  21.148  0.00  0.00    +0.121 A 
ATOM     19  C   UNL     1      17.951   6.256  20.351  0.00  0.00    +0.008 A 
ATOM     20  C   UNL     1      18.033   8.740  21.618  0.00  0.00    +0.046 A 
ATOM     21  C   UNL     1      19.165   6.760  20.821  0.00  0.00    +0.001 A 
ATOM     22  C   UNL     1      19.205   8.002  21.454  0.00  0.00    +0.004 A 
BRANCH  18   5
ATOM      5  O   UNL     1      15.684   8.970  21.314  0.00  0.00    -0.506 OA
ATOM     27  H   UNL     1      15.029   8.694  20.650  0.00  0.00    +0.292 HD
ENDBRANCH  18   5
ENDBRANCH  14  16
ENDBRANCH   6  14
ENDBRANCH   8   6
BRANCH  10   7
ATOM      7  N   UNL     1      12.790   9.153  22.377  0.00  0.00    -0.305 NA
ATOM     25  H   UNL     1      13.682   9.335  21.917  0.00  0.00    +0.123 HD
BRANCH   7  15
ATOM     15  C   UNL     1      12.256  10.409  22.878  0.00  0.00    +0.109 C 
BRANCH  15  17
ATOM     17  C   UNL     1      10.838  10.221  23.394  0.00  0.00    +0.174 C 
BRANCH  17   4
ATOM      4  O   UNL     1      10.438  11.406  24.069  0.00  0.00    -0.382 OA
ATOM     23  C   UNL     1      10.968  12.567  23.445  0.00  0.00    +0.194 C 
ENDBRANCH  17   4
ENDBRANCH  15  17
ENDBRANCH   7  15
ENDBRANCH  10   7
TORSDOF 9
ENDMDL
MODEL 4
REMARK VINA RESULT:      -5.5      4.227      7.147
REMARK  Name = 28960420
REMARK  10 active torsions:
REMARK  status: ('A' for Active; 'I' for Inactive)
REMARK    1  A    between atoms: O_3  and  C_11
REMARK    2  A    between atoms: O_4  and  C_17
REMARK    3  A    between atoms: O_4  and  C_23
REMARK    4  A    between atoms: O_5  and  C_18
REMARK    5  A    between atoms: N_6  and  C_8
REMARK    6  A    between atoms: N_6  and  C_14
REMARK    7  A    between atoms: N_7  and  C_10
REMARK    8  A    between atoms: N_7  and  C_15
REMARK    9  A    between atoms: C_14  and  C_16
REMARK   10  A    between atoms: C_15  and  C_17
REMARK                            x       y       z     vdW  Elec       q    Type
REMARK                         _______ _______ _______ _____ _____    ______ ____
ROOT
ATOM      1  O   UNL     1      13.202  11.707  22.391  0.00  0.00    -0.343 OA
ATOM      2  O   UNL     1      11.889  13.575  22.799  0.00  0.00    -0.347 OA
ATOM      8  C   UNL     1      11.107  10.587  22.835  0.00  0.00    +0.116 C 
ATOM      9  C   UNL     1      11.911  11.442  21.830  0.00  0.00    +0.166 C 
ATOM     10  C   UNL     1      12.318  12.035  24.613  0.00  0.00    +0.141 C 
ATOM     11  C   UNL     1      11.056  11.220  24.247  0.00  0.00    +0.156 C 
ATOM     12  C   UNL     1      12.898  12.719  23.360  0.00  0.00    +0.270 C 
ATOM     13  C   UNL     1      11.389  12.858  21.660  0.00  0.00    +0.196 C 
ENDROOT
BRANCH  11   3
ATOM      3  O   UNL     1       9.933  12.110  24.308  0.00  0.00    -0.388 OA
ATOM     26  H   UNL     1       9.356  11.804  25.030  0.00  0.00    +0.210 HD
ENDBRANCH  11   3
BRANCH   8   6
ATOM      6  N   UNL     1      11.714   9.253  22.889  0.00  0.00    -0.305 NA
ATOM     24  H   UNL     1      12.660   9.296  22.510  0.00  0.00    +0.123 HD
BRANCH   6  14
ATOM     14  C   UNL     1      10.938   8.306  22.107  0.00  0.00    +0.120 C 
BRANCH  14  16
ATOM     16  C   UNL     1      11.566   8.042  20.764  0.00  0.00    +0.008 A 
ATOM     18  C   UNL     1      12.723   7.271  20.656  0.00  0.00    +0.121 A 
ATOM     19  C   UNL     1      10.978   8.581  19.619  0.00  0.00    +0.008 A 
ATOM     20  C   UNL     1      13.292   7.039  19.404  0.00  0.00    +0.046 A 
ATOM     21  C   UNL     1      11.547   8.349  18.367  0.00  0.00    +0.001 A 
ATOM     22  C   UNL     1      12.704   7.578  18.259  0.00  0.00    +0.004 A 
BRANCH  18   5
ATOM      5  O   UNL     1      13.311   6.739  21.764  0.00  0.00    -0.506 OA
ATOM     27  H   UNL     1      13.099   7.296  22.533  0.00  0.00    +0.292 HD
ENDBRANCH  18   5
ENDBRANCH  14  16
ENDBRANCH   6  14
ENDBRANCH   8   6
BRANCH  10   7
ATOM      7  N   UNL     1      13.331  11.175  25.227  0.00  0.00    -0.305 NA
ATOM     25  H   UNL     1      13.546  10.398  24.603  0.00  0.00    +0.123 HD
BRANCH   7  15
ATOM     15  C   UNL     1      14.552  11.922  25.484  0.00  0.00    +0.109 C 
BRANCH  15  17
ATOM     17  C   UNL     1      15.172  11.499  26.805  0.00  0.00    +0.174 C 
BRANCH  17   4
ATOM      4  O   UNL     1      14.442  12.100  27.866  0.00  0.00    -0.382 OA
ATOM     23  C   UNL     1      14.345  13.508  27.700  0.00  0.00    +0.194 C 
ENDBRANCH  17   4
ENDBRANCH  15  17
ENDBRANCH   7  15
ENDBRANCH  10   7
TORSDOF 9
ENDMDL
MODEL 5
REMARK VINA RESULT:      -5.4     13.186     16.568
REMARK  Name = 28960420
REMARK  10 active torsions:
REMARK  status: ('A' for Active; 'I' for Inactive)
REMARK    1  A    between atoms: O_3  and  C_11
REMARK    2  A    between atoms: O_4  and  C_17
REMARK    3  A    between atoms: O_4  and  C_23
REMARK    4  A    between atoms: O_5  and  C_18
REMARK    5  A    between atoms: N_6  and  C_8
REMARK    6  A    between atoms: N_6  and  C_14
REMARK    7  A    between atoms: N_7  and  C_10
REMARK    8  A    between atoms: N_7  and  C_15
REMARK    9  A    between atoms: C_14  and  C_16
REMARK   10  A    between atoms: C_15  and  C_17
REMARK                            x       y       z     vdW  Elec       q    Type
REMARK                         _______ _______ _______ _____ _____    ______ ____
ROOT
ATOM      1  O   UNL     1      12.470   3.934   2.088  0.00  0.00    -0.343 OA
ATOM      2  O   UNL     1      11.757   5.127   0.232  0.00  0.00    -0.347 OA
ATOM      8  C   UNL     1      10.637   5.131   3.111  0.00  0.00    +0.116 C 
ATOM      9  C   UNL     1      11.041   3.989   2.151  0.00  0.00    +0.166 C 
ATOM     10  C   UNL     1      12.699   6.336   2.101  0.00  0.00    +0.141 C 
ATOM     11  C   UNL     1      11.299   6.481   2.741  0.00  0.00    +0.156 C 
ATOM     12  C   UNL     1      12.771   5.056   1.247  0.00  0.00    +0.270 C 
ATOM     13  C   UNL     1      10.712   4.257   0.693  0.00  0.00    +0.196 C 
ENDROOT
BRANCH  11   3
ATOM      3  O   UNL     1      10.459   7.157   1.794  0.00  0.00    -0.388 OA
ATOM     26  H   UNL     1       9.638   7.404   2.256  0.00  0.00    +0.210 HD
ENDBRANCH  11   3
BRANCH   8   6
ATOM      6  N   UNL     1      11.004   4.733   4.474  0.00  0.00    -0.305 NA
ATOM     24  H   UNL     1      11.646   3.941   4.434  0.00  0.00    +0.123 HD
BRANCH   6  14
ATOM     14  C   UNL     1       9.824   4.344   5.227  0.00  0.00    +0.120 C 
BRANCH  14  16
ATOM     16  C   UNL     1       9.464   5.367   6.271  0.00  0.00    +0.008 A 
ATOM     18  C   UNL     1       9.866   5.206   7.597  0.00  0.00    +0.121 A 
ATOM     19  C   UNL     1       8.716   6.485   5.900  0.00  0.00    +0.008 A 
ATOM     20  C   UNL     1       9.521   6.163   8.552  0.00  0.00    +0.046 A 
ATOM     21  C   UNL     1       8.371   7.442   6.855  0.00  0.00    +0.001 A 
ATOM     22  C   UNL     1       8.773   7.281   8.181  0.00  0.00    +0.004 A 
BRANCH  18   5
ATOM      5  O   UNL     1      10.595   4.119   7.976  0.00  0.00    -0.506 OA
ATOM     27  H   UNL     1      10.060   3.317   7.844  0.00  0.00    +0.292 HD
ENDBRANCH  18   5
ENDBRANCH  14  16
ENDBRANCH   6  14
ENDBRANCH   8   6
BRANCH  10   7
ATOM      7  N   UNL     1      13.740   6.310   3.130  0.00  0.00    -0.305 NA
ATOM     25  H   UNL     1      14.654   6.202   2.692  0.00  0.00    +0.123 HD
BRANCH   7  15
ATOM     15  C   UNL     1      13.732   7.542   3.901  0.00  0.00    +0.109 C 
BRANCH  15  17
ATOM     17  C   UNL     1      13.930   7.252   5.380  0.00  0.00    +0.174 C 
BRANCH  17   4
ATOM      4  O   UNL     1      12.657   7.063   5.983  0.00  0.00    -0.382 OA
ATOM     23  C   UNL     1      11.887   8.258   5.961  0.00  0.00    +0.194 C 
ENDBRANCH  17   4
ENDBRANCH  15  17
ENDBRANCH   7  15
ENDBRANCH  10   7
TORSDOF 9
ENDMDL
MODEL 6
REMARK VINA RESULT:      -5.4      1.824      5.507
REMARK  Name = 28960420
REMARK  10 active torsions:
REMARK  status: ('A' for Active; 'I' for Inactive)
REMARK    1  A    between atoms: O_3  and  C_11
REMARK    2  A    between atoms: O_4  and  C_17
REMARK    3  A    between atoms: O_4  and  C_23
REMARK    4  A    between atoms: O_5  and  C_18
REMARK    5  A    between atoms: N_6  and  C_8
REMARK    6  A    between atoms: N_6  and  C_14
REMARK    7  A    between atoms: N_7  and  C_10
REMARK    8  A    between atoms: N_7  and  C_15
REMARK    9  A    between atoms: C_14  and  C_16
REMARK   10  A    between atoms: C_15  and  C_17
REMARK                            x       y       z     vdW  Elec       q    Type
REMARK                         _______ _______ _______ _____ _____    ______ ____
ROOT
ATOM      1  O   UNL     1      13.010   9.517  20.507  0.00  0.00    -0.343 OA
ATOM      2  O   UNL     1      11.652   8.201  21.849  0.00  0.00    -0.347 OA
ATOM      8  C   UNL     1      12.362   7.871  18.861  0.00  0.00    +0.116 C 
ATOM      9  C   UNL     1      11.910   9.090  19.697  0.00  0.00    +0.166 C 
ATOM     10  C   UNL     1      13.705   7.257  20.992  0.00  0.00    +0.141 C 
ATOM     11  C   UNL     1      12.969   6.745  19.732  0.00  0.00    +0.156 C 
ATOM     12  C   UNL     1      13.018   8.522  21.540  0.00  0.00    +0.270 C 
ATOM     13  C   UNL     1      10.888   8.763  20.771  0.00  0.00    +0.196 C 
ENDROOT
BRANCH  11   3
ATOM      3  O   UNL     1      11.908   5.884  20.172  0.00  0.00    -0.388 OA
ATOM     26  H   UNL     1      11.096   6.163  19.712  0.00  0.00    +0.210 HD
ENDBRANCH  11   3
BRANCH   8   6
ATOM      6  N   UNL     1      13.334   8.334  17.865  0.00  0.00    -0.305 NA
ATOM     24  H   UNL     1      14.139   8.739  18.342  0.00  0.00    +0.123 HD
BRANCH   6  14
ATOM     14  C   UNL     1      12.742   9.343  17.005  0.00  0.00    +0.120 C 
BRANCH  14  16
ATOM     16  C   UNL     1      13.719  10.441  16.674  0.00  0.00    +0.008 A 
ATOM     18  C   UNL     1      13.673  11.089  15.440  0.00  0.00    +0.121 A 
ATOM     19  C   UNL     1      14.679  10.805  17.618  0.00  0.00    +0.008 A 
ATOM     20  C   UNL     1      14.588  12.101  15.149  0.00  0.00    +0.046 A 
ATOM     21  C   UNL     1      15.594  11.817  17.327  0.00  0.00    +0.001 A 
ATOM     22  C   UNL     1      15.549  12.465  16.093  0.00  0.00    +0.004 A 
BRANCH  18   5
ATOM      5  O   UNL     1      12.743  10.744  14.506  0.00  0.00    -0.506 OA
ATOM     27  H   UNL     1      13.168  10.711  13.632  0.00  0.00    +0.292 HD
ENDBRANCH  18   5
ENDBRANCH  14  16
ENDBRANCH   6  14
ENDBRANCH   8   6
BRANCH  10   7
ATOM      7  N   UNL     1      15.110   7.541  20.692  0.00  0.00    -0.305 NA
ATOM     25  H   UNL     1      15.528   8.057  21.466  0.00  0.00    +0.123 HD
BRANCH   7  15
ATOM     15  C   UNL     1      15.853   6.308  20.495  0.00  0.00    +0.109 C 
BRANCH  15  17
ATOM     17  C   UNL     1      16.477   6.273  19.109  0.00  0.00    +0.174 C 
BRANCH  17   4
ATOM      4  O   UNL     1      17.773   5.697  19.205  0.00  0.00    -0.382 OA
ATOM     23  C   UNL     1      18.543   6.316  20.227  0.00  0.00    +0.194 C 
ENDBRANCH  17   4
ENDBRANCH  15  17
ENDBRANCH   7  15
ENDBRANCH  10   7
TORSDOF 9
ENDMDL
MODEL 7
REMARK VINA RESULT:      -5.4      3.138      5.227
REMARK  Name = 28960420
REMARK  10 active torsions:
REMARK  status: ('A' for Active; 'I' for Inactive)
REMARK    1  A    between atoms: O_3  and  C_11
REMARK    2  A    between atoms: O_4  and  C_17
REMARK    3  A    between atoms: O_4  and  C_23
REMARK    4  A    between atoms: O_5  and  C_18
REMARK    5  A    between atoms: N_6  and  C_8
REMARK    6  A    between atoms: N_6  and  C_14
REMARK    7  A    between atoms: N_7  and  C_10
REMARK    8  A    between atoms: N_7  and  C_15
REMARK    9  A    between atoms: C_14  and  C_16
REMARK   10  A    between atoms: C_15  and  C_17
REMARK                            x       y       z     vdW  Elec       q    Type
REMARK                         _______ _______ _______ _____ _____    ______ ____
ROOT
ATOM      1  O   UNL     1      13.167  11.468  24.347  0.00  0.00    -0.343 OA
ATOM      2  O   UNL     1      11.253  12.760  24.565  0.00  0.00    -0.347 OA
ATOM      8  C   UNL     1      12.988  12.239  22.063  0.00  0.00    +0.116 C 
ATOM      9  C   UNL     1      13.344  12.622  23.517  0.00  0.00    +0.166 C 
ATOM     10  C   UNL     1      11.166  10.775  23.187  0.00  0.00    +0.141 C 
ATOM     11  C   UNL     1      11.585  11.594  21.944  0.00  0.00    +0.156 C 
ATOM     12  C   UNL     1      11.739  11.411  24.468  0.00  0.00    +0.270 C 
ATOM     13  C   UNL     1      12.361  13.581  24.166  0.00  0.00    +0.196 C 
ENDROOT
BRANCH  11   3
ATOM      3  O   UNL     1      10.616  12.637  21.767  0.00  0.00    -0.388 OA
ATOM     26  H   UNL     1      10.237  12.536  20.876  0.00  0.00    +0.210 HD
ENDBRANCH  11   3
BRANCH   8   6
ATOM      6  N   UNL     1      14.020  11.323  21.566  0.00  0.00    -0.305 NA
ATOM     24  H   UNL     1      14.809  11.863  21.212  0.00  0.00    +0.123 HD
BRANCH   6  14
ATOM     14  C   UNL     1      13.496  10.499  20.490  0.00  0.00    +0.120 C 
BRANCH  14  16
ATOM     16  C   UNL     1      14.217   9.180  20.393  0.00  0.00    +0.008 A 
ATOM     18  C   UNL     1      14.657   8.521  21.540  0.00  0.00    +0.121 A 
ATOM     19  C   UNL     1      14.446   8.621  19.135  0.00  0.00    +0.008 A 
ATOM     20  C   UNL     1      15.326   7.301  21.430  0.00  0.00    +0.046 A 
ATOM     21  C   UNL     1      15.114   7.401  19.026  0.00  0.00    +0.001 A 
ATOM     22  C   UNL     1      15.554   6.741  20.173  0.00  0.00    +0.004 A 
BRANCH  18   5
ATOM      5  O   UNL     1      14.443   9.055  22.775  0.00  0.00    -0.506 OA
ATOM     27  H   UNL     1      15.208   8.856  23.343  0.00  0.00    +0.292 HD
ENDBRANCH  18   5
ENDBRANCH  14  16
ENDBRANCH   6  14
ENDBRANCH   8   6
BRANCH  10   7
ATOM      7  N   UNL     1      11.620   9.388  23.072  0.00  0.00    -0.305 NA
ATOM     25  H   UNL     1      11.945   9.057  23.980  0.00  0.00    +0.123 HD
BRANCH   7  15
ATOM     15  C   UNL     1      10.537   8.529  22.621  0.00  0.00    +0.109 C 
BRANCH  15  17
ATOM     17  C   UNL     1      10.904   7.845  21.314  0.00  0.00    +0.174 C 
BRANCH  17   4
ATOM      4  O   UNL     1      11.781   6.763  21.594  0.00  0.00    -0.382 OA
ATOM     23  C   UNL     1      11.100   5.516  21.557  0.00  0.00    +0.194 C 
ENDBRANCH  17   4
ENDBRANCH  15  17
ENDBRANCH   7  15
ENDBRANCH  10   7
TORSDOF 9
ENDMDL
MODEL 8
REMARK VINA RESULT:      -5.4     25.931     27.840
REMARK  Name = 28960420
REMARK  10 active torsions:
REMARK  status: ('A' for Active; 'I' for Inactive)
REMARK    1  A    between atoms: O_3  and  C_11
REMARK    2  A    between atoms: O_4  and  C_17
REMARK    3  A    between atoms: O_4  and  C_23
REMARK    4  A    between atoms: O_5  and  C_18
REMARK    5  A    between atoms: N_6  and  C_8
REMARK    6  A    between atoms: N_6  and  C_14
REMARK    7  A    between atoms: N_7  and  C_10
REMARK    8  A    between atoms: N_7  and  C_15
REMARK    9  A    between atoms: C_14  and  C_16
REMARK   10  A    between atoms: C_15  and  C_17
REMARK                            x       y       z     vdW  Elec       q    Type
REMARK                         _______ _______ _______ _____ _____    ______ ____
ROOT
ATOM      1  O   UNL     1      -3.947 -11.141  13.336  0.00  0.00    -0.343 OA
ATOM      2  O   UNL     1      -2.407 -11.448  11.629  0.00  0.00    -0.347 OA
ATOM      8  C   UNL     1      -2.087 -11.925  14.664  0.00  0.00    +0.116 C 
ATOM      9  C   UNL     1      -2.670 -10.748  13.850  0.00  0.00    +0.166 C 
ATOM     10  C   UNL     1      -3.207 -13.383  12.836  0.00  0.00    +0.141 C 
ATOM     11  C   UNL     1      -2.056 -13.247  13.860  0.00  0.00    +0.156 C 
ATOM     12  C   UNL     1      -3.574 -12.005  12.254  0.00  0.00    +0.270 C 
ATOM     13  C   UNL     1      -1.929 -10.460  12.556  0.00  0.00    +0.196 C 
ENDROOT
BRANCH  11   3
ATOM      3  O   UNL     1      -0.821 -13.311  13.133  0.00  0.00    -0.388 OA
ATOM     26  H   UNL     1      -0.596 -14.252  13.020  0.00  0.00    +0.210 HD
ENDBRANCH  11   3
BRANCH   8   6
ATOM      6  N   UNL     1      -2.890 -12.081  15.882  0.00  0.00    -0.305 NA
ATOM     24  H   UNL     1      -3.777 -12.526  15.647  0.00  0.00    +0.123 HD
BRANCH   6  14
ATOM     14  C   UNL     1      -3.160 -10.787  16.485  0.00  0.00    +0.120 C 
BRANCH  14  16
ATOM     16  C   UNL     1      -4.343 -10.838  17.414  0.00  0.00    +0.008 A 
ATOM     18  C   UNL     1      -4.261 -11.501  18.639  0.00  0.00    +0.121 A 
ATOM     19  C   UNL     1      -5.533 -10.214  17.038  0.00  0.00    +0.008 A 
ATOM     20  C   UNL     1      -5.368 -11.541  19.486  0.00  0.00    +0.046 A 
ATOM     21  C   UNL     1      -6.640 -10.253  17.885  0.00  0.00    +0.001 A 
ATOM     22  C   UNL     1      -6.558 -10.917  19.110  0.00  0.00    +0.004 A 
BRANCH  18   5
ATOM      5  O   UNL     1      -3.107 -12.117  19.021  0.00  0.00    -0.506 OA
ATOM     27  H   UNL     1      -2.689 -12.520  18.239  0.00  0.00    +0.292 HD
ENDBRANCH  18   5
ENDBRANCH  14  16
ENDBRANCH   6  14
ENDBRANCH   8   6
BRANCH  10   7
ATOM      7  N   UNL     1      -4.384 -13.994  13.456  0.00  0.00    -0.305 NA
ATOM     25  H   UNL     1      -5.053 -14.261  12.735  0.00  0.00    +0.123 HD
BRANCH   7  15
ATOM     15  C   UNL     1      -4.010 -15.179  14.212  0.00  0.00    +0.109 C 
BRANCH  15  17
ATOM     17  C   UNL     1      -4.809 -15.267  15.502  0.00  0.00    +0.174 C 
BRANCH  17   4
ATOM      4  O   UNL     1      -5.090 -13.949  15.956  0.00  0.00    -0.382 OA
ATOM     23  C   UNL     1      -6.371 -13.871  16.568  0.00  0.00    +0.194 C 
ENDBRANCH  17   4
ENDBRANCH  15  17
ENDBRANCH   7  15
ENDBRANCH  10   7
TORSDOF 9
ENDMDL
MODEL 9
REMARK VINA RESULT:      -5.2     25.753     27.834
REMARK  Name = 28960420
REMARK  10 active torsions:
REMARK  status: ('A' for Active; 'I' for Inactive)
REMARK    1  A    between atoms: O_3  and  C_11
REMARK    2  A    between atoms: O_4  and  C_17
REMARK    3  A    between atoms: O_4  and  C_23
REMARK    4  A    between atoms: O_5  and  C_18
REMARK    5  A    between atoms: N_6  and  C_8
REMARK    6  A    between atoms: N_6  and  C_14
REMARK    7  A    between atoms: N_7  and  C_10
REMARK    8  A    between atoms: N_7  and  C_15
REMARK    9  A    between atoms: C_14  and  C_16
REMARK   10  A    between atoms: C_15  and  C_17
REMARK                            x       y       z     vdW  Elec       q    Type
REMARK                         _______ _______ _______ _____ _____    ______ ____
ROOT
ATOM      1  O   UNL     1      -7.344 -11.760  16.352  0.00  0.00    -0.343 OA
ATOM      2  O   UNL     1      -8.835 -12.390  18.012  0.00  0.00    -0.347 OA
ATOM      8  C   UNL     1      -6.049 -11.084  18.277  0.00  0.00    +0.116 C 
ATOM      9  C   UNL     1      -6.566 -12.274  17.439  0.00  0.00    +0.166 C 
ATOM     10  C   UNL     1      -8.355 -10.040  17.711  0.00  0.00    +0.141 C 
ATOM     11  C   UNL     1      -7.185 -10.129  18.719  0.00  0.00    +0.156 C 
ATOM     12  C   UNL     1      -8.564 -11.396  17.010  0.00  0.00    +0.270 C 
ATOM     13  C   UNL     1      -7.608 -13.125  18.143  0.00  0.00    +0.196 C 
ENDROOT
BRANCH  11   3
ATOM      3  O   UNL     1      -7.721 -10.601  19.963  0.00  0.00    -0.388 OA
ATOM     26  H   UNL     1      -7.997 -11.526  19.830  0.00  0.00    +0.210 HD
ENDBRANCH  11   3
BRANCH   8   6
ATOM      6  N   UNL     1      -5.050 -10.363  17.480  0.00  0.00    -0.305 NA
ATOM     24  H   UNL     1      -5.482 -10.029  16.619  0.00  0.00    +0.123 HD
BRANCH   6  14
ATOM     14  C   UNL     1      -3.941 -11.237  17.140  0.00  0.00    +0.120 C 
BRANCH  14  16
ATOM     16  C   UNL     1      -3.432 -10.980  15.746  0.00  0.00    +0.008 A 
ATOM     18  C   UNL     1      -2.065 -10.859  15.497  0.00  0.00    +0.121 A 
ATOM     19  C   UNL     1      -4.345 -10.860  14.699  0.00  0.00    +0.008 A 
ATOM     20  C   UNL     1      -1.611 -10.618  14.200  0.00  0.00    +0.046 A 
ATOM     21  C   UNL     1      -3.891 -10.618  13.402  0.00  0.00    +0.001 A 
ATOM     22  C   UNL     1      -2.524 -10.498  13.152  0.00  0.00    +0.004 A 
BRANCH  18   5
ATOM      5  O   UNL     1      -1.160 -10.972  16.509  0.00  0.00    -0.506 OA
ATOM     27  H   UNL     1      -0.411 -11.513  16.205  0.00  0.00    +0.292 HD
ENDBRANCH  18   5
ENDBRANCH  14  16
ENDBRANCH   6  14
ENDBRANCH   8   6
BRANCH  10   7
ATOM      7  N   UNL     1      -8.104  -8.997  16.715  0.00  0.00    -0.305 NA
ATOM     25  H   UNL     1      -7.554  -9.381  15.947  0.00  0.00    +0.123 HD
BRANCH   7  15
ATOM     15  C   UNL     1      -9.355  -8.481  16.185  0.00  0.00    +0.109 C 
BRANCH  15  17
ATOM     17  C   UNL     1     -10.187  -7.851  17.290  0.00  0.00    +0.174 C 
BRANCH  17   4
ATOM      4  O   UNL     1     -11.096  -6.926  16.707  0.00  0.00    -0.382 OA
ATOM     23  C   UNL     1     -10.525  -6.275  15.579  0.00  0.00    +0.194 C 
ENDBRANCH  17   4
ENDBRANCH  15  17
ENDBRANCH   7  15
ENDBRANCH  10   7
TORSDOF 9
ENDMDL
MODEL 10
REMARK VINA RESULT:      -5.2     26.252     27.750
REMARK  Name = 28960420
REMARK  10 active torsions:
REMARK  status: ('A' for Active; 'I' for Inactive)
REMARK    1  A    between atoms: O_3  and  C_11
REMARK    2  A    between atoms: O_4  and  C_17
REMARK    3  A    between atoms: O_4  and  C_23
REMARK    4  A    between atoms: O_5  and  C_18
REMARK    5  A    between atoms: N_6  and  C_8
REMARK    6  A    between atoms: N_6  and  C_14
REMARK    7  A    between atoms: N_7  and  C_10
REMARK    8  A    between atoms: N_7  and  C_15
REMARK    9  A    between atoms: C_14  and  C_16
REMARK   10  A    between atoms: C_15  and  C_17
REMARK                            x       y       z     vdW  Elec       q    Type
REMARK                         _______ _______ _______ _____ _____    ______ ____
ROOT
ATOM      1  O   UNL     1      -5.623 -11.960  14.592  0.00  0.00    -0.343 OA
ATOM      2  O   UNL     1      -5.397 -13.127  16.584  0.00  0.00    -0.347 OA
ATOM      8  C   UNL     1      -3.348 -11.339  15.119  0.00  0.00    +0.116 C 
ATOM      9  C   UNL     1      -4.284 -12.467  14.630  0.00  0.00    +0.166 C 
ATOM     10  C   UNL     1      -5.352 -10.710  16.640  0.00  0.00    +0.141 C 
ATOM     11  C   UNL     1      -3.816 -10.714  16.455  0.00  0.00    +0.156 C 
ATOM     12  C   UNL     1      -5.975 -11.957  15.982  0.00  0.00    +0.270 C 
ATOM     13  C   UNL     1      -4.451 -13.609  15.618  0.00  0.00    +0.196 C 
ENDROOT
BRANCH  11   3
ATOM      3  O   UNL     1      -3.253 -11.470  17.536  0.00  0.00    -0.388 OA
ATOM     26  H   UNL     1      -3.749 -11.242  18.342  0.00  0.00    +0.210 HD
ENDBRANCH  11   3
BRANCH   8   6
ATOM      6  N   UNL     1      -3.275 -10.318  14.068  0.00  0.00    -0.305 NA
ATOM     24  H   UNL     1      -4.103  -9.724  14.117  0.00  0.00    +0.123 HD
BRANCH   6  14
ATOM     14  C   UNL     1      -3.220 -10.938  12.756  0.00  0.00    +0.120 C 
BRANCH  14  16
ATOM     16  C   UNL     1      -3.842 -10.066  11.698  0.00  0.00    +0.008 A 
ATOM     18  C   UNL     1      -5.113  -9.521  11.878  0.00  0.00    +0.121 A 
ATOM     19  C   UNL     1      -3.132  -9.808  10.524  0.00  0.00    +0.008 A 
ATOM     20  C   UNL     1      -5.674  -8.717  10.886  0.00  0.00    +0.046 A 
ATOM     21  C   UNL     1      -3.694  -9.004   9.532  0.00  0.00    +0.001 A 
ATOM     22  C   UNL     1      -4.965  -8.459   9.712  0.00  0.00    +0.004 A 
BRANCH  18   5
ATOM      5  O   UNL     1      -5.819  -9.764  13.017  0.00  0.00    -0.506 OA
ATOM     27  H   UNL     1      -5.491  -9.182  13.724  0.00  0.00    +0.292 HD
ENDBRANCH  18   5
ENDBRANCH  14  16
ENDBRANCH   6  14
ENDBRANCH   8   6
BRANCH  10   7
ATOM      7  N   UNL     1      -5.940  -9.498  16.068  0.00  0.00    -0.305 NA
ATOM     25  H   UNL     1      -5.776  -9.477  15.063  0.00  0.00    +0.123 HD
BRANCH   7  15
ATOM     15  C   UNL     1      -7.373  -9.459  16.310  0.00  0.00    +0.109 C 
BRANCH  15  17
ATOM     17  C   UNL     1      -7.667  -9.474  17.801  0.00  0.00    +0.174 C 
BRANCH  17   4
ATOM      4  O   UNL     1      -8.745 -10.367  18.046  0.00  0.00    -0.382 OA
ATOM     23  C   UNL     1      -8.570 -11.074  19.266  0.00  0.00    +0.194 C 
ENDBRANCH  17   4
ENDBRANCH  15  17
ENDBRANCH   7  15
ENDBRANCH  10   7
TORSDOF 9
ENDMDL
