MODEL 1
REMARK VINA RESULT:      -6.9      0.000      0.000
REMARK  Name = 44716383
REMARK  8 active torsions:
REMARK  status: ('A' for Active; 'I' for Inactive)
REMARK    1  A    between atoms: S_1  and  N_9
REMARK    2  A    between atoms: S_1  and  C_30
REMARK    3  A    between atoms: O_5  and  C_35
REMARK    4  A    between atoms: O_5  and  C_36
REMARK    5  A    between atoms: N_7  and  C_16
REMARK    6  A    between atoms: N_9  and  C_23
REMARK    7  A    between atoms: C_11  and  C_16
REMARK    8  A    between atoms: C_13  and  C_23
REMARK                            x       y       z     vdW  Elec       q    Type
REMARK                         _______ _______ _______ _____ _____    ______ ____
ROOT
ATOM      6  N   UNL     1      14.049   7.177   5.444  0.00  0.00    -0.298 NA
ATOM     10  C   UNL     1      14.342   9.762   5.484  0.00  0.00    -0.003 C 
ATOM     11  C   UNL     1      13.327   9.304   6.557  0.00  0.00    +0.020 C 
ATOM     12  C   UNL     1      13.872   9.278   4.099  0.00  0.00    +0.024 C 
ATOM     13  C   UNL     1      13.853   7.734   4.078  0.00  0.00    +0.072 C 
ATOM     14  C   UNL     1      13.085   7.787   6.392  0.00  0.00    +0.089 C 
ATOM     15  C   UNL     1      15.671   9.046   5.792  0.00  0.00    +0.019 C 
ATOM     17  C   UNL     1      15.420   7.531   5.888  0.00  0.00    +0.085 C 
ENDROOT
BRANCH  11  16
ATOM     16  C   UNL     1      12.024  10.087   6.522  0.00  0.00    +0.089 C 
BRANCH  16   7
ATOM      2  O   UNL     1      10.193   4.366   5.185  0.00  0.00    -0.268 OA
ATOM      7  N   UNL     1      10.877   9.195   6.370  0.00  0.00    -0.301 NA
ATOM      8  N   UNL     1       9.453   6.346   6.192  0.00  0.00    -0.312 N 
ATOM     18  C   UNL     1       8.980   8.498   4.885  0.00  0.00    +0.024 C 
ATOM     19  C   UNL     1       8.683   8.463   7.317  0.00  0.00    +0.050 C 
ATOM     20  C   UNL     1      10.232   9.383   5.065  0.00  0.00    +0.089 C 
ATOM     21  C   UNL     1       9.921   9.376   7.473  0.00  0.00    +0.094 C 
ATOM     22  C   UNL     1       7.980   8.779   5.999  0.00  0.00    +0.017 C 
ATOM     24  C   UNL     1       9.315   7.000   4.884  0.00  0.00    +0.130 C 
ATOM     25  C   UNL     1       9.090   7.002   7.373  0.00  0.00    +0.026 A 
ATOM     26  C   UNL     1       9.122   6.348   8.547  0.00  0.00    +0.022 A 
ATOM     27  C   UNL     1       9.875   5.003   6.188  0.00  0.00    +0.251 A 
ATOM     28  C   UNL     1       9.546   4.978   8.612  0.00  0.00    +0.007 A 
ATOM     29  C   UNL     1       9.919   4.320   7.511  0.00  0.00    +0.070 A 
ENDBRANCH  16   7
ENDBRANCH  11  16
BRANCH  13  23
ATOM     23  C   UNL     1      12.591   7.190   3.403  0.00  0.00    +0.124 C 
BRANCH  23   9
ATOM      9  N   UNL     1      12.585   5.737   3.417  0.00  0.00    -0.188 NA
ATOM     37  H   UNL     1      13.311   5.279   3.980  0.00  0.00    +0.148 HD
BRANCH   9   1
ATOM      1  S   UNL     1      11.996   4.852   2.074  0.00  0.00    +0.058 S 
ATOM      3  O   UNL     1      11.104   5.699   1.306  0.00  0.00    -0.153 OA
ATOM      4  O   UNL     1      11.561   3.539   2.508  0.00  0.00    -0.153 OA
BRANCH   1  30
ATOM     30  C   UNL     1      13.473   4.621   1.130  0.00  0.00    +0.105 A 
ATOM     31  C   UNL     1      13.647   5.307  -0.071  0.00  0.00    +0.032 A 
ATOM     32  C   UNL     1      14.463   3.749   1.586  0.00  0.00    +0.032 A 
ATOM     33  C   UNL     1      14.811   5.123  -0.818  0.00  0.00    +0.047 A 
ATOM     34  C   UNL     1      15.627   3.565   0.839  0.00  0.00    +0.047 A 
ATOM     35  C   UNL     1      15.801   4.251  -0.363  0.00  0.00    +0.120 A 
BRANCH  35   5
ATOM      5  O   UNL     1      16.937   4.071  -1.090  0.00  0.00    -0.495 OA
ATOM     36  C   UNL     1      17.340   5.145  -1.939  0.00  0.00    +0.277 C 
ENDBRANCH  35   5
ENDBRANCH   1  30
ENDBRANCH   9   1
ENDBRANCH  23   9
ENDBRANCH  13  23
TORSDOF 7
ENDMDL
MODEL 2
REMARK VINA RESULT:      -6.9      2.109      2.672
REMARK  Name = 44716383
REMARK  8 active torsions:
REMARK  status: ('A' for Active; 'I' for Inactive)
REMARK    1  A    between atoms: S_1  and  N_9
REMARK    2  A    between atoms: S_1  and  C_30
REMARK    3  A    between atoms: O_5  and  C_35
REMARK    4  A    between atoms: O_5  and  C_36
REMARK    5  A    between atoms: N_7  and  C_16
REMARK    6  A    between atoms: N_9  and  C_23
REMARK    7  A    between atoms: C_11  and  C_16
REMARK    8  A    between atoms: C_13  and  C_23
REMARK                            x       y       z     vdW  Elec       q    Type
REMARK                         _______ _______ _______ _____ _____    ______ ____
ROOT
ATOM      6  N   UNL     1      13.969   7.138   4.996  0.00  0.00    -0.298 NA
ATOM     10  C   UNL     1      14.253   9.606   4.223  0.00  0.00    -0.003 C 
ATOM     11  C   UNL     1      13.117   9.481   5.265  0.00  0.00    +0.020 C 
ATOM     12  C   UNL     1      13.953   8.681   3.029  0.00  0.00    +0.024 C 
ATOM     13  C   UNL     1      13.938   7.214   3.510  0.00  0.00    +0.072 C 
ATOM     14  C   UNL     1      12.898   7.984   5.578  0.00  0.00    +0.089 C 
ATOM     15  C   UNL     1      15.536   9.082   4.896  0.00  0.00    +0.019 C 
ATOM     17  C   UNL     1      15.276   7.670   5.453  0.00  0.00    +0.085 C 
ENDROOT
BRANCH  11  16
ATOM     16  C   UNL     1      11.828  10.158   4.829  0.00  0.00    +0.089 C 
BRANCH  16   7
ATOM      2  O   UNL     1      10.049   4.307   5.521  0.00  0.00    -0.268 OA
ATOM      7  N   UNL     1      10.687   9.255   4.960  0.00  0.00    -0.301 NA
ATOM      8  N   UNL     1       9.272   6.505   5.744  0.00  0.00    -0.312 N 
ATOM     18  C   UNL     1       8.847   8.056   3.750  0.00  0.00    +0.024 C 
ATOM     19  C   UNL     1       8.461   8.871   6.028  0.00  0.00    +0.050 C 
ATOM     20  C   UNL     1      10.091   8.964   3.651  0.00  0.00    +0.089 C 
ATOM     21  C   UNL     1       9.692   9.797   5.896  0.00  0.00    +0.094 C 
ATOM     22  C   UNL     1       7.806   8.696   4.660  0.00  0.00    +0.017 C 
ATOM     24  C   UNL     1       9.182   6.657   4.286  0.00  0.00    +0.130 C 
ATOM     25  C   UNL     1       8.865   7.529   6.606  0.00  0.00    +0.026 A 
ATOM     26  C   UNL     1       8.854   7.328   7.936  0.00  0.00    +0.022 A 
ATOM     27  C   UNL     1       9.694   5.251   6.226  0.00  0.00    +0.251 A 
ATOM     28  C   UNL     1       9.276   6.073   8.492  0.00  0.00    +0.007 A 
ATOM     29  C   UNL     1       9.690   5.076   7.705  0.00  0.00    +0.070 A 
ENDBRANCH  16   7
ENDBRANCH  11  16
BRANCH  13  23
ATOM     23  C   UNL     1      12.766   6.432   2.911  0.00  0.00    +0.124 C 
BRANCH  23   9
ATOM      9  N   UNL     1      13.216   5.589   1.817  0.00  0.00    -0.188 NA
ATOM     37  H   UNL     1      13.417   6.058   0.926  0.00  0.00    +0.148 HD
BRANCH   9   1
ATOM      1  S   UNL     1      12.723   3.951   1.715  0.00  0.00    +0.058 S 
ATOM      3  O   UNL     1      11.634   3.728   2.647  0.00  0.00    -0.153 OA
ATOM      4  O   UNL     1      13.889   3.089   1.736  0.00  0.00    -0.153 OA
BRANCH   1  30
ATOM     30  C   UNL     1      12.060   3.883   0.078  0.00  0.00    +0.105 A 
ATOM     31  C   UNL     1      10.937   4.640  -0.252  0.00  0.00    +0.032 A 
ATOM     32  C   UNL     1      12.660   3.070  -0.885  0.00  0.00    +0.032 A 
ATOM     33  C   UNL     1      10.411   4.585  -1.543  0.00  0.00    +0.047 A 
ATOM     34  C   UNL     1      12.135   3.014  -2.176  0.00  0.00    +0.047 A 
ATOM     35  C   UNL     1      11.011   3.771  -2.505  0.00  0.00    +0.120 A 
BRANCH  35   5
ATOM      5  O   UNL     1      10.499   3.717  -3.765  0.00  0.00    -0.495 OA
ATOM     36  C   UNL     1       9.427   2.804  -3.991  0.00  0.00    +0.277 C 
ENDBRANCH  35   5
ENDBRANCH   1  30
ENDBRANCH   9   1
ENDBRANCH  23   9
ENDBRANCH  13  23
TORSDOF 7
ENDMDL
MODEL 3
REMARK VINA RESULT:      -6.8     23.936     27.778
REMARK  Name = 44716383
REMARK  8 active torsions:
REMARK  status: ('A' for Active; 'I' for Inactive)
REMARK    1  A    between atoms: S_1  and  N_9
REMARK    2  A    between atoms: S_1  and  C_30
REMARK    3  A    between atoms: O_5  and  C_35
REMARK    4  A    between atoms: O_5  and  C_36
REMARK    5  A    between atoms: N_7  and  C_16
REMARK    6  A    between atoms: N_9  and  C_23
REMARK    7  A    between atoms: C_11  and  C_16
REMARK    8  A    between atoms: C_13  and  C_23
REMARK                            x       y       z     vdW  Elec       q    Type
REMARK                         _______ _______ _______ _____ _____    ______ ____
ROOT
ATOM      6  N   UNL     1      -5.038 -12.688  16.929  0.00  0.00    -0.298 NA
ATOM     10  C   UNL     1      -5.511 -10.210  17.561  0.00  0.00    -0.003 C 
ATOM     11  C   UNL     1      -6.744 -10.852  16.885  0.00  0.00    +0.020 C 
ATOM     12  C   UNL     1      -4.297 -10.321  16.619  0.00  0.00    +0.024 C 
ATOM     13  C   UNL     1      -3.965 -11.811  16.388  0.00  0.00    +0.072 C 
ATOM     14  C   UNL     1      -6.360 -12.269  16.404  0.00  0.00    +0.089 C 
ATOM     15  C   UNL     1      -5.197 -11.053  18.812  0.00  0.00    +0.019 C 
ATOM     17  C   UNL     1      -5.057 -12.531  18.404  0.00  0.00    +0.085 C 
ENDROOT
BRANCH  11  16
ATOM     16  C   UNL     1      -7.313 -10.010  15.754  0.00  0.00    +0.089 C 
BRANCH  16   7
ATOM      2  O   UNL     1     -11.577  -5.627  15.064  0.00  0.00    -0.268 OA
ATOM      7  N   UNL     1      -8.694  -9.622  16.029  0.00  0.00    -0.301 NA
ATOM      8  N   UNL     1     -11.341  -7.900  15.575  0.00  0.00    -0.312 N 
ATOM     18  C   UNL     1     -10.295  -8.753  17.752  0.00  0.00    +0.024 C 
ATOM     19  C   UNL     1     -11.083 -10.354  16.074  0.00  0.00    +0.050 C 
ATOM     20  C   UNL     1      -8.838  -9.123  17.402  0.00  0.00    +0.089 C 
ATOM     21  C   UNL     1      -9.617 -10.734  15.761  0.00  0.00    +0.094 C 
ATOM     22  C   UNL     1     -11.203  -9.958  17.543  0.00  0.00    +0.017 C 
ATOM     24  C   UNL     1     -10.822  -7.582  16.911  0.00  0.00    +0.130 C 
ATOM     25  C   UNL     1     -11.543  -9.225  15.172  0.00  0.00    +0.026 A 
ATOM     26  C   UNL     1     -12.120  -9.491  13.987  0.00  0.00    +0.022 A 
ATOM     27  C   UNL     1     -11.714  -6.813  14.762  0.00  0.00    +0.251 A 
ATOM     28  C   UNL     1     -12.520  -8.426  13.110  0.00  0.00    +0.007 A 
ATOM     29  C   UNL     1     -12.329  -7.149  13.448  0.00  0.00    +0.070 A 
ENDBRANCH  16   7
ENDBRANCH  11  16
BRANCH  13  23
ATOM     23  C   UNL     1      -3.659 -12.104  14.917  0.00  0.00    +0.124 C 
BRANCH  23   9
ATOM      9  N   UNL     1      -3.491 -10.869  14.170  0.00  0.00    -0.188 NA
ATOM     37  H   UNL     1      -4.231 -10.164  14.274  0.00  0.00    +0.148 HD
BRANCH   9   1
ATOM      1  S   UNL     1      -2.630 -10.852  12.689  0.00  0.00    +0.058 S 
ATOM      3  O   UNL     1      -2.506 -12.213  12.202  0.00  0.00    -0.153 OA
ATOM      4  O   UNL     1      -1.454 -10.014  12.818  0.00  0.00    -0.153 OA
BRANCH   1  30
ATOM     30  C   UNL     1      -3.761  -9.997  11.634  0.00  0.00    +0.105 A 
ATOM     31  C   UNL     1      -5.076  -9.786  12.046  0.00  0.00    +0.032 A 
ATOM     32  C   UNL     1      -3.339  -9.535  10.386  0.00  0.00    +0.032 A 
ATOM     33  C   UNL     1      -5.970  -9.113  11.212  0.00  0.00    +0.047 A 
ATOM     34  C   UNL     1      -4.232  -8.863   9.552  0.00  0.00    +0.047 A 
ATOM     35  C   UNL     1      -5.548  -8.653   9.965  0.00  0.00    +0.120 A 
BRANCH  35   5
ATOM      5  O   UNL     1      -6.419  -7.996   9.151  0.00  0.00    -0.495 OA
ATOM     36  C   UNL     1      -7.803  -8.312   9.293  0.00  0.00    +0.277 C 
ENDBRANCH  35   5
ENDBRANCH   1  30
ENDBRANCH   9   1
ENDBRANCH  23   9
ENDBRANCH  13  23
TORSDOF 7
ENDMDL
MODEL 4
REMARK VINA RESULT:      -6.7      2.495      4.241
REMARK  Name = 44716383
REMARK  8 active torsions:
REMARK  status: ('A' for Active; 'I' for Inactive)
REMARK    1  A    between atoms: S_1  and  N_9
REMARK    2  A    between atoms: S_1  and  C_30
REMARK    3  A    between atoms: O_5  and  C_35
REMARK    4  A    between atoms: O_5  and  C_36
REMARK    5  A    between atoms: N_7  and  C_16
REMARK    6  A    between atoms: N_9  and  C_23
REMARK    7  A    between atoms: C_11  and  C_16
REMARK    8  A    between atoms: C_13  and  C_23
REMARK                            x       y       z     vdW  Elec       q    Type
REMARK                         _______ _______ _______ _____ _____    ______ ____
ROOT
ATOM      6  N   UNL     1      11.620   8.136   2.207  0.00  0.00    -0.298 NA
ATOM     10  C   UNL     1       9.194   7.510   1.505  0.00  0.00    -0.003 C 
ATOM     11  C   UNL     1       9.221   8.102   2.934  0.00  0.00    +0.020 C 
ATOM     12  C   UNL     1      10.124   6.283   1.445  0.00  0.00    +0.024 C 
ATOM     13  C   UNL     1      11.576   6.729   1.726  0.00  0.00    +0.072 C 
ATOM     14  C   UNL     1      10.692   8.319   3.350  0.00  0.00    +0.089 C 
ATOM     15  C   UNL     1       9.787   8.579   0.567  0.00  0.00    +0.019 C 
ATOM     17  C   UNL     1      11.165   9.012   1.099  0.00  0.00    +0.085 C 
ENDROOT
BRANCH  11  16
ATOM     16  C   UNL     1       8.470   7.254   3.947  0.00  0.00    +0.089 C 
BRANCH  16   7
ATOM      2  O   UNL     1      13.786   8.352   6.846  0.00  0.00    -0.268 OA
ATOM      7  N   UNL     1       9.172   7.217   5.228  0.00  0.00    -0.301 NA
ATOM      8  N   UNL     1      11.505   8.015   7.252  0.00  0.00    -0.312 N 
ATOM     18  C   UNL     1      10.331   5.764   6.910  0.00  0.00    +0.024 C 
ATOM     19  C   UNL     1       9.043   7.702   7.676  0.00  0.00    +0.050 C 
ATOM     20  C   UNL     1       9.632   5.858   5.537  0.00  0.00    +0.089 C 
ATOM     21  C   UNL     1       8.330   7.759   6.305  0.00  0.00    +0.094 C 
ATOM     22  C   UNL     1       9.395   6.253   8.007  0.00  0.00    +0.017 C 
ATOM     24  C   UNL     1      11.630   6.580   6.965  0.00  0.00    +0.130 C 
ATOM     25  C   UNL     1      10.288   8.568   7.664  0.00  0.00    +0.026 A 
ATOM     26  C   UNL     1      10.221   9.862   8.026  0.00  0.00    +0.022 A 
ATOM     27  C   UNL     1      12.684   8.781   7.186  0.00  0.00    +0.251 A 
ATOM     28  C   UNL     1      11.387  10.699   7.977  0.00  0.00    +0.007 A 
ATOM     29  C   UNL     1      12.564  10.215   7.572  0.00  0.00    +0.070 A 
ENDBRANCH  16   7
ENDBRANCH  11  16
BRANCH  13  23
ATOM     23  C   UNL     1      12.291   5.765   2.676  0.00  0.00    +0.124 C 
BRANCH  23   9
ATOM      9  N   UNL     1      13.510   5.256   2.070  0.00  0.00    -0.188 NA
ATOM     37  H   UNL     1      14.071   5.926   1.531  0.00  0.00    +0.148 HD
BRANCH   9   1
ATOM      1  S   UNL     1      13.633   3.613   1.600  0.00  0.00    +0.058 S 
ATOM      3  O   UNL     1      12.429   2.915   2.010  0.00  0.00    -0.153 OA
ATOM      4  O   UNL     1      14.937   3.096   1.968  0.00  0.00    -0.153 OA
BRANCH   1  30
ATOM     30  C   UNL     1      13.610   3.748  -0.163  0.00  0.00    +0.105 A 
ATOM     31  C   UNL     1      14.689   4.324  -0.832  0.00  0.00    +0.032 A 
ATOM     32  C   UNL     1      12.510   3.281  -0.884  0.00  0.00    +0.032 A 
ATOM     33  C   UNL     1      14.670   4.433  -2.223  0.00  0.00    +0.047 A 
ATOM     34  C   UNL     1      12.490   3.391  -2.274  0.00  0.00    +0.047 A 
ATOM     35  C   UNL     1      13.570   3.968  -2.943  0.00  0.00    +0.120 A 
BRANCH  35   5
ATOM      5  O   UNL     1      13.550   4.074  -4.301  0.00  0.00    -0.495 OA
ATOM     36  C   UNL     1      12.482   3.423  -4.986  0.00  0.00    +0.277 C 
ENDBRANCH  35   5
ENDBRANCH   1  30
ENDBRANCH   9   1
ENDBRANCH  23   9
ENDBRANCH  13  23
TORSDOF 7
ENDMDL
MODEL 5
REMARK VINA RESULT:      -6.7     15.170     18.056
REMARK  Name = 44716383
REMARK  8 active torsions:
REMARK  status: ('A' for Active; 'I' for Inactive)
REMARK    1  A    between atoms: S_1  and  N_9
REMARK    2  A    between atoms: S_1  and  C_30
REMARK    3  A    between atoms: O_5  and  C_35
REMARK    4  A    between atoms: O_5  and  C_36
REMARK    5  A    between atoms: N_7  and  C_16
REMARK    6  A    between atoms: N_9  and  C_23
REMARK    7  A    between atoms: C_11  and  C_16
REMARK    8  A    between atoms: C_13  and  C_23
REMARK                            x       y       z     vdW  Elec       q    Type
REMARK                         _______ _______ _______ _____ _____    ______ ____
ROOT
ATOM      6  N   UNL     1      13.088  14.090  22.829  0.00  0.00    -0.298 NA
ATOM     10  C   UNL     1      12.392  12.224  21.156  0.00  0.00    -0.003 C 
ATOM     11  C   UNL     1      12.423  11.684  22.604  0.00  0.00    +0.020 C 
ATOM     12  C   UNL     1      13.773  12.803  20.798  0.00  0.00    +0.024 C 
ATOM     13  C   UNL     1      14.081  14.000  21.724  0.00  0.00    +0.072 C 
ATOM     14  C   UNL     1      12.979  12.787  23.531  0.00  0.00    +0.089 C 
ATOM     15  C   UNL     1      11.388  13.393  21.136  0.00  0.00    +0.019 C 
ATOM     17  C   UNL     1      11.767  14.405  22.232  0.00  0.00    +0.085 C 
ENDROOT
BRANCH  11  16
ATOM     16  C   UNL     1      13.205  10.388  22.743  0.00  0.00    +0.089 C 
BRANCH  16   7
ATOM      2  O   UNL     1      11.706   9.265  16.881  0.00  0.00    -0.268 OA
ATOM      7  N   UNL     1      12.734   9.383  21.793  0.00  0.00    -0.301 NA
ATOM      8  N   UNL     1      12.274   8.177  18.875  0.00  0.00    -0.312 N 
ATOM     18  C   UNL     1      10.747   8.120  20.932  0.00  0.00    +0.024 C 
ATOM     19  C   UNL     1      12.934   7.018  21.011  0.00  0.00    +0.050 C 
ATOM     20  C   UNL     1      11.279   9.214  21.881  0.00  0.00    +0.089 C 
ATOM     21  C   UNL     1      13.437   8.106  21.987  0.00  0.00    +0.094 C 
ATOM     22  C   UNL     1      11.439   6.794  21.224  0.00  0.00    +0.017 C 
ATOM     24  C   UNL     1      10.956   8.473  19.452  0.00  0.00    +0.130 C 
ATOM     25  C   UNL     1      13.218   7.419  19.576  0.00  0.00    +0.026 A 
ATOM     26  C   UNL     1      14.375   7.068  18.986  0.00  0.00    +0.022 A 
ATOM     27  C   UNL     1      12.500   8.609  17.555  0.00  0.00    +0.251 A 
ATOM     28  C   UNL     1      14.668   7.479  17.642  0.00  0.00    +0.007 A 
ATOM     29  C   UNL     1      13.803   8.220  16.945  0.00  0.00    +0.070 A 
ENDBRANCH  16   7
ENDBRANCH  11  16
BRANCH  13  23
ATOM     23  C   UNL     1      15.523  13.967  22.237  0.00  0.00    +0.124 C 
BRANCH  23   9
ATOM      9  N   UNL     1      16.191  12.747  21.814  0.00  0.00    -0.188 NA
ATOM     37  H   UNL     1      15.591  11.938  21.616  0.00  0.00    +0.148 HD
BRANCH   9   1
ATOM      1  S   UNL     1      17.786  12.399  22.333  0.00  0.00    +0.058 S 
ATOM      3  O   UNL     1      17.859  12.564  23.773  0.00  0.00    -0.153 OA
ATOM      4  O   UNL     1      18.737  13.074  21.473  0.00  0.00    -0.153 OA
BRANCH   1  30
ATOM     30  C   UNL     1      17.903  10.671  21.977  0.00  0.00    +0.105 A 
ATOM     31  C   UNL     1      16.843  10.014  21.354  0.00  0.00    +0.032 A 
ATOM     32  C   UNL     1      19.056   9.964  22.323  0.00  0.00    +0.032 A 
ATOM     33  C   UNL     1      16.934   8.650  21.075  0.00  0.00    +0.047 A 
ATOM     34  C   UNL     1      19.147   8.601  22.045  0.00  0.00    +0.047 A 
ATOM     35  C   UNL     1      18.086   7.944  21.422  0.00  0.00    +0.120 A 
BRANCH  35   5
ATOM      5  O   UNL     1      18.176   6.613  21.150  0.00  0.00    -0.495 OA
ATOM     36  C   UNL     1      17.946   6.210  19.801  0.00  0.00    +0.277 C 
ENDBRANCH  35   5
ENDBRANCH   1  30
ENDBRANCH   9   1
ENDBRANCH  23   9
ENDBRANCH  13  23
TORSDOF 7
ENDMDL
MODEL 6
REMARK VINA RESULT:      -6.6      2.420      6.914
REMARK  Name = 44716383
REMARK  8 active torsions:
REMARK  status: ('A' for Active; 'I' for Inactive)
REMARK    1  A    between atoms: S_1  and  N_9
REMARK    2  A    between atoms: S_1  and  C_30
REMARK    3  A    between atoms: O_5  and  C_35
REMARK    4  A    between atoms: O_5  and  C_36
REMARK    5  A    between atoms: N_7  and  C_16
REMARK    6  A    between atoms: N_9  and  C_23
REMARK    7  A    between atoms: C_11  and  C_16
REMARK    8  A    between atoms: C_13  and  C_23
REMARK                            x       y       z     vdW  Elec       q    Type
REMARK                         _______ _______ _______ _____ _____    ______ ____
ROOT
ATOM      6  N   UNL     1      14.244   9.114   4.903  0.00  0.00    -0.298 NA
ATOM     10  C   UNL     1      14.533   7.259   3.102  0.00  0.00    -0.003 C 
ATOM     11  C   UNL     1      14.888   8.649   2.526  0.00  0.00    +0.020 C 
ATOM     12  C   UNL     1      13.092   7.286   3.645  0.00  0.00    +0.024 C 
ATOM     13  C   UNL     1      13.003   8.297   4.809  0.00  0.00    +0.072 C 
ATOM     14  C   UNL     1      14.562   9.722   3.588  0.00  0.00    +0.089 C 
ATOM     15  C   UNL     1      15.469   7.021   4.303  0.00  0.00    +0.019 C 
ATOM     17  C   UNL     1      15.359   8.209   5.275  0.00  0.00    +0.085 C 
ENDROOT
BRANCH  11  16
ATOM     16  C   UNL     1      14.201   8.943   1.203  0.00  0.00    +0.089 C 
BRANCH  16   7
ATOM      2  O   UNL     1      13.726   2.828   1.714  0.00  0.00    -0.268 OA
ATOM      7  N   UNL     1      13.644   7.726   0.616  0.00  0.00    -0.301 NA
ATOM      8  N   UNL     1      12.733   4.669   0.660  0.00  0.00    -0.312 N 
ATOM     18  C   UNL     1      13.875   6.012  -1.199  0.00  0.00    +0.024 C 
ATOM     19  C   UNL     1      11.641   6.659  -0.429  0.00  0.00    +0.050 C 
ATOM     20  C   UNL     1      14.459   7.265  -0.514  0.00  0.00    +0.089 C 
ATOM     21  C   UNL     1      12.242   7.925   0.222  0.00  0.00    +0.094 C 
ATOM     22  C   UNL     1      12.453   6.289  -1.668  0.00  0.00    +0.017 C 
ATOM     24  C   UNL     1      13.862   4.788  -0.272  0.00  0.00    +0.130 C 
ATOM     25  C   UNL     1      11.620   5.511   0.562  0.00  0.00    +0.026 A 
ATOM     26  C   UNL     1      10.552   5.314   1.354  0.00  0.00    +0.022 A 
ATOM     27  C   UNL     1      12.785   3.611   1.587  0.00  0.00    +0.251 A 
ATOM     28  C   UNL     1      10.543   4.254   2.324  0.00  0.00    +0.007 A 
ATOM     29  C   UNL     1      11.592   3.440   2.463  0.00  0.00    +0.070 A 
ENDBRANCH  16   7
ENDBRANCH  11  16
BRANCH  13  23
ATOM     23  C   UNL     1      11.743   9.160   4.716  0.00  0.00    +0.124 C 
BRANCH  23   9
ATOM      9  N   UNL     1      10.716   8.489   3.937  0.00  0.00    -0.188 NA
ATOM     37  H   UNL     1      10.793   8.560   2.915  0.00  0.00    +0.148 HD
BRANCH   9   1
ATOM      1  S   UNL     1       9.135   8.285   4.565  0.00  0.00    +0.058 S 
ATOM      3  O   UNL     1       8.300   7.673   3.548  0.00  0.00    -0.153 OA
ATOM      4  O   UNL     1       8.708   9.505   5.220  0.00  0.00    -0.153 OA
BRANCH   1  30
ATOM     30  C   UNL     1       9.412   7.086   5.834  0.00  0.00    +0.105 A 
ATOM     31  C   UNL     1       9.576   5.742   5.500  0.00  0.00    +0.032 A 
ATOM     32  C   UNL     1       9.464   7.484   7.170  0.00  0.00    +0.032 A 
ATOM     33  C   UNL     1       9.793   4.795   6.502  0.00  0.00    +0.047 A 
ATOM     34  C   UNL     1       9.679   6.538   8.172  0.00  0.00    +0.047 A 
ATOM     35  C   UNL     1       9.843   5.194   7.838  0.00  0.00    +0.120 A 
BRANCH  35   5
ATOM      5  O   UNL     1      10.055   4.270   8.816  0.00  0.00    -0.495 OA
ATOM     36  C   UNL     1       9.203   4.329   9.958  0.00  0.00    +0.277 C 
ENDBRANCH  35   5
ENDBRANCH   1  30
ENDBRANCH   9   1
ENDBRANCH  23   9
ENDBRANCH  13  23
TORSDOF 7
ENDMDL
MODEL 7
REMARK VINA RESULT:      -6.5     24.338     28.039
REMARK  Name = 44716383
REMARK  8 active torsions:
REMARK  status: ('A' for Active; 'I' for Inactive)
REMARK    1  A    between atoms: S_1  and  N_9
REMARK    2  A    between atoms: S_1  and  C_30
REMARK    3  A    between atoms: O_5  and  C_35
REMARK    4  A    between atoms: O_5  and  C_36
REMARK    5  A    between atoms: N_7  and  C_16
REMARK    6  A    between atoms: N_9  and  C_23
REMARK    7  A    between atoms: C_11  and  C_16
REMARK    8  A    between atoms: C_13  and  C_23
REMARK                            x       y       z     vdW  Elec       q    Type
REMARK                         _______ _______ _______ _____ _____    ______ ____
ROOT
ATOM      6  N   UNL     1      -5.151 -12.801  16.960  0.00  0.00    -0.298 NA
ATOM     10  C   UNL     1      -5.538 -10.276  17.453  0.00  0.00    -0.003 C 
ATOM     11  C   UNL     1      -6.806 -10.921  16.847  0.00  0.00    +0.020 C 
ATOM     12  C   UNL     1      -4.353 -10.478  16.490  0.00  0.00    +0.024 C 
ATOM     13  C   UNL     1      -4.069 -11.989  16.341  0.00  0.00    +0.072 C 
ATOM     14  C   UNL     1      -6.475 -12.374  16.442  0.00  0.00    +0.089 C 
ATOM     15  C   UNL     1      -5.215 -11.052  18.744  0.00  0.00    +0.019 C 
ATOM     17  C   UNL     1      -5.127 -12.555  18.422  0.00  0.00    +0.085 C 
ENDROOT
BRANCH  11  16
ATOM     16  C   UNL     1      -7.381 -10.132  15.682  0.00  0.00    +0.089 C 
BRANCH  16   7
ATOM      2  O   UNL     1     -13.312 -11.573  16.467  0.00  0.00    -0.268 OA
ATOM      7  N   UNL     1      -8.712  -9.619  15.997  0.00  0.00    -0.301 NA
ATOM      8  N   UNL     1     -11.751  -9.890  16.930  0.00  0.00    -0.312 N 
ATOM     18  C   UNL     1     -10.718  -8.394  15.125  0.00  0.00    +0.024 C 
ATOM     19  C   UNL     1     -10.055  -8.108  17.466  0.00  0.00    +0.050 C 
ATOM     20  C   UNL     1      -9.331  -8.999  14.820  0.00  0.00    +0.089 C 
ATOM     21  C   UNL     1      -8.661  -8.687  17.133  0.00  0.00    +0.094 C 
ATOM     22  C   UNL     1     -10.605  -7.371  16.248  0.00  0.00    +0.017 C 
ATOM     24  C   UNL     1     -11.748  -9.458  15.526  0.00  0.00    +0.130 C 
ATOM     25  C   UNL     1     -11.000  -9.214  17.897  0.00  0.00    +0.026 A 
ATOM     26  C   UNL     1     -11.102  -9.557  19.193  0.00  0.00    +0.022 A 
ATOM     27  C   UNL     1     -12.615 -10.949  17.267  0.00  0.00    +0.251 A 
ATOM     28  C   UNL     1     -11.963 -10.631  19.603  0.00  0.00    +0.007 A 
ATOM     29  C   UNL     1     -12.682 -11.314  18.709  0.00  0.00    +0.070 A 
ENDBRANCH  16   7
ENDBRANCH  11  16
BRANCH  13  23
ATOM     23  C   UNL     1      -3.809 -12.377  14.883  0.00  0.00    +0.124 C 
BRANCH  23   9
ATOM      9  N   UNL     1      -3.584 -11.195  14.068  0.00  0.00    -0.188 NA
ATOM     37  H   UNL     1      -4.416 -10.665  13.785  0.00  0.00    +0.148 HD
BRANCH   9   1
ATOM      1  S   UNL     1      -2.233 -11.102  13.018  0.00  0.00    +0.058 S 
ATOM      3  O   UNL     1      -1.589 -12.401  12.964  0.00  0.00    -0.153 OA
ATOM      4  O   UNL     1      -1.458  -9.916  13.325  0.00  0.00    -0.153 OA
BRANCH   1  30
ATOM     30  C   UNL     1      -3.017 -10.818  11.459  0.00  0.00    +0.105 A 
ATOM     31  C   UNL     1      -3.086  -9.527  10.938  0.00  0.00    +0.032 A 
ATOM     32  C   UNL     1      -3.569 -11.887  10.751  0.00  0.00    +0.032 A 
ATOM     33  C   UNL     1      -3.707  -9.303   9.709  0.00  0.00    +0.047 A 
ATOM     34  C   UNL     1      -4.191 -11.663   9.523  0.00  0.00    +0.047 A 
ATOM     35  C   UNL     1      -4.260 -10.371   9.002  0.00  0.00    +0.120 A 
BRANCH  35   5
ATOM      5  O   UNL     1      -4.866 -10.153   7.803  0.00  0.00    -0.495 OA
ATOM     36  C   UNL     1      -6.166  -9.566   7.830  0.00  0.00    +0.277 C 
ENDBRANCH  35   5
ENDBRANCH   1  30
ENDBRANCH   9   1
ENDBRANCH  23   9
ENDBRANCH  13  23
TORSDOF 7
ENDMDL
MODEL 8
REMARK VINA RESULT:      -6.5     13.285     16.146
REMARK  Name = 44716383
REMARK  8 active torsions:
REMARK  status: ('A' for Active; 'I' for Inactive)
REMARK    1  A    between atoms: S_1  and  N_9
REMARK    2  A    between atoms: S_1  and  C_30
REMARK    3  A    between atoms: O_5  and  C_35
REMARK    4  A    between atoms: O_5  and  C_36
REMARK    5  A    between atoms: N_7  and  C_16
REMARK    6  A    between atoms: N_9  and  C_23
REMARK    7  A    between atoms: C_11  and  C_16
REMARK    8  A    between atoms: C_13  and  C_23
REMARK                            x       y       z     vdW  Elec       q    Type
REMARK                         _______ _______ _______ _____ _____    ______ ____
ROOT
ATOM      6  N   UNL     1      13.323  13.581  22.162  0.00  0.00    -0.298 NA
ATOM     10  C   UNL     1      12.668  11.265  21.174  0.00  0.00    -0.003 C 
ATOM     11  C   UNL     1      13.580  11.100  22.412  0.00  0.00    +0.020 C 
ATOM     12  C   UNL     1      13.387  12.133  20.124  0.00  0.00    +0.024 C 
ATOM     13  C   UNL     1      13.626  13.544  20.705  0.00  0.00    +0.072 C 
ATOM     14  C   UNL     1      14.052  12.498  22.867  0.00  0.00    +0.089 C 
ATOM     15  C   UNL     1      11.423  12.046  21.637  0.00  0.00    +0.019 C 
ATOM     17  C   UNL     1      11.869  13.345  22.332  0.00  0.00    +0.085 C 
ENDROOT
BRANCH  11  16
ATOM     16  C   UNL     1      14.751  10.162  22.171  0.00  0.00    +0.089 C 
BRANCH  16   7
ATOM      2  O   UNL     1      10.560   8.274  18.080  0.00  0.00    -0.268 OA
ATOM      7  N   UNL     1      14.438   9.180  21.136  0.00  0.00    -0.301 NA
ATOM      8  N   UNL     1      12.834   8.080  18.608  0.00  0.00    -0.312 N 
ATOM     18  C   UNL     1      13.699   6.830  20.670  0.00  0.00    +0.024 C 
ATOM     19  C   UNL     1      15.286   7.918  19.154  0.00  0.00    +0.050 C 
ATOM     20  C   UNL     1      13.988   7.915  21.729  0.00  0.00    +0.089 C 
ATOM     21  C   UNL     1      15.585   8.976  20.240  0.00  0.00    +0.094 C 
ATOM     22  C   UNL     1      14.939   6.589  19.819  0.00  0.00    +0.017 C 
ATOM     24  C   UNL     1      12.530   7.205  19.748  0.00  0.00    +0.130 C 
ATOM     25  C   UNL     1      14.154   8.382  18.257  0.00  0.00    +0.026 A 
ATOM     26  C   UNL     1      14.412   9.094  17.147  0.00  0.00    +0.022 A 
ATOM     27  C   UNL     1      11.742   8.517  17.834  0.00  0.00    +0.251 A 
ATOM     28  C   UNL     1      13.343   9.573  16.316  0.00  0.00    +0.007 A 
ATOM     29  C   UNL     1      12.068   9.323  16.625  0.00  0.00    +0.070 A 
ENDBRANCH  16   7
ENDBRANCH  11  16
BRANCH  13  23
ATOM     23  C   UNL     1      15.032  14.058  20.389  0.00  0.00    +0.124 C 
BRANCH  23   9
ATOM      9  N   UNL     1      15.757  13.102  19.568  0.00  0.00    -0.188 NA
ATOM     37  H   UNL     1      15.898  12.167  19.966  0.00  0.00    +0.148 HD
BRANCH   9   1
ATOM      1  S   UNL     1      16.935  13.632  18.442  0.00  0.00    +0.058 S 
ATOM      3  O   UNL     1      18.164  12.894  18.665  0.00  0.00    -0.153 OA
ATOM      4  O   UNL     1      16.953  15.081  18.400  0.00  0.00    -0.153 OA
BRANCH   1  30
ATOM     30  C   UNL     1      16.238  13.079  16.915  0.00  0.00    +0.105 A 
ATOM     31  C   UNL     1      17.026  12.380  16.001  0.00  0.00    +0.032 A 
ATOM     32  C   UNL     1      14.899  13.343  16.623  0.00  0.00    +0.032 A 
ATOM     33  C   UNL     1      16.476  11.945  14.795  0.00  0.00    +0.047 A 
ATOM     34  C   UNL     1      14.350  12.909  15.417  0.00  0.00    +0.047 A 
ATOM     35  C   UNL     1      15.138  12.211  14.503  0.00  0.00    +0.120 A 
BRANCH  35   5
ATOM      5  O   UNL     1      14.601  11.786  13.326  0.00  0.00    -0.495 OA
ATOM     36  C   UNL     1      15.378  11.991  12.147  0.00  0.00    +0.277 C 
ENDBRANCH  35   5
ENDBRANCH   1  30
ENDBRANCH   9   1
ENDBRANCH  23   9
ENDBRANCH  13  23
TORSDOF 7
ENDMDL
MODEL 9
REMARK VINA RESULT:      -6.4     24.135     27.809
REMARK  Name = 44716383
REMARK  8 active torsions:
REMARK  status: ('A' for Active; 'I' for Inactive)
REMARK    1  A    between atoms: S_1  and  N_9
REMARK    2  A    between atoms: S_1  and  C_30
REMARK    3  A    between atoms: O_5  and  C_35
REMARK    4  A    between atoms: O_5  and  C_36
REMARK    5  A    between atoms: N_7  and  C_16
REMARK    6  A    between atoms: N_9  and  C_23
REMARK    7  A    between atoms: C_11  and  C_16
REMARK    8  A    between atoms: C_13  and  C_23
REMARK                            x       y       z     vdW  Elec       q    Type
REMARK                         _______ _______ _______ _____ _____    ______ ____
ROOT
ATOM      6  N   UNL     1      -8.690 -11.779  14.606  0.00  0.00    -0.298 NA
ATOM     10  C   UNL     1      -8.964  -9.863  12.867  0.00  0.00    -0.003 C 
ATOM     11  C   UNL     1      -7.560 -10.503  12.768  0.00  0.00    +0.020 C 
ATOM     12  C   UNL     1      -9.188  -9.348  14.301  0.00  0.00    +0.024 C 
ATOM     13  C   UNL     1      -9.161 -10.540  15.283  0.00  0.00    +0.072 C 
ATOM     14  C   UNL     1      -7.403 -11.529  13.912  0.00  0.00    +0.089 C 
ATOM     15  C   UNL     1      -9.987 -10.989  12.621  0.00  0.00    +0.019 C 
ATOM     17  C   UNL     1      -9.700 -12.154  13.586  0.00  0.00    +0.085 C 
ENDROOT
BRANCH  11  16
ATOM     16  C   UNL     1      -6.435  -9.481  12.772  0.00  0.00    +0.089 C 
BRANCH  16   7
ATOM      2  O   UNL     1      -4.470 -13.715   8.762  0.00  0.00    -0.268 OA
ATOM      7  N   UNL     1      -5.403  -9.828  11.799  0.00  0.00    -0.301 NA
ATOM      8  N   UNL     1      -4.213 -11.457   9.327  0.00  0.00    -0.312 N 
ATOM     18  C   UNL     1      -3.062 -10.666  11.475  0.00  0.00    +0.024 C 
ATOM     19  C   UNL     1      -3.980  -9.019   9.910  0.00  0.00    +0.050 C 
ATOM     20  C   UNL     1      -4.199 -10.339  12.465  0.00  0.00    +0.089 C 
ATOM     21  C   UNL     1      -5.092  -8.683  10.930  0.00  0.00    +0.094 C 
ATOM     22  C   UNL     1      -2.713  -9.430  10.656  0.00  0.00    +0.017 C 
ATOM     24  C   UNL     1      -3.427 -11.809  10.517  0.00  0.00    +0.130 C 
ATOM     25  C   UNL     1      -4.434 -10.122   8.973  0.00  0.00    +0.026 A 
ATOM     26  C   UNL     1      -5.062  -9.823   7.822  0.00  0.00    +0.022 A 
ATOM     27  C   UNL     1      -4.646 -12.522   8.514  0.00  0.00    +0.251 A 
ATOM     28  C   UNL     1      -5.532 -10.863   6.951  0.00  0.00    +0.007 A 
ATOM     29  C   UNL     1      -5.358 -12.150   7.260  0.00  0.00    +0.070 A 
ENDBRANCH  16   7
ENDBRANCH  11  16
BRANCH  13  23
ATOM     23  C   UNL     1      -8.352 -10.220  16.542  0.00  0.00    +0.124 C 
BRANCH  23   9
ATOM      9  N   UNL     1      -8.489 -11.282  17.525  0.00  0.00    -0.188 NA
ATOM     37  H   UNL     1      -9.444 -11.511  17.825  0.00  0.00    +0.148 HD
BRANCH   9   1
ATOM      1  S   UNL     1      -7.243 -11.589  18.661  0.00  0.00    +0.058 S 
ATOM      3  O   UNL     1      -7.434 -12.914  19.221  0.00  0.00    -0.153 OA
ATOM      4  O   UNL     1      -7.088 -10.443  19.535  0.00  0.00    -0.153 OA
BRANCH   1  30
ATOM     30  C   UNL     1      -5.819 -11.640  17.616  0.00  0.00    +0.105 A 
ATOM     31  C   UNL     1      -4.907 -10.585  17.627  0.00  0.00    +0.032 A 
ATOM     32  C   UNL     1      -5.607 -12.735  16.777  0.00  0.00    +0.032 A 
ATOM     33  C   UNL     1      -3.784 -10.624  16.801  0.00  0.00    +0.047 A 
ATOM     34  C   UNL     1      -4.485 -12.774  15.950  0.00  0.00    +0.047 A 
ATOM     35  C   UNL     1      -3.574 -11.718  15.962  0.00  0.00    +0.120 A 
BRANCH  35   5
ATOM      5  O   UNL     1      -2.477 -11.757  15.156  0.00  0.00    -0.495 OA
ATOM     36  C   UNL     1      -1.564 -10.665  15.251  0.00  0.00    +0.277 C 
ENDBRANCH  35   5
ENDBRANCH   1  30
ENDBRANCH   9   1
ENDBRANCH  23   9
ENDBRANCH  13  23
TORSDOF 7
ENDMDL
MODEL 10
REMARK VINA RESULT:      -6.1      2.407      7.396
REMARK  Name = 44716383
REMARK  8 active torsions:
REMARK  status: ('A' for Active; 'I' for Inactive)
REMARK    1  A    between atoms: S_1  and  N_9
REMARK    2  A    between atoms: S_1  and  C_30
REMARK    3  A    between atoms: O_5  and  C_35
REMARK    4  A    between atoms: O_5  and  C_36
REMARK    5  A    between atoms: N_7  and  C_16
REMARK    6  A    between atoms: N_9  and  C_23
REMARK    7  A    between atoms: C_11  and  C_16
REMARK    8  A    between atoms: C_13  and  C_23
REMARK                            x       y       z     vdW  Elec       q    Type
REMARK                         _______ _______ _______ _____ _____    ______ ____
ROOT
ATOM      6  N   UNL     1      11.917   8.355   4.432  0.00  0.00    -0.298 NA
ATOM     10  C   UNL     1      14.456   8.896   4.277  0.00  0.00    -0.003 C 
ATOM     11  C   UNL     1      14.000   8.039   3.074  0.00  0.00    +0.020 C 
ATOM     12  C   UNL     1      14.126   8.153   5.586  0.00  0.00    +0.024 C 
ATOM     13  C   UNL     1      12.595   7.983   5.704  0.00  0.00    +0.072 C 
ATOM     14  C   UNL     1      12.526   7.629   3.292  0.00  0.00    +0.089 C 
ATOM     15  C   UNL     1      13.611  10.183   4.256  0.00  0.00    +0.019 C 
ATOM     17  C   UNL     1      12.118   9.808   4.215  0.00  0.00    +0.085 C 
ENDROOT
BRANCH  11  16
ATOM     16  C   UNL     1      14.888   6.830   2.828  0.00  0.00    +0.089 C 
BRANCH  16   7
ATOM      2  O   UNL     1       9.793   3.926   0.964  0.00  0.00    -0.268 OA
ATOM      7  N   UNL     1      14.308   5.945   1.821  0.00  0.00    -0.301 NA
ATOM      8  N   UNL     1      11.899   4.615   0.207  0.00  0.00    -0.312 N 
ATOM     18  C   UNL     1      14.096   3.578   1.022  0.00  0.00    +0.024 C 
ATOM     19  C   UNL     1      14.145   5.403  -0.613  0.00  0.00    +0.050 C 
ATOM     20  C   UNL     1      14.643   4.543   2.094  0.00  0.00    +0.089 C 
ATOM     21  C   UNL     1      14.724   6.344   0.468  0.00  0.00    +0.094 C 
ATOM     22  C   UNL     1      14.620   3.975  -0.353  0.00  0.00    +0.017 C 
ATOM     24  C   UNL     1      12.561   3.555   0.980  0.00  0.00    +0.130 C 
ATOM     25  C   UNL     1      12.630   5.472  -0.622  0.00  0.00    +0.026 A 
ATOM     26  C   UNL     1      11.993   6.362  -1.403  0.00  0.00    +0.022 A 
ATOM     27  C   UNL     1      10.493   4.660   0.268  0.00  0.00    +0.251 A 
ATOM     28  C   UNL     1      10.560   6.462  -1.386  0.00  0.00    +0.007 A 
ATOM     29  C   UNL     1       9.826   5.675  -0.594  0.00  0.00    +0.070 A 
ENDBRANCH  16   7
ENDBRANCH  11  16
BRANCH  13  23
ATOM     23  C   UNL     1      12.215   6.578   6.178  0.00  0.00    +0.124 C 
BRANCH  23   9
ATOM      9  N   UNL     1      11.348   6.646   7.343  0.00  0.00    -0.188 NA
ATOM     37  H   UNL     1      11.809   6.642   8.261  0.00  0.00    +0.148 HD
BRANCH   9   1
ATOM      1  S   UNL     1       9.760   6.007   7.290  0.00  0.00    +0.058 S 
ATOM      3  O   UNL     1       9.107   6.263   8.560  0.00  0.00    -0.153 OA
ATOM      4  O   UNL     1       9.793   4.663   6.745  0.00  0.00    -0.153 OA
BRANCH   1  30
ATOM     30  C   UNL     1       9.004   7.040   6.071  0.00  0.00    +0.105 A 
ATOM     31  C   UNL     1       8.886   6.595   4.755  0.00  0.00    +0.032 A 
ATOM     32  C   UNL     1       8.528   8.303   6.425  0.00  0.00    +0.032 A 
ATOM     33  C   UNL     1       8.292   7.411   3.792  0.00  0.00    +0.047 A 
ATOM     34  C   UNL     1       7.935   9.120   5.463  0.00  0.00    +0.047 A 
ATOM     35  C   UNL     1       7.818   8.674   4.146  0.00  0.00    +0.120 A 
BRANCH  35   5
ATOM      5  O   UNL     1       7.237   9.471   3.207  0.00  0.00    -0.495 OA
ATOM     36  C   UNL     1       6.047  10.159   3.587  0.00  0.00    +0.277 C 
ENDBRANCH  35   5
ENDBRANCH   1  30
ENDBRANCH   9   1
ENDBRANCH  23   9
ENDBRANCH  13  23
TORSDOF 7
ENDMDL
