MODEL 1
REMARK VINA RESULT:      -7.4      0.000      0.000
REMARK  Name = 45784373
REMARK  11 active torsions:
REMARK  status: ('A' for Active; 'I' for Inactive)
REMARK    1  A    between atoms: O_1  and  C_10
REMARK    2  A    between atoms: O_4  and  C_26
REMARK    3  A    between atoms: O_4  and  C_29
REMARK    4  A    between atoms: N_5  and  C_14
REMARK    5  A    between atoms: N_6  and  C_23
REMARK    6  A    between atoms: C_7  and  C_17
REMARK    7  A    between atoms: C_9  and  C_19
REMARK    8  A    between atoms: C_12  and  C_18
REMARK    9  A    between atoms: C_18  and  C_20
REMARK   10  A    between atoms: C_18  and  C_21
REMARK   11  A    between atoms: C_22  and  C_26
REMARK                            x       y       z     vdW  Elec       q    Type
REMARK                         _______ _______ _______ _____ _____    ______ ____
ROOT
ATOM      7  C   UNL     1      -3.691 -10.564  10.505  0.00  0.00    -0.027 C 
ATOM      8  C   UNL     1      -5.024 -10.263  11.268  0.00  0.00    +0.028 C 
ATOM      9  C   UNL     1      -5.842  -9.137  10.542  0.00  0.00    +0.012 C 
ATOM     10  C   UNL     1      -4.766 -10.030  12.784  0.00  0.00    +0.122 C 
ATOM     11  C   UNL     1      -2.966 -11.752  11.180  0.00  0.00    +0.007 C 
ATOM     12  C   UNL     1      -3.949 -11.174  13.432  0.00  0.00    +0.029 C 
ATOM     13  C   UNL     1      -4.023 -10.979   9.053  0.00  0.00    +0.009 C 
ATOM     14  C   UNL     1      -6.105  -9.532   9.061  0.00  0.00    +0.076 C 
ATOM     15  C   UNL     1      -2.676 -11.510  12.655  0.00  0.00    +0.007 C 
ATOM     16  C   UNL     1      -4.840  -9.936   8.305  0.00  0.00    +0.023 C 
ATOM     17  C   UNL     1      -2.733  -9.345  10.481  0.00  0.00    +0.011 C 
ATOM     19  C   UNL     1      -7.182  -8.811  11.224  0.00  0.00    +0.010 C 
ENDROOT
BRANCH  14   5
ATOM      3  O   UNL     1      -8.101  -9.804   6.984  0.00  0.00    -0.272 OA
ATOM      5  N   UNL     1      -6.757  -8.466   8.329  0.00  0.00    -0.309 N 
ATOM     22  C   UNL     1      -7.705  -8.701   7.348  0.00  0.00    +0.251 C 
ATOM     35  H   UNL     1      -6.455  -7.512   8.507  0.00  0.00    +0.149 HD
BRANCH  22  26
ATOM     26  C   UNL     1      -8.219  -7.408   6.750  0.00  0.00    +0.324 C 
BRANCH  26   4
ATOM      4  O   UNL     1      -8.187  -6.369   7.707  0.00  0.00    -0.483 OA
BRANCH   4  29
ATOM     29  C   UNL     1      -9.392  -5.831   8.090  0.00  0.00    +0.121 A 
ATOM     30  C   UNL     1     -10.576  -6.531   7.852  0.00  0.00    +0.045 A 
ATOM     31  C   UNL     1      -9.433  -4.586   8.717  0.00  0.00    +0.045 A 
ATOM     32  C   UNL     1     -11.799  -5.985   8.240  0.00  0.00    +0.004 A 
ATOM     33  C   UNL     1     -10.656  -4.040   9.107  0.00  0.00    +0.004 A 
ATOM     34  C   UNL     1     -11.839  -4.739   8.867  0.00  0.00    +0.000 A 
ENDBRANCH   4  29
ENDBRANCH  26   4
ENDBRANCH  22  26
ENDBRANCH  14   5
BRANCH  10   1
ATOM      1  O   UNL     1      -6.013  -9.976  13.477  0.00  0.00    -0.391 OA
ATOM     36  H   UNL     1      -6.043 -10.717  14.105  0.00  0.00    +0.210 HD
ENDBRANCH  10   1
BRANCH  12  18
ATOM     18  C   UNL     1      -3.594 -10.863  14.891  0.00  0.00    +0.077 C 
ATOM     20  C   UNL     1      -2.086 -10.692  15.038  0.00  0.00    +0.017 C 
BRANCH  18  21
ATOM      2  O   UNL     1      -4.147 -13.151  15.461  0.00  0.00    -0.276 OA
ATOM      6  N   UNL     1      -4.554 -11.488  17.026  0.00  0.00    -0.312 N 
ATOM     21  C   UNL     1      -4.120 -11.970  15.800  0.00  0.00    +0.216 C 
ATOM     37  H   UNL     1      -4.474 -10.498  17.235  0.00  0.00    +0.149 HD
BRANCH   6  23
ATOM     23  C   UNL     1      -5.095 -12.344  18.053  0.00  0.00    +0.073 C 
ATOM     24  C   UNL     1      -4.913 -11.748  19.444  0.00  0.00    +0.022 C 
ATOM     25  C   UNL     1      -6.608 -12.475  17.938  0.00  0.00    +0.022 C 
ATOM     27  C   UNL     1      -6.083 -10.782  19.616  0.00  0.00    +0.002 C 
ATOM     28  C   UNL     1      -7.155 -11.223  18.619  0.00  0.00    +0.002 C 
ENDBRANCH   6  23
ENDBRANCH  18  21
ENDBRANCH  12  18
TORSDOF 8
ENDMDL
MODEL 2
REMARK VINA RESULT:      -7.3     19.662     22.463
REMARK  Name = 45784373
REMARK  11 active torsions:
REMARK  status: ('A' for Active; 'I' for Inactive)
REMARK    1  A    between atoms: O_1  and  C_10
REMARK    2  A    between atoms: O_4  and  C_26
REMARK    3  A    between atoms: O_4  and  C_29
REMARK    4  A    between atoms: N_5  and  C_14
REMARK    5  A    between atoms: N_6  and  C_23
REMARK    6  A    between atoms: C_7  and  C_17
REMARK    7  A    between atoms: C_9  and  C_19
REMARK    8  A    between atoms: C_12  and  C_18
REMARK    9  A    between atoms: C_18  and  C_20
REMARK   10  A    between atoms: C_18  and  C_21
REMARK   11  A    between atoms: C_22  and  C_26
REMARK                            x       y       z     vdW  Elec       q    Type
REMARK                         _______ _______ _______ _____ _____    ______ ____
ROOT
ATOM      7  C   UNL     1     -17.472   4.697  21.692  0.00  0.00    -0.027 C 
ATOM      8  C   UNL     1     -16.214   4.494  22.602  0.00  0.00    +0.028 C 
ATOM      9  C   UNL     1     -16.630   3.974  24.023  0.00  0.00    +0.012 C 
ATOM     10  C   UNL     1     -15.302   5.754  22.591  0.00  0.00    +0.122 C 
ATOM     11  C   UNL     1     -17.021   5.100  20.268  0.00  0.00    +0.007 C 
ATOM     12  C   UNL     1     -14.939   6.215  21.160  0.00  0.00    +0.029 C 
ATOM     13  C   UNL     1     -18.237   3.357  21.582  0.00  0.00    +0.009 C 
ATOM     14  C   UNL     1     -17.463   2.667  23.896  0.00  0.00    +0.076 C 
ATOM     15  C   UNL     1     -16.161   6.356  20.251  0.00  0.00    +0.007 C 
ATOM     16  C   UNL     1     -18.643   2.789  22.933  0.00  0.00    +0.023 C 
ATOM     17  C   UNL     1     -18.429   5.787  22.238  0.00  0.00    +0.011 C 
ATOM     19  C   UNL     1     -15.437   3.724  24.962  0.00  0.00    +0.010 C 
ENDROOT
BRANCH  14   5
ATOM      3  O   UNL     1     -16.868   0.169  25.230  0.00  0.00    -0.272 OA
ATOM      5  N   UNL     1     -17.961   2.221  25.180  0.00  0.00    -0.309 N 
ATOM     22  C   UNL     1     -17.616   1.001  25.737  0.00  0.00    +0.251 C 
ATOM     35  H   UNL     1     -18.640   2.807  25.657  0.00  0.00    +0.149 HD
BRANCH  22  26
ATOM     26  C   UNL     1     -18.280   0.795  27.082  0.00  0.00    +0.324 C 
BRANCH  26   4
ATOM      4  O   UNL     1     -17.347   0.320  28.030  0.00  0.00    -0.483 OA
BRANCH   4  29
ATOM     29  C   UNL     1     -16.517   1.248  28.612  0.00  0.00    +0.121 A 
ATOM     30  C   UNL     1     -16.850   2.602  28.576  0.00  0.00    +0.045 A 
ATOM     31  C   UNL     1     -15.341   0.836  29.239  0.00  0.00    +0.045 A 
ATOM     32  C   UNL     1     -16.008   3.544  29.167  0.00  0.00    +0.004 A 
ATOM     33  C   UNL     1     -14.499   1.778  29.831  0.00  0.00    +0.004 A 
ATOM     34  C   UNL     1     -14.832   3.131  29.794  0.00  0.00    +0.000 A 
ENDBRANCH   4  29
ENDBRANCH  26   4
ENDBRANCH  22  26
ENDBRANCH  14   5
BRANCH  10   1
ATOM      1  O   UNL     1     -14.070   5.457  23.249  0.00  0.00    -0.391 OA
ATOM     36  H   UNL     1     -13.520   6.257  23.238  0.00  0.00    +0.210 HD
ENDBRANCH  10   1
BRANCH  12  18
ATOM     18  C   UNL     1     -14.151   7.530  21.168  0.00  0.00    +0.077 C 
ATOM     20  C   UNL     1     -14.854   8.569  20.301  0.00  0.00    +0.017 C 
BRANCH  18  21
ATOM      2  O   UNL     1     -12.012   6.394  21.156  0.00  0.00    -0.276 OA
ATOM      6  N   UNL     1     -12.337   8.164  19.692  0.00  0.00    -0.312 N 
ATOM     21  C   UNL     1     -12.723   7.283  20.691  0.00  0.00    +0.216 C 
ATOM     37  H   UNL     1     -12.996   8.854  19.347  0.00  0.00    +0.149 HD
BRANCH   6  23
ATOM     23  C   UNL     1     -11.030   8.128  19.083  0.00  0.00    +0.073 C 
ATOM     24  C   UNL     1     -11.109   8.205  17.562  0.00  0.00    +0.022 C 
ATOM     25  C   UNL     1     -10.207   9.359  19.440  0.00  0.00    +0.022 C 
ATOM     27  C   UNL     1     -11.228   9.695  17.248  0.00  0.00    +0.002 C 
ATOM     28  C   UNL     1     -10.688  10.436  18.471  0.00  0.00    +0.002 C 
ENDBRANCH   6  23
ENDBRANCH  18  21
ENDBRANCH  12  18
TORSDOF 8
ENDMDL
MODEL 3
REMARK VINA RESULT:      -7.2     27.542     31.246
REMARK  Name = 45784373
REMARK  11 active torsions:
REMARK  status: ('A' for Active; 'I' for Inactive)
REMARK    1  A    between atoms: O_1  and  C_10
REMARK    2  A    between atoms: O_4  and  C_26
REMARK    3  A    between atoms: O_4  and  C_29
REMARK    4  A    between atoms: N_5  and  C_14
REMARK    5  A    between atoms: N_6  and  C_23
REMARK    6  A    between atoms: C_7  and  C_17
REMARK    7  A    between atoms: C_9  and  C_19
REMARK    8  A    between atoms: C_12  and  C_18
REMARK    9  A    between atoms: C_18  and  C_20
REMARK   10  A    between atoms: C_18  and  C_21
REMARK   11  A    between atoms: C_22  and  C_26
REMARK                            x       y       z     vdW  Elec       q    Type
REMARK                         _______ _______ _______ _____ _____    ______ ____
ROOT
ATOM      7  C   UNL     1      15.972  10.124  21.295  0.00  0.00    -0.027 C 
ATOM      8  C   UNL     1      15.616   8.646  21.669  0.00  0.00    +0.028 C 
ATOM      9  C   UNL     1      16.683   7.650  21.090  0.00  0.00    +0.012 C 
ATOM     10  C   UNL     1      14.137   8.317  21.320  0.00  0.00    +0.122 C 
ATOM     11  C   UNL     1      14.968  11.085  21.973  0.00  0.00    +0.007 C 
ATOM     12  C   UNL     1      13.143   9.343  21.916  0.00  0.00    +0.029 C 
ATOM     13  C   UNL     1      17.382  10.456  21.837  0.00  0.00    +0.009 C 
ATOM     14  C   UNL     1      18.106   8.040  21.582  0.00  0.00    +0.076 C 
ATOM     15  C   UNL     1      13.521  10.790  21.602  0.00  0.00    +0.007 C 
ATOM     16  C   UNL     1      18.456   9.506  21.331  0.00  0.00    +0.023 C 
ATOM     17  C   UNL     1      15.943  10.372  19.765  0.00  0.00    +0.011 C 
ATOM     19  C   UNL     1      16.410   6.179  21.446  0.00  0.00    +0.010 C 
ENDROOT
BRANCH  14   5
ATOM      3  O   UNL     1      19.914   6.227  22.929  0.00  0.00    -0.272 OA
ATOM      5  N   UNL     1      19.128   7.212  20.975  0.00  0.00    -0.309 N 
ATOM     22  C   UNL     1      19.947   6.373  21.711  0.00  0.00    +0.251 C 
ATOM     35  H   UNL     1      19.285   7.305  19.976  0.00  0.00    +0.149 HD
BRANCH  22  26
ATOM     26  C   UNL     1      20.922   5.629  20.823  0.00  0.00    +0.324 C 
BRANCH  26   4
ATOM      4  O   UNL     1      20.776   4.233  20.982  0.00  0.00    -0.483 OA
BRANCH   4  29
ATOM     29  C   UNL     1      21.874   3.533  21.421  0.00  0.00    +0.121 A 
ATOM     30  C   UNL     1      22.148   3.449  22.787  0.00  0.00    +0.045 A 
ATOM     31  C   UNL     1      22.715   2.907  20.502  0.00  0.00    +0.045 A 
ATOM     32  C   UNL     1      23.262   2.738  23.233  0.00  0.00    +0.004 A 
ATOM     33  C   UNL     1      23.830   2.196  20.948  0.00  0.00    +0.004 A 
ATOM     34  C   UNL     1      24.104   2.112  22.313  0.00  0.00    +0.000 A 
ENDBRANCH   4  29
ENDBRANCH  26   4
ENDBRANCH  22  26
ENDBRANCH  14   5
BRANCH  10   1
ATOM      1  O   UNL     1      13.789   7.045  21.869  0.00  0.00    -0.391 OA
ATOM     36  H   UNL     1      13.482   7.183  22.781  0.00  0.00    +0.210 HD
ENDBRANCH  10   1
BRANCH  12  18
ATOM     18  C   UNL     1      11.705   9.076  21.453  0.00  0.00    +0.077 C 
ATOM     20  C   UNL     1      10.887   8.486  22.597  0.00  0.00    +0.017 C 
BRANCH  18  21
ATOM      2  O   UNL     1      11.402   6.964  20.309  0.00  0.00    -0.276 OA
ATOM      6  N   UNL     1      12.106   8.800  19.080  0.00  0.00    -0.312 N 
ATOM     21  C   UNL     1      11.713   8.150  20.240  0.00  0.00    +0.216 C 
ATOM     37  H   UNL     1      12.323   9.791  19.107  0.00  0.00    +0.149 HD
BRANCH   6  23
ATOM     23  C   UNL     1      12.193   8.133  17.804  0.00  0.00    +0.073 C 
ATOM     24  C   UNL     1      11.804   9.053  16.653  0.00  0.00    +0.022 C 
ATOM     25  C   UNL     1      13.628   7.755  17.463  0.00  0.00    +0.022 C 
ATOM     27  C   UNL     1      13.071   9.848  16.338  0.00  0.00    +0.002 C 
ATOM     28  C   UNL     1      14.238   9.033  16.896  0.00  0.00    +0.002 C 
ENDBRANCH   6  23
ENDBRANCH  18  21
ENDBRANCH  12  18
TORSDOF 8
ENDMDL
MODEL 4
REMARK VINA RESULT:      -7.2     19.942     22.546
REMARK  Name = 45784373
REMARK  11 active torsions:
REMARK  status: ('A' for Active; 'I' for Inactive)
REMARK    1  A    between atoms: O_1  and  C_10
REMARK    2  A    between atoms: O_4  and  C_26
REMARK    3  A    between atoms: O_4  and  C_29
REMARK    4  A    between atoms: N_5  and  C_14
REMARK    5  A    between atoms: N_6  and  C_23
REMARK    6  A    between atoms: C_7  and  C_17
REMARK    7  A    between atoms: C_9  and  C_19
REMARK    8  A    between atoms: C_12  and  C_18
REMARK    9  A    between atoms: C_18  and  C_20
REMARK   10  A    between atoms: C_18  and  C_21
REMARK   11  A    between atoms: C_22  and  C_26
REMARK                            x       y       z     vdW  Elec       q    Type
REMARK                         _______ _______ _______ _____ _____    ______ ____
ROOT
ATOM      7  C   UNL     1     -15.276   7.357  20.247  0.00  0.00    -0.027 C 
ATOM      8  C   UNL     1     -14.144   6.472  20.867  0.00  0.00    +0.028 C 
ATOM      9  C   UNL     1     -14.584   5.899  22.262  0.00  0.00    +0.012 C 
ATOM     10  C   UNL     1     -12.776   7.212  20.849  0.00  0.00    +0.122 C 
ATOM     11  C   UNL     1     -14.858   7.811  18.828  0.00  0.00    +0.007 C 
ATOM     12  C   UNL     1     -12.412   7.756  19.447  0.00  0.00    +0.029 C 
ATOM     13  C   UNL     1     -16.562   6.509  20.109  0.00  0.00    +0.009 C 
ATOM     14  C   UNL     1     -15.917   5.112  22.124  0.00  0.00    +0.076 C 
ATOM     15  C   UNL     1     -13.538   8.571  18.813  0.00  0.00    +0.007 C 
ATOM     16  C   UNL     1     -17.022   5.904  21.427  0.00  0.00    +0.023 C 
ATOM     17  C   UNL     1     -15.583   8.614  21.101  0.00  0.00    +0.011 C 
ATOM     19  C   UNL     1     -13.527   4.994  22.916  0.00  0.00    +0.010 C 
ENDROOT
BRANCH  14   5
ATOM      3  O   UNL     1     -16.473   2.392  22.937  0.00  0.00    -0.272 OA
ATOM      5  N   UNL     1     -16.412   4.667  23.410  0.00  0.00    -0.309 N 
ATOM     22  C   UNL     1     -16.648   3.335  23.703  0.00  0.00    +0.251 C 
ATOM     35  H   UNL     1     -16.653   5.375  24.099  0.00  0.00    +0.149 HD
BRANCH  22  26
ATOM     26  C   UNL     1     -17.160   3.158  25.117  0.00  0.00    +0.324 C 
BRANCH  26   4
ATOM      4  O   UNL     1     -16.179   3.546  26.055  0.00  0.00    -0.483 OA
BRANCH   4  29
ATOM     29  C   UNL     1     -16.205   2.929  27.283  0.00  0.00    +0.121 A 
ATOM     30  C   UNL     1     -16.601   1.595  27.385  0.00  0.00    +0.045 A 
ATOM     31  C   UNL     1     -15.837   3.636  28.427  0.00  0.00    +0.045 A 
ATOM     32  C   UNL     1     -16.628   0.968  28.631  0.00  0.00    +0.004 A 
ATOM     33  C   UNL     1     -15.863   3.009  29.674  0.00  0.00    +0.004 A 
ATOM     34  C   UNL     1     -16.259   1.676  29.775  0.00  0.00    +0.000 A 
ENDBRANCH   4  29
ENDBRANCH  26   4
ENDBRANCH  22  26
ENDBRANCH  14   5
BRANCH  10   1
ATOM      1  O   UNL     1     -11.738   6.304  21.218  0.00  0.00    -0.391 OA
ATOM     36  H   UNL     1     -10.980   6.455  20.628  0.00  0.00    +0.210 HD
ENDBRANCH  10   1
BRANCH  12  18
ATOM     18  C   UNL     1     -11.127   8.593  19.478  0.00  0.00    +0.077 C 
ATOM     20  C   UNL     1     -11.367   9.894  20.237  0.00  0.00    +0.017 C 
BRANCH  18  21
ATOM      2  O   UNL     1     -10.459   7.960  17.239  0.00  0.00    -0.276 OA
ATOM      6  N   UNL     1     -10.451  10.209  17.805  0.00  0.00    -0.312 N 
ATOM     21  C   UNL     1     -10.646   8.859  18.055  0.00  0.00    +0.216 C 
ATOM     37  H   UNL     1     -10.653  10.890  18.530  0.00  0.00    +0.149 HD
BRANCH   6  23
ATOM     23  C   UNL     1      -9.997  10.708  16.530  0.00  0.00    +0.073 C 
ATOM     24  C   UNL     1     -11.158  10.975  15.578  0.00  0.00    +0.022 C 
ATOM     25  C   UNL     1      -9.346  12.079  16.660  0.00  0.00    +0.022 C 
ATOM     27  C   UNL     1     -11.666  12.366  15.955  0.00  0.00    +0.002 C 
ATOM     28  C   UNL     1     -10.516  13.059  16.687  0.00  0.00    +0.002 C 
ENDBRANCH   6  23
ENDBRANCH  18  21
ENDBRANCH  12  18
TORSDOF 8
ENDMDL
MODEL 5
REMARK VINA RESULT:      -7.1     28.295     31.966
REMARK  Name = 45784373
REMARK  11 active torsions:
REMARK  status: ('A' for Active; 'I' for Inactive)
REMARK    1  A    between atoms: O_1  and  C_10
REMARK    2  A    between atoms: O_4  and  C_26
REMARK    3  A    between atoms: O_4  and  C_29
REMARK    4  A    between atoms: N_5  and  C_14
REMARK    5  A    between atoms: N_6  and  C_23
REMARK    6  A    between atoms: C_7  and  C_17
REMARK    7  A    between atoms: C_9  and  C_19
REMARK    8  A    between atoms: C_12  and  C_18
REMARK    9  A    between atoms: C_18  and  C_20
REMARK   10  A    between atoms: C_18  and  C_21
REMARK   11  A    between atoms: C_22  and  C_26
REMARK                            x       y       z     vdW  Elec       q    Type
REMARK                         _______ _______ _______ _____ _____    ______ ____
ROOT
ATOM      7  C   UNL     1      16.776   7.148  20.312  0.00  0.00    -0.027 C 
ATOM      8  C   UNL     1      17.668   8.314  20.854  0.00  0.00    +0.028 C 
ATOM      9  C   UNL     1      18.868   7.755  21.697  0.00  0.00    +0.012 C 
ATOM     10  C   UNL     1      16.807   9.403  21.556  0.00  0.00    +0.122 C 
ATOM     11  C   UNL     1      15.671   7.725  19.395  0.00  0.00    +0.007 C 
ATOM     12  C   UNL     1      15.640   9.901  20.671  0.00  0.00    +0.029 C 
ATOM     13  C   UNL     1      17.649   6.199  19.459  0.00  0.00    +0.009 C 
ATOM     14  C   UNL     1      19.695   6.745  20.853  0.00  0.00    +0.076 C 
ATOM     15  C   UNL     1      14.802   8.762  20.092  0.00  0.00    +0.007 C 
ATOM     16  C   UNL     1      18.846   5.645  20.217  0.00  0.00    +0.023 C 
ATOM     17  C   UNL     1      16.104   6.337  21.451  0.00  0.00    +0.011 C 
ATOM     19  C   UNL     1      19.805   8.850  22.236  0.00  0.00    +0.010 C 
ENDROOT
BRANCH  14   5
ATOM      3  O   UNL     1      22.528   6.707  20.266  0.00  0.00    -0.272 OA
ATOM      5  N   UNL     1      20.743   6.123  21.635  0.00  0.00    -0.309 N 
ATOM     22  C   UNL     1      22.077   6.160  21.268  0.00  0.00    +0.251 C 
ATOM     35  H   UNL     1      20.470   5.585  22.454  0.00  0.00    +0.149 HD
BRANCH  22  26
ATOM     26  C   UNL     1      22.950   5.431  22.267  0.00  0.00    +0.324 C 
BRANCH  26   4
ATOM      4  O   UNL     1      22.366   4.198  22.632  0.00  0.00    -0.483 OA
BRANCH   4  29
ATOM     29  C   UNL     1      23.110   3.062  22.413  0.00  0.00    +0.121 A 
ATOM     30  C   UNL     1      23.625   2.799  21.144  0.00  0.00    +0.045 A 
ATOM     31  C   UNL     1      23.349   2.173  23.461  0.00  0.00    +0.045 A 
ATOM     32  C   UNL     1      24.380   1.647  20.922  0.00  0.00    +0.004 A 
ATOM     33  C   UNL     1      24.105   1.021  23.240  0.00  0.00    +0.004 A 
ATOM     34  C   UNL     1      24.619   0.758  21.971  0.00  0.00    +0.000 A 
ENDBRANCH   4  29
ENDBRANCH  26   4
ENDBRANCH  22  26
ENDBRANCH  14   5
BRANCH  10   1
ATOM      1  O   UNL     1      17.619  10.543  21.841  0.00  0.00    -0.391 OA
ATOM     36  H   UNL     1      18.017  10.847  21.008  0.00  0.00    +0.210 HD
ENDBRANCH  10   1
BRANCH  12  18
ATOM     18  C   UNL     1      14.728  10.876  21.428  0.00  0.00    +0.077 C 
ATOM     20  C   UNL     1      14.812  10.614  22.928  0.00  0.00    +0.017 C 
BRANCH  18  21
ATOM      2  O   UNL     1      12.860  11.414  19.984  0.00  0.00    -0.276 OA
ATOM      6  N   UNL     1      12.563   9.806  21.630  0.00  0.00    -0.312 N 
ATOM     21  C   UNL     1      13.295  10.747  20.920  0.00  0.00    +0.216 C 
ATOM     37  H   UNL     1      13.008   9.281  22.376  0.00  0.00    +0.149 HD
BRANCH   6  23
ATOM     23  C   UNL     1      11.183   9.509  21.336  0.00  0.00    +0.073 C 
ATOM     24  C   UNL     1      11.039   8.675  20.067  0.00  0.00    +0.022 C 
ATOM     25  C   UNL     1      10.560   8.614  22.399  0.00  0.00    +0.022 C 
ATOM     27  C   UNL     1      11.268   7.233  20.514  0.00  0.00    +0.002 C 
ATOM     28  C   UNL     1      11.001   7.203  22.020  0.00  0.00    +0.002 C 
ENDBRANCH   6  23
ENDBRANCH  18  21
ENDBRANCH  12  18
TORSDOF 8
ENDMDL
MODEL 6
REMARK VINA RESULT:      -7.0     28.593     32.213
REMARK  Name = 45784373
REMARK  11 active torsions:
REMARK  status: ('A' for Active; 'I' for Inactive)
REMARK    1  A    between atoms: O_1  and  C_10
REMARK    2  A    between atoms: O_4  and  C_26
REMARK    3  A    between atoms: O_4  and  C_29
REMARK    4  A    between atoms: N_5  and  C_14
REMARK    5  A    between atoms: N_6  and  C_23
REMARK    6  A    between atoms: C_7  and  C_17
REMARK    7  A    between atoms: C_9  and  C_19
REMARK    8  A    between atoms: C_12  and  C_18
REMARK    9  A    between atoms: C_18  and  C_20
REMARK   10  A    between atoms: C_18  and  C_21
REMARK   11  A    between atoms: C_22  and  C_26
REMARK                            x       y       z     vdW  Elec       q    Type
REMARK                         _______ _______ _______ _____ _____    ______ ____
ROOT
ATOM      7  C   UNL     1      15.941   6.912  19.607  0.00  0.00    -0.027 C 
ATOM      8  C   UNL     1      16.724   8.179  20.089  0.00  0.00    +0.028 C 
ATOM      9  C   UNL     1      17.853   7.785  21.105  0.00  0.00    +0.012 C 
ATOM     10  C   UNL     1      15.751   9.294  20.568  0.00  0.00    +0.122 C 
ATOM     11  C   UNL     1      14.914   7.320  18.524  0.00  0.00    +0.007 C 
ATOM     12  C   UNL     1      14.661   9.624  19.521  0.00  0.00    +0.029 C 
ATOM     13  C   UNL     1      16.936   5.919  18.962  0.00  0.00    +0.009 C 
ATOM     14  C   UNL     1      18.804   6.730  20.472  0.00  0.00    +0.076 C 
ATOM     15  C   UNL     1      13.935   8.383  19.004  0.00  0.00    +0.007 C 
ATOM     16  C   UNL     1      18.071   5.521  19.893  0.00  0.00    +0.023 C 
ATOM     17  C   UNL     1      15.190   6.203  20.763  0.00  0.00    +0.011 C 
ATOM     19  C   UNL     1      18.684   8.982  21.598  0.00  0.00    +0.010 C 
ENDROOT
BRANCH  14   5
ATOM      3  O   UNL     1      21.680   6.744  20.157  0.00  0.00    -0.272 OA
ATOM      5  N   UNL     1      19.790   6.258  21.422  0.00  0.00    -0.309 N 
ATOM     22  C   UNL     1      21.152   6.308  21.176  0.00  0.00    +0.251 C 
ATOM     35  H   UNL     1      19.457   5.817  22.275  0.00  0.00    +0.149 HD
BRANCH  22  26
ATOM     26  C   UNL     1      21.947   5.750  22.337  0.00  0.00    +0.324 C 
BRANCH  26   4
ATOM      4  O   UNL     1      21.519   4.441  22.650  0.00  0.00    -0.483 OA
BRANCH   4  29
ATOM     29  C   UNL     1      22.401   3.416  22.402  0.00  0.00    +0.121 A 
ATOM     30  C   UNL     1      22.925   2.674  23.462  0.00  0.00    +0.045 A 
ATOM     31  C   UNL     1      22.773   3.118  21.091  0.00  0.00    +0.045 A 
ATOM     32  C   UNL     1      23.821   1.634  23.209  0.00  0.00    +0.004 A 
ATOM     33  C   UNL     1      23.668   2.077  20.839  0.00  0.00    +0.004 A 
ATOM     34  C   UNL     1      24.192   1.337  21.898  0.00  0.00    +0.000 A 
ENDBRANCH   4  29
ENDBRANCH  26   4
ENDBRANCH  22  26
ENDBRANCH  14   5
BRANCH  10   1
ATOM      1  O   UNL     1      16.482  10.500  20.792  0.00  0.00    -0.391 OA
ATOM     36  H   UNL     1      16.846  10.471  21.693  0.00  0.00    +0.210 HD
ENDBRANCH  10   1
BRANCH  12  18
ATOM     18  C   UNL     1      13.637  10.630  20.064  0.00  0.00    +0.077 C 
ATOM     20  C   UNL     1      12.295   9.941  20.287  0.00  0.00    +0.017 C 
BRANCH  18  21
ATOM      2  O   UNL     1      12.798  12.782  19.341  0.00  0.00    -0.276 OA
ATOM      6  N   UNL     1      14.267  11.642  17.954  0.00  0.00    -0.312 N 
ATOM     21  C   UNL     1      13.506  11.807  19.102  0.00  0.00    +0.216 C 
ATOM     37  H   UNL     1      14.844  10.814  17.848  0.00  0.00    +0.149 HD
BRANCH   6  23
ATOM     23  C   UNL     1      14.304  12.621  16.897  0.00  0.00    +0.073 C 
ATOM     24  C   UNL     1      15.615  13.400  16.888  0.00  0.00    +0.022 C 
ATOM     25  C   UNL     1      14.293  11.967  15.521  0.00  0.00    +0.022 C 
ATOM     27  C   UNL     1      16.595  12.515  16.120  0.00  0.00    +0.002 C 
ATOM     28  C   UNL     1      15.744  11.566  15.274  0.00  0.00    +0.002 C 
ENDBRANCH   6  23
ENDBRANCH  18  21
ENDBRANCH  12  18
TORSDOF 8
ENDMDL
MODEL 7
REMARK VINA RESULT:      -6.9      3.781      9.085
REMARK  Name = 45784373
REMARK  11 active torsions:
REMARK  status: ('A' for Active; 'I' for Inactive)
REMARK    1  A    between atoms: O_1  and  C_10
REMARK    2  A    between atoms: O_4  and  C_26
REMARK    3  A    between atoms: O_4  and  C_29
REMARK    4  A    between atoms: N_5  and  C_14
REMARK    5  A    between atoms: N_6  and  C_23
REMARK    6  A    between atoms: C_7  and  C_17
REMARK    7  A    between atoms: C_9  and  C_19
REMARK    8  A    between atoms: C_12  and  C_18
REMARK    9  A    between atoms: C_18  and  C_20
REMARK   10  A    between atoms: C_18  and  C_21
REMARK   11  A    between atoms: C_22  and  C_26
REMARK                            x       y       z     vdW  Elec       q    Type
REMARK                         _______ _______ _______ _____ _____    ______ ____
ROOT
ATOM      7  C   UNL     1      -4.655 -11.043  16.836  0.00  0.00    -0.027 C 
ATOM      8  C   UNL     1      -5.493 -10.427  15.665  0.00  0.00    +0.028 C 
ATOM      9  C   UNL     1      -7.031 -10.548  15.955  0.00  0.00    +0.012 C 
ATOM     10  C   UNL     1      -5.026 -10.979  14.288  0.00  0.00    +0.122 C 
ATOM     11  C   UNL     1      -3.149 -10.807  16.573  0.00  0.00    +0.007 C 
ATOM     12  C   UNL     1      -3.501 -10.835  14.074  0.00  0.00    +0.029 C 
ATOM     13  C   UNL     1      -5.022 -10.321  18.153  0.00  0.00    +0.009 C 
ATOM     14  C   UNL     1      -7.376  -9.884  17.318  0.00  0.00    +0.076 C 
ATOM     15  C   UNL     1      -2.681 -11.381  15.243  0.00  0.00    +0.007 C 
ATOM     16  C   UNL     1      -6.508 -10.381  18.473  0.00  0.00    +0.023 C 
ATOM     17  C   UNL     1      -4.899 -12.565  17.003  0.00  0.00    +0.011 C 
ATOM     19  C   UNL     1      -7.915  -9.934  14.856  0.00  0.00    +0.010 C 
ENDROOT
BRANCH  14   5
ATOM      3  O   UNL     1      -9.466  -7.884  17.348  0.00  0.00    -0.272 OA
ATOM      5  N   UNL     1      -8.767 -10.077  17.672  0.00  0.00    -0.309 N 
ATOM     22  C   UNL     1      -9.695  -9.050  17.654  0.00  0.00    +0.251 C 
ATOM     35  H   UNL     1      -9.051 -10.994  18.005  0.00  0.00    +0.149 HD
BRANCH  22  26
ATOM     26  C   UNL     1     -11.068  -9.534  18.068  0.00  0.00    +0.324 C 
BRANCH  26   4
ATOM      4  O   UNL     1     -10.966 -10.547  19.047  0.00  0.00    -0.483 OA
BRANCH   4  29
ATOM     29  C   UNL     1     -12.063 -10.759  19.847  0.00  0.00    +0.121 A 
ATOM     30  C   UNL     1     -12.179 -11.947  20.571  0.00  0.00    +0.045 A 
ATOM     31  C   UNL     1     -13.060  -9.788  19.937  0.00  0.00    +0.045 A 
ATOM     32  C   UNL     1     -13.293 -12.163  21.383  0.00  0.00    +0.004 A 
ATOM     33  C   UNL     1     -14.173 -10.003  20.750  0.00  0.00    +0.004 A 
ATOM     34  C   UNL     1     -14.290 -11.190  21.472  0.00  0.00    +0.000 A 
ENDBRANCH   4  29
ENDBRANCH  26   4
ENDBRANCH  22  26
ENDBRANCH  14   5
BRANCH  10   1
ATOM      1  O   UNL     1      -5.657 -10.241  13.240  0.00  0.00    -0.391 OA
ATOM     36  H   UNL     1      -6.056 -10.874  12.621  0.00  0.00    +0.210 HD
ENDBRANCH  10   1
BRANCH  12  18
ATOM     18  C   UNL     1      -3.044 -11.500  12.770  0.00  0.00    +0.077 C 
ATOM     20  C   UNL     1      -1.800 -12.347  13.022  0.00  0.00    +0.017 C 
BRANCH  18  21
ATOM      2  O   UNL     1      -1.697  -9.886  11.568  0.00  0.00    -0.276 OA
ATOM      6  N   UNL     1      -3.910 -10.177  10.934  0.00  0.00    -0.312 N 
ATOM     21  C   UNL     1      -2.787 -10.437  11.706  0.00  0.00    +0.216 C 
ATOM     37  H   UNL     1      -4.766 -10.697  11.100  0.00  0.00    +0.149 HD
BRANCH   6  23
ATOM     23  C   UNL     1      -3.913  -9.209   9.866  0.00  0.00    +0.073 C 
ATOM     24  C   UNL     1      -4.464  -9.793   8.570  0.00  0.00    +0.022 C 
ATOM     25  C   UNL     1      -4.871  -8.059  10.150  0.00  0.00    +0.022 C 
ATOM     27  C   UNL     1      -5.982  -9.677   8.698  0.00  0.00    +0.002 C 
ATOM     28  C   UNL     1      -6.242  -8.592   9.744  0.00  0.00    +0.002 C 
ENDBRANCH   6  23
ENDBRANCH  18  21
ENDBRANCH  12  18
TORSDOF 8
ENDMDL
MODEL 8
REMARK VINA RESULT:      -6.8     19.474     22.882
REMARK  Name = 45784373
REMARK  11 active torsions:
REMARK  status: ('A' for Active; 'I' for Inactive)
REMARK    1  A    between atoms: O_1  and  C_10
REMARK    2  A    between atoms: O_4  and  C_26
REMARK    3  A    between atoms: O_4  and  C_29
REMARK    4  A    between atoms: N_5  and  C_14
REMARK    5  A    between atoms: N_6  and  C_23
REMARK    6  A    between atoms: C_7  and  C_17
REMARK    7  A    between atoms: C_9  and  C_19
REMARK    8  A    between atoms: C_12  and  C_18
REMARK    9  A    between atoms: C_18  and  C_20
REMARK   10  A    between atoms: C_18  and  C_21
REMARK   11  A    between atoms: C_22  and  C_26
REMARK                            x       y       z     vdW  Elec       q    Type
REMARK                         _______ _______ _______ _____ _____    ______ ____
ROOT
ATOM      7  C   UNL     1     -11.301   8.295  19.494  0.00  0.00    -0.027 C 
ATOM      8  C   UNL     1     -12.624   9.131  19.518  0.00  0.00    +0.028 C 
ATOM      9  C   UNL     1     -13.875   8.194  19.666  0.00  0.00    +0.012 C 
ATOM     10  C   UNL     1     -12.677  10.136  18.331  0.00  0.00    +0.122 C 
ATOM     11  C   UNL     1     -10.085   9.252  19.462  0.00  0.00    +0.007 C 
ATOM     12  C   UNL     1     -11.411  11.019  18.241  0.00  0.00    +0.029 C 
ATOM     13  C   UNL     1     -11.208   7.460  20.793  0.00  0.00    +0.009 C 
ATOM     14  C   UNL     1     -13.735   7.306  20.934  0.00  0.00    +0.076 C 
ATOM     15  C   UNL     1     -10.115  10.209  18.278  0.00  0.00    +0.007 C 
ATOM     16  C   UNL     1     -12.409   6.551  21.005  0.00  0.00    +0.023 C 
ATOM     17  C   UNL     1     -11.220   7.347  18.271  0.00  0.00    +0.011 C 
ATOM     19  C   UNL     1     -15.210   8.955  19.726  0.00  0.00    +0.010 C 
ENDROOT
BRANCH  14   5
ATOM      3  O   UNL     1     -15.463   6.866  23.213  0.00  0.00    -0.272 OA
ATOM      5  N   UNL     1     -14.816   6.348  21.040  0.00  0.00    -0.309 N 
ATOM     22  C   UNL     1     -15.590   6.213  22.180  0.00  0.00    +0.251 C 
ATOM     35  H   UNL     1     -14.965   5.711  20.263  0.00  0.00    +0.149 HD
BRANCH  22  26
ATOM     26  C   UNL     1     -16.644   5.140  22.014  0.00  0.00    +0.324 C 
BRANCH  26   4
ATOM      4  O   UNL     1     -16.101   3.863  22.276  0.00  0.00    -0.483 OA
BRANCH   4  29
ATOM     29  C   UNL     1     -16.438   3.271  23.470  0.00  0.00    +0.121 A 
ATOM     30  C   UNL     1     -15.744   3.602  24.634  0.00  0.00    +0.045 A 
ATOM     31  C   UNL     1     -17.475   2.338  23.517  0.00  0.00    +0.045 A 
ATOM     32  C   UNL     1     -16.087   3.001  25.845  0.00  0.00    +0.004 A 
ATOM     33  C   UNL     1     -17.818   1.738  24.729  0.00  0.00    +0.004 A 
ATOM     34  C   UNL     1     -17.124   2.068  25.892  0.00  0.00    +0.000 A 
ENDBRANCH   4  29
ENDBRANCH  26   4
ENDBRANCH  22  26
ENDBRANCH  14   5
BRANCH  10   1
ATOM      1  O   UNL     1     -13.783  11.022  18.506  0.00  0.00    -0.391 OA
ATOM     36  H   UNL     1     -13.690  11.455  19.371  0.00  0.00    +0.210 HD
ENDBRANCH  10   1
BRANCH  12  18
ATOM     18  C   UNL     1     -11.425  11.909  16.992  0.00  0.00    +0.077 C 
ATOM     20  C   UNL     1     -10.899  11.132  15.790  0.00  0.00    +0.017 C 
BRANCH  18  21
ATOM      2  O   UNL     1     -10.764  13.881  18.231  0.00  0.00    -0.276 OA
ATOM      6  N   UNL     1      -9.675  13.406  16.239  0.00  0.00    -0.312 N 
ATOM     21  C   UNL     1     -10.603  13.169  17.242  0.00  0.00    +0.216 C 
ATOM     37  H   UNL     1      -9.591  12.753  15.467  0.00  0.00    +0.149 HD
BRANCH   6  23
ATOM     23  C   UNL     1      -8.784  14.540  16.254  0.00  0.00    +0.073 C 
ATOM     24  C   UNL     1      -7.550  14.282  17.112  0.00  0.00    +0.022 C 
ATOM     25  C   UNL     1      -8.187  14.805  14.878  0.00  0.00    +0.022 C 
ATOM     27  C   UNL     1      -6.588  13.521  16.201  0.00  0.00    +0.002 C 
ATOM     28  C   UNL     1      -7.023  13.824  14.767  0.00  0.00    +0.002 C 
ENDBRANCH   6  23
ENDBRANCH  18  21
ENDBRANCH  12  18
TORSDOF 8
ENDMDL
MODEL 9
REMARK VINA RESULT:      -6.8      4.193      8.563
REMARK  Name = 45784373
REMARK  11 active torsions:
REMARK  status: ('A' for Active; 'I' for Inactive)
REMARK    1  A    between atoms: O_1  and  C_10
REMARK    2  A    between atoms: O_4  and  C_26
REMARK    3  A    between atoms: O_4  and  C_29
REMARK    4  A    between atoms: N_5  and  C_14
REMARK    5  A    between atoms: N_6  and  C_23
REMARK    6  A    between atoms: C_7  and  C_17
REMARK    7  A    between atoms: C_9  and  C_19
REMARK    8  A    between atoms: C_12  and  C_18
REMARK    9  A    between atoms: C_18  and  C_20
REMARK   10  A    between atoms: C_18  and  C_21
REMARK   11  A    between atoms: C_22  and  C_26
REMARK                            x       y       z     vdW  Elec       q    Type
REMARK                         _______ _______ _______ _____ _____    ______ ____
ROOT
ATOM      7  C   UNL     1      -6.647 -11.448  18.563  0.00  0.00    -0.027 C 
ATOM      8  C   UNL     1      -7.252 -10.946  17.210  0.00  0.00    +0.028 C 
ATOM      9  C   UNL     1      -6.136 -10.335  16.290  0.00  0.00    +0.012 C 
ATOM     10  C   UNL     1      -8.492 -10.038  17.450  0.00  0.00    +0.122 C 
ATOM     11  C   UNL     1      -7.749 -12.144  19.396  0.00  0.00    +0.007 C 
ATOM     12  C   UNL     1      -9.546 -10.699  18.370  0.00  0.00    +0.029 C 
ATOM     13  C   UNL     1      -5.548 -12.496  18.266  0.00  0.00    +0.009 C 
ATOM     14  C   UNL     1      -5.001 -11.372  16.061  0.00  0.00    +0.076 C 
ATOM     15  C   UNL     1      -8.947 -11.244  19.666  0.00  0.00    +0.007 C 
ATOM     16  C   UNL     1      -4.450 -11.968  17.355  0.00  0.00    +0.023 C 
ATOM     17  C   UNL     1      -6.040 -10.296  19.405  0.00  0.00    +0.011 C 
ATOM     19  C   UNL     1      -6.658  -9.847  14.928  0.00  0.00    +0.010 C 
ENDROOT
BRANCH  14   5
ATOM      3  O   UNL     1      -3.056 -12.797  14.462  0.00  0.00    -0.272 OA
ATOM      5  N   UNL     1      -3.899 -10.804  15.312  0.00  0.00    -0.309 N 
ATOM     22  C   UNL     1      -3.018 -11.575  14.573  0.00  0.00    +0.251 C 
ATOM     35  H   UNL     1      -3.737  -9.804  15.387  0.00  0.00    +0.149 HD
BRANCH  22  26
ATOM     26  C   UNL     1      -1.967 -10.722  13.894  0.00  0.00    +0.324 C 
BRANCH  26   4
ATOM      4  O   UNL     1      -1.657 -11.239  12.616  0.00  0.00    -0.483 OA
BRANCH   4  29
ATOM     29  C   UNL     1      -2.469 -10.863  11.573  0.00  0.00    +0.121 A 
ATOM     30  C   UNL     1      -3.334 -11.792  10.993  0.00  0.00    +0.045 A 
ATOM     31  C   UNL     1      -2.430  -9.554  11.094  0.00  0.00    +0.045 A 
ATOM     32  C   UNL     1      -4.159 -11.411   9.935  0.00  0.00    +0.004 A 
ATOM     33  C   UNL     1      -3.255  -9.172  10.036  0.00  0.00    +0.004 A 
ATOM     34  C   UNL     1      -4.119 -10.101   9.456  0.00  0.00    +0.000 A 
ENDBRANCH   4  29
ENDBRANCH  26   4
ENDBRANCH  22  26
ENDBRANCH  14   5
BRANCH  10   1
ATOM      1  O   UNL     1      -9.142  -9.779  16.205  0.00  0.00    -0.391 OA
ATOM     36  H   UNL     1      -9.128  -8.819  16.049  0.00  0.00    +0.210 HD
ENDBRANCH  10   1
BRANCH  12  18
ATOM     18  C   UNL     1     -10.696  -9.739  18.699  0.00  0.00    +0.077 C 
ATOM     20  C   UNL     1     -11.247 -10.039  20.089  0.00  0.00    +0.017 C 
BRANCH  18  21
ATOM      2  O   UNL     1     -12.472 -10.855  17.489  0.00  0.00    -0.276 OA
ATOM      6  N   UNL     1     -11.894  -8.695  16.870  0.00  0.00    -0.312 N 
ATOM     21  C   UNL     1     -11.783  -9.847  17.634  0.00  0.00    +0.216 C 
ATOM     37  H   UNL     1     -11.300  -7.897  17.073  0.00  0.00    +0.149 HD
BRANCH   6  23
ATOM     23  C   UNL     1     -12.851  -8.559  15.800  0.00  0.00    +0.073 C 
ATOM     24  C   UNL     1     -13.725  -7.322  15.972  0.00  0.00    +0.022 C 
ATOM     25  C   UNL     1     -12.168  -8.303  14.462  0.00  0.00    +0.022 C 
ATOM     27  C   UNL     1     -12.901  -6.171  15.399  0.00  0.00    +0.002 C 
ATOM     28  C   UNL     1     -11.873  -6.806  14.461  0.00  0.00    +0.002 C 
ENDBRANCH   6  23
ENDBRANCH  18  21
ENDBRANCH  12  18
TORSDOF 8
ENDMDL
MODEL 10
REMARK VINA RESULT:      -6.7      4.270     11.360
REMARK  Name = 45784373
REMARK  11 active torsions:
REMARK  status: ('A' for Active; 'I' for Inactive)
REMARK    1  A    between atoms: O_1  and  C_10
REMARK    2  A    between atoms: O_4  and  C_26
REMARK    3  A    between atoms: O_4  and  C_29
REMARK    4  A    between atoms: N_5  and  C_14
REMARK    5  A    between atoms: N_6  and  C_23
REMARK    6  A    between atoms: C_7  and  C_17
REMARK    7  A    between atoms: C_9  and  C_19
REMARK    8  A    between atoms: C_12  and  C_18
REMARK    9  A    between atoms: C_18  and  C_20
REMARK   10  A    between atoms: C_18  and  C_21
REMARK   11  A    between atoms: C_22  and  C_26
REMARK                            x       y       z     vdW  Elec       q    Type
REMARK                         _______ _______ _______ _____ _____    ______ ____
ROOT
ATOM      7  C   UNL     1      -4.984 -11.191  18.007  0.00  0.00    -0.027 C 
ATOM      8  C   UNL     1      -5.754 -12.190  17.079  0.00  0.00    +0.028 C 
ATOM      9  C   UNL     1      -6.534 -13.255  17.929  0.00  0.00    +0.012 C 
ATOM     10  C   UNL     1      -4.821 -12.767  15.976  0.00  0.00    +0.122 C 
ATOM     11  C   UNL     1      -4.321 -10.091  17.145  0.00  0.00    +0.007 C 
ATOM     12  C   UNL     1      -4.079 -11.663  15.186  0.00  0.00    +0.029 C 
ATOM     13  C   UNL     1      -5.994 -10.503  18.955  0.00  0.00    +0.009 C 
ATOM     14  C   UNL     1      -7.491 -12.549  18.930  0.00  0.00    +0.076 C 
ATOM     15  C   UNL     1      -3.377 -10.652  16.091  0.00  0.00    +0.007 C 
ATOM     16  C   UNL     1      -6.801 -11.488  19.786  0.00  0.00    +0.023 C 
ATOM     17  C   UNL     1      -3.888 -11.891  18.851  0.00  0.00    +0.011 C 
ATOM     19  C   UNL     1      -7.339 -14.252  17.078  0.00  0.00    +0.010 C 
ENDROOT
BRANCH  14   5
ATOM      3  O   UNL     1     -10.124 -12.318  20.107  0.00  0.00    -0.272 OA
ATOM      5  N   UNL     1      -8.143 -13.497  19.809  0.00  0.00    -0.309 N 
ATOM     22  C   UNL     1      -9.412 -13.295  20.323  0.00  0.00    +0.251 C 
ATOM     35  H   UNL     1      -7.614 -14.313  20.105  0.00  0.00    +0.149 HD
BRANCH  22  26
ATOM     26  C   UNL     1      -9.843 -14.443  21.210  0.00  0.00    +0.324 C 
BRANCH  26   4
ATOM      4  O   UNL     1      -8.754 -14.921  21.972  0.00  0.00    -0.483 OA
BRANCH   4  29
ATOM     29  C   UNL     1      -9.015 -15.311  23.264  0.00  0.00    +0.121 A 
ATOM     30  C   UNL     1     -10.318 -15.252  23.760  0.00  0.00    +0.045 A 
ATOM     31  C   UNL     1      -7.979 -15.765  24.078  0.00  0.00    +0.045 A 
ATOM     32  C   UNL     1     -10.583 -15.648  25.071  0.00  0.00    +0.004 A 
ATOM     33  C   UNL     1      -8.244 -16.162  25.389  0.00  0.00    +0.004 A 
ATOM     34  C   UNL     1      -9.546 -16.102  25.886  0.00  0.00    +0.000 A 
ENDBRANCH   4  29
ENDBRANCH  26   4
ENDBRANCH  22  26
ENDBRANCH  14   5
BRANCH  10   1
ATOM      1  O   UNL     1      -5.600 -13.496  15.027  0.00  0.00    -0.391 OA
ATOM     36  H   UNL     1      -5.667 -14.416  15.333  0.00  0.00    +0.210 HD
ENDBRANCH  10   1
BRANCH  12  18
ATOM     18  C   UNL     1      -3.069 -12.254  14.194  0.00  0.00    +0.077 C 
ATOM     20  C   UNL     1      -1.649 -11.888  14.612  0.00  0.00    +0.017 C 
BRANCH  18  21
ATOM      2  O   UNL     1      -2.515 -11.647  11.917  0.00  0.00    -0.276 OA
ATOM      6  N   UNL     1      -4.723 -11.470  12.606  0.00  0.00    -0.312 N 
ATOM     21  C   UNL     1      -3.378 -11.763  12.783  0.00  0.00    +0.216 C 
ATOM     37  H   UNL     1      -5.375 -11.618  13.370  0.00  0.00    +0.149 HD
BRANCH   6  23
ATOM     23  C   UNL     1      -5.257 -10.988  11.356  0.00  0.00    +0.073 C 
ATOM     24  C   UNL     1      -6.767 -11.180  11.271  0.00  0.00    +0.022 C 
ATOM     25  C   UNL     1      -5.101  -9.478  11.223  0.00  0.00    +0.022 C 
ATOM     27  C   UNL     1      -7.360  -9.977  12.004  0.00  0.00    +0.002 C 
ATOM     28  C   UNL     1      -6.275  -8.900  12.009  0.00  0.00    +0.002 C 
ENDBRANCH   6  23
ENDBRANCH  18  21
ENDBRANCH  12  18
TORSDOF 8
ENDMDL
