MODEL 1
REMARK VINA RESULT:      -7.5      0.000      0.000
REMARK  Name = 38029190
REMARK  14 active torsions:
REMARK  status: ('A' for Active; 'I' for Inactive)
REMARK    1  A    between atoms: N_4  and  C_15
REMARK    2  A    between atoms: N_5  and  C_22
REMARK    3  A    between atoms: N_5  and  C_23
REMARK    4  A    between atoms: N_6  and  C_25
REMARK    5  A    between atoms: C_8  and  C_12
REMARK    6  A    between atoms: C_9  and  C_15
REMARK    7  A    between atoms: C_11  and  C_16
REMARK    8  A    between atoms: C_12  and  C_17
REMARK    9  A    between atoms: C_12  and  C_18
REMARK   10  A    between atoms: C_13  and  C_19
REMARK   11  A    between atoms: C_16  and  C_20
REMARK   12  A    between atoms: C_22  and  C_24
REMARK   13  A    between atoms: C_34  and  C_35
REMARK   14  A    between atoms: C_35  and  C_36
REMARK                            x       y       z     vdW  Elec       q    Type
REMARK                         _______ _______ _______ _____ _____    ______ ____
ROOT
ATOM      8  C   UNL     1      12.041   9.213  20.478  0.00  0.00    +0.000 C 
ATOM      9  C   UNL     1      11.989   8.793  18.988  0.00  0.00    +0.032 C 
ATOM     10  C   UNL     1      12.012  10.744  20.606  0.00  0.00    +0.012 C 
ATOM     11  C   UNL     1      13.188  11.411  19.870  0.00  0.00    +0.023 C 
ATOM     13  C   UNL     1      13.370  10.853  18.474  0.00  0.00    -0.073 C 
ATOM     14  C   UNL     1      12.815   9.688  18.093  0.00  0.00    -0.022 C 
ATOM     19  C   UNL     1      14.166  11.686  17.509  0.00  0.00    +0.039 C 
ENDROOT
BRANCH   8  12
ATOM     12  C   UNL     1      10.886   8.603  21.281  0.00  0.00    -0.013 C 
ATOM     17  C   UNL     1      10.574   9.463  22.501  0.00  0.00    +0.007 C 
ATOM     18  C   UNL     1      11.224   7.174  21.697  0.00  0.00    +0.007 C 
ENDBRANCH   8  12
BRANCH   9  15
ATOM     15  C   UNL     1      12.435   7.338  18.807  0.00  0.00    +0.113 C 
BRANCH  15   4
ATOM      2  O   UNL     1      14.433   6.590  20.718  0.00  0.00    -0.253 OA
ATOM      4  N   UNL     1      13.845   7.264  18.584  0.00  0.00    -0.299 N 
ATOM      6  N   UNL     1      16.074   6.904  19.069  0.00  0.00    -0.269 N 
ATOM     21  C   UNL     1      14.771   6.887  19.575  0.00  0.00    +0.304 C 
ATOM     37  H   UNL     1      14.196   7.426  17.645  0.00  0.00    +0.150 HD
ATOM     38  H   UNL     1      16.181   7.178  18.095  0.00  0.00    +0.156 HD
BRANCH   6  25
ATOM     25  C   UNL     1      17.273   6.590  19.749  0.00  0.00    +0.035 A 
ATOM     28  C   UNL     1      17.670   7.348  20.850  0.00  0.00    +0.024 A 
ATOM     29  C   UNL     1      18.061   5.521  19.318  0.00  0.00    +0.024 A 
ATOM     31  C   UNL     1      18.853   7.038  21.521  0.00  0.00    +0.013 A 
ATOM     32  C   UNL     1      19.245   5.212  19.988  0.00  0.00    +0.013 A 
ATOM     34  C   UNL     1      19.641   5.971  21.090  0.00  0.00    +0.017 A 
BRANCH  34  35
ATOM      3  O   UNL     1      20.932   5.634  23.035  0.00  0.00    -0.292 OA
ATOM     35  C   UNL     1      20.874   5.649  21.788  0.00  0.00    +0.160 C 
ATOM     36  C   UNL     1      22.139   5.320  21.002  0.00  0.00    +0.091 C 
ENDBRANCH  34  35
ENDBRANCH   6  25
ENDBRANCH  15   4
ENDBRANCH   9  15
BRANCH  11  16
ATOM     16  C   UNL     1      14.483  11.296  20.681  0.00  0.00    +0.103 C 
BRANCH  16  20
ATOM      1  O   UNL     1      15.453  13.461  20.343  0.00  0.00    -0.276 OA
ATOM      5  N   UNL     1      14.902  12.889  22.522  0.00  0.00    -0.300 N 
ATOM     20  C   UNL     1      14.993  12.646  21.147  0.00  0.00    +0.216 C 
ATOM     23  C   UNL     1      15.348  14.138  23.127  0.00  0.00    +0.132 C 
BRANCH   5  22
ATOM     22  C   UNL     1      14.352  11.908  23.456  0.00  0.00    +0.144 C 
BRANCH  22  24
ATOM      7  N   UNL     1      11.184  12.029  25.518  0.00  0.00    -0.263 NA
ATOM     24  C   UNL     1      12.966  12.272  23.901  0.00  0.00    -0.012 A 
ATOM     26  C   UNL     1      12.182  13.151  23.161  0.00  0.00    +0.008 A 
ATOM     27  C   UNL     1      12.425  11.744  25.062  0.00  0.00    +0.115 A 
ATOM     30  C   UNL     1      10.901  13.469  23.596  0.00  0.00    +0.020 A 
ATOM     33  C   UNL     1      10.453  12.886  24.771  0.00  0.00    +0.111 A 
ENDBRANCH  22  24
ENDBRANCH   5  22
ENDBRANCH  16  20
ENDBRANCH  11  16
TORSDOF 9
ENDMDL
MODEL 2
REMARK VINA RESULT:      -6.9     27.486     30.888
REMARK  Name = 38029190
REMARK  14 active torsions:
REMARK  status: ('A' for Active; 'I' for Inactive)
REMARK    1  A    between atoms: N_4  and  C_15
REMARK    2  A    between atoms: N_5  and  C_22
REMARK    3  A    between atoms: N_5  and  C_23
REMARK    4  A    between atoms: N_6  and  C_25
REMARK    5  A    between atoms: C_8  and  C_12
REMARK    6  A    between atoms: C_9  and  C_15
REMARK    7  A    between atoms: C_11  and  C_16
REMARK    8  A    between atoms: C_12  and  C_17
REMARK    9  A    between atoms: C_12  and  C_18
REMARK   10  A    between atoms: C_13  and  C_19
REMARK   11  A    between atoms: C_16  and  C_20
REMARK   12  A    between atoms: C_22  and  C_24
REMARK   13  A    between atoms: C_34  and  C_35
REMARK   14  A    between atoms: C_35  and  C_36
REMARK                            x       y       z     vdW  Elec       q    Type
REMARK                         _______ _______ _______ _____ _____    ______ ____
ROOT
ATOM      8  C   UNL     1      -2.996 -12.541  13.191  0.00  0.00    +0.000 C 
ATOM      9  C   UNL     1      -1.850 -11.503  13.287  0.00  0.00    +0.032 C 
ATOM     10  C   UNL     1      -3.338 -12.831  11.722  0.00  0.00    +0.012 C 
ATOM     11  C   UNL     1      -3.764 -11.561  10.962  0.00  0.00    +0.023 C 
ATOM     13  C   UNL     1      -2.821 -10.404  11.222  0.00  0.00    -0.073 C 
ATOM     14  C   UNL     1      -1.963 -10.402  12.258  0.00  0.00    -0.022 C 
ATOM     19  C   UNL     1      -2.854  -9.269  10.238  0.00  0.00    +0.039 C 
ENDROOT
BRANCH   8  12
ATOM     12  C   UNL     1      -2.641 -13.848  13.909  0.00  0.00    -0.013 C 
ATOM     17  C   UNL     1      -1.290 -14.368  13.428  0.00  0.00    +0.007 C 
ATOM     18  C   UNL     1      -3.733 -14.890  13.687  0.00  0.00    +0.007 C 
ENDBRANCH   8  12
BRANCH   9  15
ATOM     15  C   UNL     1      -1.776 -10.887  14.688  0.00  0.00    +0.113 C 
BRANCH  15   4
ATOM      2  O   UNL     1      -3.804 -11.794  16.497  0.00  0.00    -0.253 OA
ATOM      4  N   UNL     1      -2.995 -10.215  15.011  0.00  0.00    -0.299 N 
ATOM      6  N   UNL     1      -5.035  -9.850  16.031  0.00  0.00    -0.269 N 
ATOM     21  C   UNL     1      -3.949 -10.722  15.913  0.00  0.00    +0.304 C 
ATOM     37  H   UNL     1      -3.156  -9.290  14.623  0.00  0.00    +0.150 HD
ATOM     38  H   UNL     1      -5.000  -9.001  15.472  0.00  0.00    +0.156 HD
BRANCH   6  25
ATOM     25  C   UNL     1      -6.189 -10.004  16.833  0.00  0.00    +0.035 A 
ATOM     28  C   UNL     1      -7.413  -9.494  16.400  0.00  0.00    +0.024 A 
ATOM     29  C   UNL     1      -6.104 -10.666  18.059  0.00  0.00    +0.024 A 
ATOM     31  C   UNL     1      -8.551  -9.646  17.192  0.00  0.00    +0.013 A 
ATOM     32  C   UNL     1      -7.242 -10.816  18.851  0.00  0.00    +0.013 A 
ATOM     34  C   UNL     1      -8.466 -10.307  18.418  0.00  0.00    +0.017 A 
BRANCH  34  35
ATOM      3  O   UNL     1      -9.638 -11.157  20.279  0.00  0.00    -0.292 OA
ATOM     35  C   UNL     1      -9.653 -10.463  19.242  0.00  0.00    +0.160 C 
ATOM     36  C   UNL     1     -10.956  -9.774  18.852  0.00  0.00    +0.091 C 
ENDBRANCH  34  35
ENDBRANCH   6  25
ENDBRANCH  15   4
ENDBRANCH   9  15
BRANCH  11  16
ATOM     16  C   UNL     1      -5.209 -11.177  11.298  0.00  0.00    +0.103 C 
BRANCH  16  20
ATOM      1  O   UNL     1      -5.930 -12.894   9.789  0.00  0.00    -0.276 OA
ATOM      5  N   UNL     1      -7.446 -12.221  11.409  0.00  0.00    -0.300 N 
ATOM     20  C   UNL     1      -6.212 -12.176  10.752  0.00  0.00    +0.216 C 
ATOM     23  C   UNL     1      -8.515 -13.127  11.008  0.00  0.00    +0.132 C 
BRANCH   5  22
ATOM     22  C   UNL     1      -7.757 -11.361  12.550  0.00  0.00    +0.144 C 
BRANCH  22  24
ATOM      7  N   UNL     1      -9.097 -12.940  15.714  0.00  0.00    -0.263 NA
ATOM     24  C   UNL     1      -7.805 -12.131  13.837  0.00  0.00    -0.012 A 
ATOM     26  C   UNL     1      -6.664 -12.734  14.355  0.00  0.00    +0.008 A 
ATOM     27  C   UNL     1      -8.986 -12.263  14.549  0.00  0.00    +0.115 A 
ATOM     30  C   UNL     1      -6.737 -13.439  15.550  0.00  0.00    +0.020 A 
ATOM     33  C   UNL     1      -7.966 -13.512  16.186  0.00  0.00    +0.111 A 
ENDBRANCH  22  24
ENDBRANCH   5  22
ENDBRANCH  16  20
ENDBRANCH  11  16
TORSDOF 9
ENDMDL
MODEL 3
REMARK VINA RESULT:      -6.7     15.023     18.450
REMARK  Name = 38029190
REMARK  14 active torsions:
REMARK  status: ('A' for Active; 'I' for Inactive)
REMARK    1  A    between atoms: N_4  and  C_15
REMARK    2  A    between atoms: N_5  and  C_22
REMARK    3  A    between atoms: N_5  and  C_23
REMARK    4  A    between atoms: N_6  and  C_25
REMARK    5  A    between atoms: C_8  and  C_12
REMARK    6  A    between atoms: C_9  and  C_15
REMARK    7  A    between atoms: C_11  and  C_16
REMARK    8  A    between atoms: C_12  and  C_17
REMARK    9  A    between atoms: C_12  and  C_18
REMARK   10  A    between atoms: C_13  and  C_19
REMARK   11  A    between atoms: C_16  and  C_20
REMARK   12  A    between atoms: C_22  and  C_24
REMARK   13  A    between atoms: C_34  and  C_35
REMARK   14  A    between atoms: C_35  and  C_36
REMARK                            x       y       z     vdW  Elec       q    Type
REMARK                         _______ _______ _______ _____ _____    ______ ____
ROOT
ATOM      8  C   UNL     1       8.482   9.220   5.148  0.00  0.00    +0.000 C 
ATOM      9  C   UNL     1       8.537   8.608   6.571  0.00  0.00    +0.032 C 
ATOM     10  C   UNL     1       7.908   8.205   4.149  0.00  0.00    +0.012 C 
ATOM     11  C   UNL     1       8.739   6.910   4.091  0.00  0.00    +0.023 C 
ATOM     13  C   UNL     1       9.064   6.387   5.475  0.00  0.00    -0.073 C 
ATOM     14  C   UNL     1       8.955   7.156   6.573  0.00  0.00    -0.022 C 
ATOM     19  C   UNL     1       9.474   4.944   5.575  0.00  0.00    +0.039 C 
ENDROOT
BRANCH   8  12
ATOM     12  C   UNL     1       7.653  10.508   5.115  0.00  0.00    -0.013 C 
ATOM     17  C   UNL     1       6.407  10.317   4.255  0.00  0.00    +0.007 C 
ATOM     18  C   UNL     1       8.495  11.670   4.598  0.00  0.00    +0.007 C 
ENDBRANCH   8  12
BRANCH   9  15
ATOM     15  C   UNL     1       9.472   9.410   7.483  0.00  0.00    +0.113 C 
BRANCH  15   4
ATOM      2  O   UNL     1      11.661   9.891   5.700  0.00  0.00    -0.253 OA
ATOM      4  N   UNL     1      10.766   8.807   7.538  0.00  0.00    -0.299 N 
ATOM      6  N   UNL     1      12.947   8.356   6.926  0.00  0.00    -0.269 N 
ATOM     21  C   UNL     1      11.798   9.092   6.624  0.00  0.00    +0.304 C 
ATOM     37  H   UNL     1      10.980   8.189   8.315  0.00  0.00    +0.150 HD
ATOM     38  H   UNL     1      12.892   7.734   7.729  0.00  0.00    +0.156 HD
BRANCH   6  25
ATOM     25  C   UNL     1      14.187   8.365   6.246  0.00  0.00    +0.035 A 
ATOM     28  C   UNL     1      14.496   7.345   5.346  0.00  0.00    +0.024 A 
ATOM     29  C   UNL     1      15.102   9.393   6.477  0.00  0.00    +0.024 A 
ATOM     31  C   UNL     1      15.719   7.354   4.676  0.00  0.00    +0.013 A 
ATOM     32  C   UNL     1      16.326   9.400   5.807  0.00  0.00    +0.013 A 
ATOM     34  C   UNL     1      16.634   8.381   4.906  0.00  0.00    +0.017 A 
BRANCH  34  35
ATOM      3  O   UNL     1      17.972   8.308   2.964  0.00  0.00    -0.292 OA
ATOM     35  C   UNL     1      17.909   8.388   4.208  0.00  0.00    +0.160 C 
ATOM     36  C   UNL     1      19.214   8.495   4.991  0.00  0.00    +0.091 C 
ENDBRANCH  34  35
ENDBRANCH   6  25
ENDBRANCH  15   4
ENDBRANCH   9  15
BRANCH  11  16
ATOM     16  C   UNL     1      10.015   7.110   3.266  0.00  0.00    +0.103 C 
BRANCH  16  20
ATOM      1  O   UNL     1       9.287   7.717   1.065  0.00  0.00    -0.276 OA
ATOM      5  N   UNL     1      10.187   5.596   1.321  0.00  0.00    -0.300 N 
ATOM     20  C   UNL     1       9.790   6.853   1.788  0.00  0.00    +0.216 C 
ATOM     23  C   UNL     1      10.040   5.195  -0.072  0.00  0.00    +0.132 C 
BRANCH   5  22
ATOM     22  C   UNL     1      10.782   4.588   2.197  0.00  0.00    +0.144 C 
BRANCH  22  24
ATOM      7  N   UNL     1      14.153   3.029   1.486  0.00  0.00    -0.263 NA
ATOM     24  C   UNL     1      12.260   4.451   1.974  0.00  0.00    -0.012 A 
ATOM     26  C   UNL     1      13.101   5.557   2.043  0.00  0.00    +0.008 A 
ATOM     27  C   UNL     1      12.831   3.220   1.695  0.00  0.00    +0.115 A 
ATOM     30  C   UNL     1      14.466   5.401   1.834  0.00  0.00    +0.020 A 
ATOM     33  C   UNL     1      14.938   4.127   1.561  0.00  0.00    +0.111 A 
ENDBRANCH  22  24
ENDBRANCH   5  22
ENDBRANCH  16  20
ENDBRANCH  11  16
TORSDOF 9
ENDMDL
MODEL 4
REMARK VINA RESULT:      -6.7     25.596     27.749
REMARK  Name = 38029190
REMARK  14 active torsions:
REMARK  status: ('A' for Active; 'I' for Inactive)
REMARK    1  A    between atoms: N_4  and  C_15
REMARK    2  A    between atoms: N_5  and  C_22
REMARK    3  A    between atoms: N_5  and  C_23
REMARK    4  A    between atoms: N_6  and  C_25
REMARK    5  A    between atoms: C_8  and  C_12
REMARK    6  A    between atoms: C_9  and  C_15
REMARK    7  A    between atoms: C_11  and  C_16
REMARK    8  A    between atoms: C_12  and  C_17
REMARK    9  A    between atoms: C_12  and  C_18
REMARK   10  A    between atoms: C_13  and  C_19
REMARK   11  A    between atoms: C_16  and  C_20
REMARK   12  A    between atoms: C_22  and  C_24
REMARK   13  A    between atoms: C_34  and  C_35
REMARK   14  A    between atoms: C_35  and  C_36
REMARK                            x       y       z     vdW  Elec       q    Type
REMARK                         _______ _______ _______ _____ _____    ______ ____
ROOT
ATOM      8  C   UNL     1     -12.389   8.571  19.618  0.00  0.00    +0.000 C 
ATOM      9  C   UNL     1     -11.648   9.856  20.068  0.00  0.00    +0.032 C 
ATOM     10  C   UNL     1     -11.502   7.740  18.679  0.00  0.00    +0.012 C 
ATOM     11  C   UNL     1     -11.087   8.528  17.423  0.00  0.00    +0.023 C 
ATOM     13  C   UNL     1     -10.591   9.918  17.767  0.00  0.00    -0.073 C 
ATOM     14  C   UNL     1     -10.840  10.489  18.959  0.00  0.00    -0.022 C 
ATOM     19  C   UNL     1      -9.764  10.619  16.726  0.00  0.00    +0.039 C 
ENDROOT
BRANCH   8  12
ATOM     12  C   UNL     1     -12.821   7.716  20.816  0.00  0.00    -0.013 C 
ATOM     17  C   UNL     1     -11.867   6.541  21.001  0.00  0.00    +0.007 C 
ATOM     18  C   UNL     1     -14.254   7.228  20.630  0.00  0.00    +0.007 C 
ENDBRANCH   8  12
BRANCH   9  15
ATOM     15  C   UNL     1     -12.625  10.887  20.641  0.00  0.00    +0.113 C 
BRANCH  15   4
ATOM      2  O   UNL     1     -13.037   9.974  23.325  0.00  0.00    -0.253 OA
ATOM      4  N   UNL     1     -12.100  11.475  21.834  0.00  0.00    -0.299 N 
ATOM      6  N   UNL     1     -11.704  11.747  24.092  0.00  0.00    -0.269 N 
ATOM     21  C   UNL     1     -12.346  10.970  23.124  0.00  0.00    +0.304 C 
ATOM     37  H   UNL     1     -11.461  12.259  21.746  0.00  0.00    +0.150 HD
ATOM     38  H   UNL     1     -11.169  12.544  23.756  0.00  0.00    +0.156 HD
BRANCH   6  25
ATOM     25  C   UNL     1     -11.708  11.565  25.495  0.00  0.00    +0.035 A 
ATOM     28  C   UNL     1     -12.524  12.361  26.299  0.00  0.00    +0.024 A 
ATOM     29  C   UNL     1     -10.896  10.590  26.075  0.00  0.00    +0.024 A 
ATOM     31  C   UNL     1     -12.528  12.182  27.682  0.00  0.00    +0.013 A 
ATOM     32  C   UNL     1     -10.899  10.412  27.458  0.00  0.00    +0.013 A 
ATOM     34  C   UNL     1     -11.716  11.208  28.262  0.00  0.00    +0.017 A 
BRANCH  34  35
ATOM      3  O   UNL     1     -12.410  10.135  30.245  0.00  0.00    -0.292 OA
ATOM     35  C   UNL     1     -11.720  11.023  29.704  0.00  0.00    +0.160 C 
ATOM     36  C   UNL     1     -10.870  11.922  30.597  0.00  0.00    +0.091 C 
ENDBRANCH  34  35
ENDBRANCH   6  25
ENDBRANCH  15   4
ENDBRANCH   9  15
BRANCH  11  16
ATOM     16  C   UNL     1     -12.232   8.589  16.406  0.00  0.00    +0.103 C 
BRANCH  16  20
ATOM      1  O   UNL     1     -10.788   7.930  14.611  0.00  0.00    -0.276 OA
ATOM      5  N   UNL     1     -12.399   9.525  14.125  0.00  0.00    -0.300 N 
ATOM     20  C   UNL     1     -11.729   8.639  14.976  0.00  0.00    +0.216 C 
ATOM     23  C   UNL     1     -12.038   9.689  12.723  0.00  0.00    +0.132 C 
BRANCH   5  22
ATOM     22  C   UNL     1     -13.514  10.355  14.581  0.00  0.00    +0.144 C 
BRANCH  22  24
ATOM      7  N   UNL     1     -11.710  13.604  15.283  0.00  0.00    -0.263 NA
ATOM     24  C   UNL     1     -13.041  11.585  15.299  0.00  0.00    -0.012 A 
ATOM     26  C   UNL     1     -13.456  11.862  16.597  0.00  0.00    +0.008 A 
ATOM     27  C   UNL     1     -12.175  12.480  14.691  0.00  0.00    +0.115 A 
ATOM     30  C   UNL     1     -13.001  13.008  17.238  0.00  0.00    +0.020 A 
ATOM     33  C   UNL     1     -12.137  13.840  16.544  0.00  0.00    +0.111 A 
ENDBRANCH  22  24
ENDBRANCH   5  22
ENDBRANCH  16  20
ENDBRANCH  11  16
TORSDOF 9
ENDMDL
MODEL 5
REMARK VINA RESULT:      -6.6     25.685     28.683
REMARK  Name = 38029190
REMARK  14 active torsions:
REMARK  status: ('A' for Active; 'I' for Inactive)
REMARK    1  A    between atoms: N_4  and  C_15
REMARK    2  A    between atoms: N_5  and  C_22
REMARK    3  A    between atoms: N_5  and  C_23
REMARK    4  A    between atoms: N_6  and  C_25
REMARK    5  A    between atoms: C_8  and  C_12
REMARK    6  A    between atoms: C_9  and  C_15
REMARK    7  A    between atoms: C_11  and  C_16
REMARK    8  A    between atoms: C_12  and  C_17
REMARK    9  A    between atoms: C_12  and  C_18
REMARK   10  A    between atoms: C_13  and  C_19
REMARK   11  A    between atoms: C_16  and  C_20
REMARK   12  A    between atoms: C_22  and  C_24
REMARK   13  A    between atoms: C_34  and  C_35
REMARK   14  A    between atoms: C_35  and  C_36
REMARK                            x       y       z     vdW  Elec       q    Type
REMARK                         _______ _______ _______ _____ _____    ______ ____
ROOT
ATOM      8  C   UNL     1     -12.531   8.525  19.821  0.00  0.00    +0.000 C 
ATOM      9  C   UNL     1     -11.709   9.729  20.345  0.00  0.00    +0.032 C 
ATOM     10  C   UNL     1     -11.722   7.734  18.783  0.00  0.00    +0.012 C 
ATOM     11  C   UNL     1     -11.309   8.603  17.580  0.00  0.00    +0.023 C 
ATOM     13  C   UNL     1     -10.731   9.933  18.018  0.00  0.00    -0.073 C 
ATOM     14  C   UNL     1     -10.908  10.414  19.262  0.00  0.00    -0.022 C 
ATOM     19  C   UNL     1      -9.904  10.678  17.008  0.00  0.00    +0.039 C 
ENDROOT
BRANCH   8  12
ATOM     12  C   UNL     1     -12.965   7.595  20.959  0.00  0.00    -0.013 C 
ATOM     17  C   UNL     1     -11.990   6.430  21.096  0.00  0.00    +0.007 C 
ATOM     18  C   UNL     1     -14.384   7.088  20.719  0.00  0.00    +0.007 C 
ENDBRANCH   8  12
BRANCH   9  15
ATOM     15  C   UNL     1     -12.611  10.755  21.039  0.00  0.00    +0.113 C 
BRANCH  15   4
ATOM      2  O   UNL     1     -13.365   9.984  23.693  0.00  0.00    -0.253 OA
ATOM      4  N   UNL     1     -12.020  11.206  22.260  0.00  0.00    -0.299 N 
ATOM      6  N   UNL     1     -11.684  11.388  24.538  0.00  0.00    -0.269 N 
ATOM     21  C   UNL     1     -12.445  10.782  23.534  0.00  0.00    +0.304 C 
ATOM     37  H   UNL     1     -11.208  11.813  22.210  0.00  0.00    +0.150 HD
ATOM     38  H   UNL     1     -10.956  12.031  24.233  0.00  0.00    +0.156 HD
BRANCH   6  25
ATOM     25  C   UNL     1     -11.802  11.221  25.937  0.00  0.00    +0.035 A 
ATOM     28  C   UNL     1     -11.080  10.217  26.583  0.00  0.00    +0.024 A 
ATOM     29  C   UNL     1     -12.642  12.059  26.671  0.00  0.00    +0.024 A 
ATOM     31  C   UNL     1     -11.198  10.052  27.963  0.00  0.00    +0.013 A 
ATOM     32  C   UNL     1     -12.760  11.893  28.051  0.00  0.00    +0.013 A 
ATOM     34  C   UNL     1     -12.038  10.890  28.697  0.00  0.00    +0.017 A 
BRANCH  34  35
ATOM      3  O   UNL     1     -12.752  11.555  30.845  0.00  0.00    -0.292 OA
ATOM     35  C   UNL     1     -12.160  10.716  30.135  0.00  0.00    +0.160 C 
ATOM     36  C   UNL     1     -11.559   9.490  30.816  0.00  0.00    +0.091 C 
ENDBRANCH  34  35
ENDBRANCH   6  25
ENDBRANCH  15   4
ENDBRANCH   9  15
BRANCH  11  16
ATOM     16  C   UNL     1     -12.484   8.806  16.617  0.00  0.00    +0.103 C 
BRANCH  16  20
ATOM      1  O   UNL     1     -10.963   8.153  14.884  0.00  0.00    -0.276 OA
ATOM      5  N   UNL     1     -13.152   8.582  14.249  0.00  0.00    -0.300 N 
ATOM     20  C   UNL     1     -12.114   8.482  15.182  0.00  0.00    +0.216 C 
ATOM     23  C   UNL     1     -12.960   8.303  12.832  0.00  0.00    +0.132 C 
BRANCH   5  22
ATOM     22  C   UNL     1     -14.509   8.973  14.626  0.00  0.00    +0.144 C 
BRANCH  22  24
ATOM      7  N   UNL     1     -16.217   5.612  14.329  0.00  0.00    -0.263 NA
ATOM     24  C   UNL     1     -15.364   7.785  14.959  0.00  0.00    -0.012 A 
ATOM     26  C   UNL     1     -16.081   7.728  16.149  0.00  0.00    +0.008 A 
ATOM     27  C   UNL     1     -15.464   6.710  14.090  0.00  0.00    +0.115 A 
ATOM     30  C   UNL     1     -16.866   6.615  16.430  0.00  0.00    +0.020 A 
ATOM     33  C   UNL     1     -16.899   5.593  15.495  0.00  0.00    +0.111 A 
ENDBRANCH  22  24
ENDBRANCH   5  22
ENDBRANCH  16  20
ENDBRANCH  11  16
TORSDOF 9
ENDMDL
MODEL 6
REMARK VINA RESULT:      -6.5     15.292     18.629
REMARK  Name = 38029190
REMARK  14 active torsions:
REMARK  status: ('A' for Active; 'I' for Inactive)
REMARK    1  A    between atoms: N_4  and  C_15
REMARK    2  A    between atoms: N_5  and  C_22
REMARK    3  A    between atoms: N_5  and  C_23
REMARK    4  A    between atoms: N_6  and  C_25
REMARK    5  A    between atoms: C_8  and  C_12
REMARK    6  A    between atoms: C_9  and  C_15
REMARK    7  A    between atoms: C_11  and  C_16
REMARK    8  A    between atoms: C_12  and  C_17
REMARK    9  A    between atoms: C_12  and  C_18
REMARK   10  A    between atoms: C_13  and  C_19
REMARK   11  A    between atoms: C_16  and  C_20
REMARK   12  A    between atoms: C_22  and  C_24
REMARK   13  A    between atoms: C_34  and  C_35
REMARK   14  A    between atoms: C_35  and  C_36
REMARK                            x       y       z     vdW  Elec       q    Type
REMARK                         _______ _______ _______ _____ _____    ______ ____
ROOT
ATOM      8  C   UNL     1      15.394   9.810   5.329  0.00  0.00    +0.000 C 
ATOM      9  C   UNL     1      15.966   8.393   5.585  0.00  0.00    +0.032 C 
ATOM     10  C   UNL     1      14.421  10.206   6.450  0.00  0.00    +0.012 C 
ATOM     11  C   UNL     1      13.244   9.221   6.574  0.00  0.00    +0.023 C 
ATOM     13  C   UNL     1      13.712   7.780   6.563  0.00  0.00    -0.073 C 
ATOM     14  C   UNL     1      14.937   7.430   6.130  0.00  0.00    -0.022 C 
ATOM     19  C   UNL     1      12.756   6.753   7.104  0.00  0.00    +0.039 C 
ENDROOT
BRANCH   8  12
ATOM     12  C   UNL     1      16.506  10.859   5.212  0.00  0.00    -0.013 C 
ATOM     17  C   UNL     1      17.186  11.065   6.562  0.00  0.00    +0.007 C 
ATOM     18  C   UNL     1      15.942  12.174   4.683  0.00  0.00    +0.007 C 
ENDBRANCH   8  12
BRANCH   9  15
ATOM     15  C   UNL     1      16.587   7.809   4.311  0.00  0.00    +0.113 C 
BRANCH  15   4
ATOM      2  O   UNL     1      15.088   7.423   1.901  0.00  0.00    -0.253 OA
ATOM      4  N   UNL     1      15.902   6.619   3.912  0.00  0.00    -0.299 N 
ATOM      6  N   UNL     1      14.622   5.227   2.588  0.00  0.00    -0.269 N 
ATOM     21  C   UNL     1      15.183   6.502   2.709  0.00  0.00    +0.304 C 
ATOM     37  H   UNL     1      15.992   5.791   4.493  0.00  0.00    +0.150 HD
ATOM     38  H   UNL     1      14.794   4.579   3.352  0.00  0.00    +0.156 HD
BRANCH   6  25
ATOM     25  C   UNL     1      13.833   4.723   1.528  0.00  0.00    +0.035 A 
ATOM     28  C   UNL     1      14.446   4.193   0.392  0.00  0.00    +0.024 A 
ATOM     29  C   UNL     1      12.440   4.755   1.618  0.00  0.00    +0.024 A 
ATOM     31  C   UNL     1      13.667   3.697  -0.653  0.00  0.00    +0.013 A 
ATOM     32  C   UNL     1      11.662   4.259   0.572  0.00  0.00    +0.013 A 
ATOM     34  C   UNL     1      12.275   3.729  -0.563  0.00  0.00    +0.017 A 
BRANCH  34  35
ATOM      3  O   UNL     1      10.388   3.752  -1.978  0.00  0.00    -0.292 OA
ATOM     35  C   UNL     1      11.465   3.212  -1.654  0.00  0.00    +0.160 C 
ATOM     36  C   UNL     1      11.920   1.983  -2.433  0.00  0.00    +0.091 C 
ENDBRANCH  34  35
ENDBRANCH   6  25
ENDBRANCH  15   4
ENDBRANCH   9  15
BRANCH  11  16
ATOM     16  C   UNL     1      12.200   9.467   5.480  0.00  0.00    +0.103 C 
BRANCH  16  20
ATOM      1  O   UNL     1      10.936  10.873   6.954  0.00  0.00    -0.276 OA
ATOM      5  N   UNL     1       9.732   9.600   5.435  0.00  0.00    -0.300 N 
ATOM     20  C   UNL     1      10.914  10.052   6.034  0.00  0.00    +0.216 C 
ATOM     23  C   UNL     1       8.416  10.065   5.852  0.00  0.00    +0.132 C 
BRANCH   5  22
ATOM     22  C   UNL     1       9.731   8.627   4.345  0.00  0.00    +0.144 C 
BRANCH  22  24
ATOM      7  N   UNL     1       9.247   5.663   6.643  0.00  0.00    -0.263 NA
ATOM     24  C   UNL     1       9.731   7.214   4.853  0.00  0.00    -0.012 A 
ATOM     26  C   UNL     1      10.195   6.168   4.063  0.00  0.00    +0.008 A 
ATOM     27  C   UNL     1       9.271   6.911   6.125  0.00  0.00    +0.115 A 
ATOM     30  C   UNL     1      10.185   4.870   4.561  0.00  0.00    +0.020 A 
ATOM     33  C   UNL     1       9.705   4.672   5.846  0.00  0.00    +0.111 A 
ENDBRANCH  22  24
ENDBRANCH   5  22
ENDBRANCH  16  20
ENDBRANCH  11  16
TORSDOF 9
ENDMDL
MODEL 7
REMARK VINA RESULT:      -6.4     14.689     17.140
REMARK  Name = 38029190
REMARK  14 active torsions:
REMARK  status: ('A' for Active; 'I' for Inactive)
REMARK    1  A    between atoms: N_4  and  C_15
REMARK    2  A    between atoms: N_5  and  C_22
REMARK    3  A    between atoms: N_5  and  C_23
REMARK    4  A    between atoms: N_6  and  C_25
REMARK    5  A    between atoms: C_8  and  C_12
REMARK    6  A    between atoms: C_9  and  C_15
REMARK    7  A    between atoms: C_11  and  C_16
REMARK    8  A    between atoms: C_12  and  C_17
REMARK    9  A    between atoms: C_12  and  C_18
REMARK   10  A    between atoms: C_13  and  C_19
REMARK   11  A    between atoms: C_16  and  C_20
REMARK   12  A    between atoms: C_22  and  C_24
REMARK   13  A    between atoms: C_34  and  C_35
REMARK   14  A    between atoms: C_35  and  C_36
REMARK                            x       y       z     vdW  Elec       q    Type
REMARK                         _______ _______ _______ _____ _____    ______ ____
ROOT
ATOM      8  C   UNL     1       9.634   6.688   6.575  0.00  0.00    +0.000 C 
ATOM      9  C   UNL     1       8.685   5.996   5.564  0.00  0.00    +0.032 C 
ATOM     10  C   UNL     1       9.078   8.061   6.982  0.00  0.00    +0.012 C 
ATOM     11  C   UNL     1       8.889   8.994   5.772  0.00  0.00    +0.023 C 
ATOM     13  C   UNL     1       8.191   8.295   4.623  0.00  0.00    -0.073 C 
ATOM     14  C   UNL     1       8.097   6.955   4.554  0.00  0.00    -0.022 C 
ATOM     19  C   UNL     1       7.562   9.172   3.578  0.00  0.00    +0.039 C 
ENDROOT
BRANCH   8  12
ATOM     12  C   UNL     1       9.859   5.828   7.823  0.00  0.00    -0.013 C 
ATOM     17  C   UNL     1       8.928   6.269   8.948  0.00  0.00    +0.007 C 
ATOM     18  C   UNL     1      11.318   5.905   8.266  0.00  0.00    +0.007 C 
ENDBRANCH   8  12
BRANCH   9  15
ATOM     15  C   UNL     1       9.394   4.853   4.831  0.00  0.00    +0.113 C 
BRANCH  15   4
ATOM      2  O   UNL     1      10.668   3.993   2.414  0.00  0.00    -0.253 OA
ATOM      4  N   UNL     1      10.666   5.280   4.337  0.00  0.00    -0.299 N 
ATOM      6  N   UNL     1      12.477   5.404   2.910  0.00  0.00    -0.269 N 
ATOM     21  C   UNL     1      11.232   4.812   3.136  0.00  0.00    +0.304 C 
ATOM     37  H   UNL     1      11.162   6.008   4.841  0.00  0.00    +0.150 HD
ATOM     38  H   UNL     1      12.802   6.064   3.612  0.00  0.00    +0.156 HD
BRANCH   6  25
ATOM     25  C   UNL     1      13.353   5.195   1.819  0.00  0.00    +0.035 A 
ATOM     28  C   UNL     1      14.078   4.007   1.724  0.00  0.00    +0.024 A 
ATOM     29  C   UNL     1      13.492   6.178   0.838  0.00  0.00    +0.024 A 
ATOM     31  C   UNL     1      14.942   3.802   0.649  0.00  0.00    +0.013 A 
ATOM     32  C   UNL     1      14.357   5.973  -0.237  0.00  0.00    +0.013 A 
ATOM     34  C   UNL     1      15.082   4.784  -0.332  0.00  0.00    +0.017 A 
BRANCH  34  35
ATOM      3  O   UNL     1      17.131   4.109  -1.285  0.00  0.00    -0.292 OA
ATOM     35  C   UNL     1      15.983   4.569  -1.452  0.00  0.00    +0.160 C 
ATOM     36  C   UNL     1      15.539   4.906  -2.872  0.00  0.00    +0.091 C 
ENDBRANCH  34  35
ENDBRANCH   6  25
ENDBRANCH  15   4
ENDBRANCH   9  15
BRANCH  11  16
ATOM     16  C   UNL     1      10.226   9.590   5.320  0.00  0.00    +0.103 C 
BRANCH  16  20
ATOM      1  O   UNL     1       9.713  11.758   4.438  0.00  0.00    -0.276 OA
ATOM      5  N   UNL     1      10.822  11.693   6.473  0.00  0.00    -0.300 N 
ATOM     20  C   UNL     1      10.222  11.107   5.353  0.00  0.00    +0.216 C 
ATOM     23  C   UNL     1      10.898  13.136   6.655  0.00  0.00    +0.132 C 
BRANCH   5  22
ATOM     22  C   UNL     1      11.418  10.899   7.547  0.00  0.00    +0.144 C 
BRANCH  22  24
ATOM      7  N   UNL     1      11.074  11.965  11.159  0.00  0.00    -0.263 NA
ATOM     24  C   UNL     1      10.800  11.204   8.880  0.00  0.00    -0.012 A 
ATOM     26  C   UNL     1       9.438  11.025   9.097  0.00  0.00    +0.008 A 
ATOM     27  C   UNL     1      11.567  11.673   9.934  0.00  0.00    +0.115 A 
ATOM     30  C   UNL     1       8.893  11.314  10.343  0.00  0.00    +0.020 A 
ATOM     33  C   UNL     1       9.746  11.777  11.332  0.00  0.00    +0.111 A 
ENDBRANCH  22  24
ENDBRANCH   5  22
ENDBRANCH  16  20
ENDBRANCH  11  16
TORSDOF 9
ENDMDL
MODEL 8
REMARK VINA RESULT:      -6.4     26.752     31.004
REMARK  Name = 38029190
REMARK  14 active torsions:
REMARK  status: ('A' for Active; 'I' for Inactive)
REMARK    1  A    between atoms: N_4  and  C_15
REMARK    2  A    between atoms: N_5  and  C_22
REMARK    3  A    between atoms: N_5  and  C_23
REMARK    4  A    between atoms: N_6  and  C_25
REMARK    5  A    between atoms: C_8  and  C_12
REMARK    6  A    between atoms: C_9  and  C_15
REMARK    7  A    between atoms: C_11  and  C_16
REMARK    8  A    between atoms: C_12  and  C_17
REMARK    9  A    between atoms: C_12  and  C_18
REMARK   10  A    between atoms: C_13  and  C_19
REMARK   11  A    between atoms: C_16  and  C_20
REMARK   12  A    between atoms: C_22  and  C_24
REMARK   13  A    between atoms: C_34  and  C_35
REMARK   14  A    between atoms: C_35  and  C_36
REMARK                            x       y       z     vdW  Elec       q    Type
REMARK                         _______ _______ _______ _____ _____    ______ ____
ROOT
ATOM      8  C   UNL     1      -5.068 -12.329  16.008  0.00  0.00    +0.000 C 
ATOM      9  C   UNL     1      -4.266 -11.781  17.216  0.00  0.00    +0.032 C 
ATOM     10  C   UNL     1      -4.117 -12.768  14.886  0.00  0.00    +0.012 C 
ATOM     11  C   UNL     1      -3.224 -11.613  14.395  0.00  0.00    +0.023 C 
ATOM     13  C   UNL     1      -2.603 -10.851  15.548  0.00  0.00    -0.073 C 
ATOM     14  C   UNL     1      -3.074 -10.949  16.804  0.00  0.00    -0.022 C 
ATOM     19  C   UNL     1      -1.400 -10.008  15.232  0.00  0.00    +0.039 C 
ENDROOT
BRANCH   8  12
ATOM     12  C   UNL     1      -5.972 -13.499  16.411  0.00  0.00    -0.013 C 
ATOM     17  C   UNL     1      -5.223 -14.821  16.274  0.00  0.00    +0.007 C 
ATOM     18  C   UNL     1      -7.242 -13.506  15.563  0.00  0.00    +0.007 C 
ENDBRANCH   8  12
BRANCH   9  15
ATOM     15  C   UNL     1      -5.163 -10.962  18.151  0.00  0.00    +0.113 C 
BRANCH  15   4
ATOM      2  O   UNL     1      -8.014 -10.827  17.911  0.00  0.00    -0.253 OA
ATOM      4  N   UNL     1      -5.913  -9.994  17.414  0.00  0.00    -0.299 N 
ATOM      6  N   UNL     1      -7.771  -8.928  16.553  0.00  0.00    -0.269 N 
ATOM     21  C   UNL     1      -7.318  -9.990  17.341  0.00  0.00    +0.304 C 
ATOM     37  H   UNL     1      -5.413  -9.228  16.973  0.00  0.00    +0.150 HD
ATOM     38  H   UNL     1      -7.059  -8.324  16.149  0.00  0.00    +0.156 HD
BRANCH   6  25
ATOM     25  C   UNL     1      -9.108  -8.587  16.240  0.00  0.00    +0.035 A 
ATOM     28  C   UNL     1      -9.880  -7.878  17.160  0.00  0.00    +0.024 A 
ATOM     29  C   UNL     1      -9.654  -8.961  15.012  0.00  0.00    +0.024 A 
ATOM     31  C   UNL     1     -11.198  -7.542  16.852  0.00  0.00    +0.013 A 
ATOM     32  C   UNL     1     -10.973  -8.626  14.704  0.00  0.00    +0.013 A 
ATOM     34  C   UNL     1     -11.745  -7.916  15.624  0.00  0.00    +0.017 A 
BRANCH  34  35
ATOM      3  O   UNL     1     -13.423  -7.057  14.206  0.00  0.00    -0.292 OA
ATOM     35  C   UNL     1     -13.119  -7.567  15.304  0.00  0.00    +0.160 C 
ATOM     36  C   UNL     1     -14.232  -7.818  16.317  0.00  0.00    +0.091 C 
ENDBRANCH  34  35
ENDBRANCH   6  25
ENDBRANCH  15   4
ENDBRANCH   9  15
BRANCH  11  16
ATOM     16  C   UNL     1      -3.999 -10.672  13.468  0.00  0.00    +0.103 C 
BRANCH  16  20
ATOM      1  O   UNL     1      -2.177 -10.944  11.936  0.00  0.00    -0.276 OA
ATOM      5  N   UNL     1      -3.959  -9.645  11.221  0.00  0.00    -0.300 N 
ATOM     20  C   UNL     1      -3.284 -10.444  12.149  0.00  0.00    +0.216 C 
ATOM     23  C   UNL     1      -3.407  -9.333   9.909  0.00  0.00    +0.132 C 
BRANCH   5  22
ATOM     22  C   UNL     1      -5.271  -9.063  11.497  0.00  0.00    +0.144 C 
BRANCH  22  24
ATOM      7  N   UNL     1      -7.650 -11.391   9.701  0.00  0.00    -0.263 NA
ATOM     24  C   UNL     1      -6.317  -9.556  10.539  0.00  0.00    -0.012 A 
ATOM     26  C   UNL     1      -6.916  -8.696   9.625  0.00  0.00    +0.008 A 
ATOM     27  C   UNL     1      -6.717 -10.883  10.537  0.00  0.00    +0.115 A 
ATOM     30  C   UNL     1      -7.880  -9.181   8.749  0.00  0.00    +0.020 A 
ATOM     33  C   UNL     1      -8.209 -10.525   8.827  0.00  0.00    +0.111 A 
ENDBRANCH  22  24
ENDBRANCH   5  22
ENDBRANCH  16  20
ENDBRANCH  11  16
TORSDOF 9
ENDMDL
MODEL 9
REMARK VINA RESULT:      -6.4     27.080     30.541
REMARK  Name = 38029190
REMARK  14 active torsions:
REMARK  status: ('A' for Active; 'I' for Inactive)
REMARK    1  A    between atoms: N_4  and  C_15
REMARK    2  A    between atoms: N_5  and  C_22
REMARK    3  A    between atoms: N_5  and  C_23
REMARK    4  A    between atoms: N_6  and  C_25
REMARK    5  A    between atoms: C_8  and  C_12
REMARK    6  A    between atoms: C_9  and  C_15
REMARK    7  A    between atoms: C_11  and  C_16
REMARK    8  A    between atoms: C_12  and  C_17
REMARK    9  A    between atoms: C_12  and  C_18
REMARK   10  A    between atoms: C_13  and  C_19
REMARK   11  A    between atoms: C_16  and  C_20
REMARK   12  A    between atoms: C_22  and  C_24
REMARK   13  A    between atoms: C_34  and  C_35
REMARK   14  A    between atoms: C_35  and  C_36
REMARK                            x       y       z     vdW  Elec       q    Type
REMARK                         _______ _______ _______ _____ _____    ______ ____
ROOT
ATOM      8  C   UNL     1      -4.135 -10.632  11.136  0.00  0.00    +0.000 C 
ATOM      9  C   UNL     1      -5.277 -11.176  10.242  0.00  0.00    +0.032 C 
ATOM     10  C   UNL     1      -2.964 -11.625  11.177  0.00  0.00    +0.012 C 
ATOM     11  C   UNL     1      -3.390 -13.004  11.714  0.00  0.00    +0.023 C 
ATOM     13  C   UNL     1      -4.669 -13.492  11.065  0.00  0.00    -0.073 C 
ATOM     14  C   UNL     1      -5.493 -12.663  10.399  0.00  0.00    -0.022 C 
ATOM     19  C   UNL     1      -4.957 -14.964  11.159  0.00  0.00    +0.039 C 
ENDROOT
BRANCH   8  12
ATOM     12  C   UNL     1      -3.639  -9.264  10.655  0.00  0.00    -0.013 C 
ATOM     17  C   UNL     1      -4.073  -9.018   9.213  0.00  0.00    +0.007 C 
ATOM     18  C   UNL     1      -2.121  -9.172  10.786  0.00  0.00    +0.007 C 
ENDBRANCH   8  12
BRANCH   9  15
ATOM     15  C   UNL     1      -6.592 -10.437  10.512  0.00  0.00    +0.113 C 
BRANCH  15   4
ATOM      2  O   UNL     1      -6.807  -9.545  13.225  0.00  0.00    -0.253 OA
ATOM      4  N   UNL     1      -7.323 -11.071  11.564  0.00  0.00    -0.299 N 
ATOM      6  N   UNL     1      -8.170 -11.399  13.687  0.00  0.00    -0.269 N 
ATOM     21  C   UNL     1      -7.384 -10.573  12.879  0.00  0.00    +0.304 C 
ATOM     37  H   UNL     1      -7.884 -11.887  11.341  0.00  0.00    +0.150 HD
ATOM     38  H   UNL     1      -8.576 -12.219  13.242  0.00  0.00    +0.156 HD
BRANCH   6  25
ATOM     25  C   UNL     1      -8.471 -11.240  15.060  0.00  0.00    +0.035 A 
ATOM     28  C   UNL     1      -9.196 -10.128  15.490  0.00  0.00    +0.024 A 
ATOM     29  C   UNL     1      -8.042 -12.193  15.984  0.00  0.00    +0.024 A 
ATOM     31  C   UNL     1      -9.492  -9.971  16.844  0.00  0.00    +0.013 A 
ATOM     32  C   UNL     1      -8.338 -12.035  17.338  0.00  0.00    +0.013 A 
ATOM     34  C   UNL     1      -9.063 -10.924  17.768  0.00  0.00    +0.017 A 
BRANCH  34  35
ATOM      3  O   UNL     1      -8.574 -11.120  20.067  0.00  0.00    -0.292 OA
ATOM     35  C   UNL     1      -9.372 -10.758  19.179  0.00  0.00    +0.160 C 
ATOM     36  C   UNL     1     -10.694 -10.130  19.608  0.00  0.00    +0.091 C 
ENDBRANCH  34  35
ENDBRANCH   6  25
ENDBRANCH  15   4
ENDBRANCH   9  15
BRANCH  11  16
ATOM     16  C   UNL     1      -3.521 -12.985  13.241  0.00  0.00    +0.103 C 
BRANCH  16  20
ATOM      1  O   UNL     1      -1.173 -12.774  13.670  0.00  0.00    -0.276 OA
ATOM      5  N   UNL     1      -2.579 -11.324  14.810  0.00  0.00    -0.300 N 
ATOM     20  C   UNL     1      -2.311 -12.366  13.915  0.00  0.00    +0.216 C 
ATOM     23  C   UNL     1      -1.527 -10.626  15.537  0.00  0.00    +0.132 C 
BRANCH   5  22
ATOM     22  C   UNL     1      -3.938 -10.858  15.083  0.00  0.00    +0.144 C 
BRANCH  22  24
ATOM      7  N   UNL     1      -5.247 -10.583  18.621  0.00  0.00    -0.263 NA
ATOM     24  C   UNL     1      -4.401 -11.250  16.456  0.00  0.00    -0.012 A 
ATOM     26  C   UNL     1      -4.421 -12.583  16.852  0.00  0.00    +0.008 A 
ATOM     27  C   UNL     1      -4.820 -10.297  17.370  0.00  0.00    +0.115 A 
ATOM     30  C   UNL     1      -4.854 -12.918  18.130  0.00  0.00    +0.020 A 
ATOM     33  C   UNL     1      -5.253 -11.889  18.969  0.00  0.00    +0.111 A 
ENDBRANCH  22  24
ENDBRANCH   5  22
ENDBRANCH  16  20
ENDBRANCH  11  16
TORSDOF 9
ENDMDL
MODEL 10
REMARK VINA RESULT:      -6.4     26.436     29.217
REMARK  Name = 38029190
REMARK  14 active torsions:
REMARK  status: ('A' for Active; 'I' for Inactive)
REMARK    1  A    between atoms: N_4  and  C_15
REMARK    2  A    between atoms: N_5  and  C_22
REMARK    3  A    between atoms: N_5  and  C_23
REMARK    4  A    between atoms: N_6  and  C_25
REMARK    5  A    between atoms: C_8  and  C_12
REMARK    6  A    between atoms: C_9  and  C_15
REMARK    7  A    between atoms: C_11  and  C_16
REMARK    8  A    between atoms: C_12  and  C_17
REMARK    9  A    between atoms: C_12  and  C_18
REMARK   10  A    between atoms: C_13  and  C_19
REMARK   11  A    between atoms: C_16  and  C_20
REMARK   12  A    between atoms: C_22  and  C_24
REMARK   13  A    between atoms: C_34  and  C_35
REMARK   14  A    between atoms: C_35  and  C_36
REMARK                            x       y       z     vdW  Elec       q    Type
REMARK                         _______ _______ _______ _____ _____    ______ ____
ROOT
ATOM      8  C   UNL     1      17.299 -14.119   1.068  0.00  0.00    +0.000 C 
ATOM      9  C   UNL     1      16.105 -13.171   0.791  0.00  0.00    +0.032 C 
ATOM     10  C   UNL     1      16.944 -15.119   2.178  0.00  0.00    +0.012 C 
ATOM     11  C   UNL     1      16.563 -14.417   3.495  0.00  0.00    +0.023 C 
ATOM     13  C   UNL     1      15.584 -13.284   3.267  0.00  0.00    -0.073 C 
ATOM     14  C   UNL     1      15.381 -12.749   2.049  0.00  0.00    -0.022 C 
ATOM     19  C   UNL     1      14.806 -12.810   4.462  0.00  0.00    +0.039 C 
ENDROOT
BRANCH   8  12
ATOM     12  C   UNL     1      17.728 -14.875  -0.194  0.00  0.00    -0.013 C 
ATOM     17  C   UNL     1      16.511 -15.448  -0.911  0.00  0.00    +0.007 C 
ATOM     18  C   UNL     1      18.719 -15.980   0.160  0.00  0.00    +0.007 C 
ENDBRANCH   8  12
BRANCH   9  15
ATOM     15  C   UNL     1      16.554 -11.926   0.018  0.00  0.00    +0.113 C 
BRANCH  15   4
ATOM      2  O   UNL     1      19.285 -11.083   0.210  0.00  0.00    -0.253 OA
ATOM      4  N   UNL     1      17.083 -10.940   0.908  0.00  0.00    -0.299 N 
ATOM      6  N   UNL     1      18.664  -9.590   1.912  0.00  0.00    -0.269 N 
ATOM     21  C   UNL     1      18.442 -10.576   0.947  0.00  0.00    +0.304 C 
ATOM     37  H   UNL     1      16.438 -10.425   1.499  0.00  0.00    +0.150 HD
ATOM     38  H   UNL     1      17.853  -9.279   2.442  0.00  0.00    +0.156 HD
BRANCH   6  25
ATOM     25  C   UNL     1      19.888  -8.967   2.252  0.00  0.00    +0.035 A 
ATOM     28  C   UNL     1      20.753  -9.577   3.161  0.00  0.00    +0.024 A 
ATOM     29  C   UNL     1      20.230  -7.742   1.678  0.00  0.00    +0.024 A 
ATOM     31  C   UNL     1      21.959  -8.963   3.496  0.00  0.00    +0.013 A 
ATOM     32  C   UNL     1      21.436  -7.127   2.015  0.00  0.00    +0.013 A 
ATOM     34  C   UNL     1      22.301  -7.738   2.923  0.00  0.00    +0.017 A 
BRANCH  34  35
ATOM      3  O   UNL     1      23.704  -5.862   3.196  0.00  0.00    -0.292 OA
ATOM     35  C   UNL     1      23.559  -7.098   3.274  0.00  0.00    +0.160 C 
ATOM     36  C   UNL     1      24.741  -7.936   3.750  0.00  0.00    +0.091 C 
ENDBRANCH  34  35
ENDBRANCH   6  25
ENDBRANCH  15   4
ENDBRANCH   9  15
BRANCH  11  16
ATOM     16  C   UNL     1      17.809 -13.924   4.237  0.00  0.00    +0.103 C 
BRANCH  16  20
ATOM      1  O   UNL     1      18.163 -15.998   5.384  0.00  0.00    -0.276 OA
ATOM      5  N   UNL     1      20.030 -14.987   4.451  0.00  0.00    -0.300 N 
ATOM     20  C   UNL     1      18.665 -15.068   4.749  0.00  0.00    +0.216 C 
ATOM     23  C   UNL     1      20.984 -16.006   4.870  0.00  0.00    +0.132 C 
BRANCH   5  22
ATOM     22  C   UNL     1      20.602 -13.874   3.696  0.00  0.00    +0.144 C 
BRANCH  22  24
ATOM      7  N   UNL     1      23.623 -11.952   4.912  0.00  0.00    -0.263 NA
ATOM     24  C   UNL     1      21.476 -13.005   4.552  0.00  0.00    -0.012 A 
ATOM     26  C   UNL     1      21.002 -12.458   5.739  0.00  0.00    +0.008 A 
ATOM     27  C   UNL     1      22.783 -12.724   4.186  0.00  0.00    +0.115 A 
ATOM     30  C   UNL     1      21.835 -11.658   6.513  0.00  0.00    +0.020 A 
ATOM     33  C   UNL     1      23.126 -11.438   6.059  0.00  0.00    +0.111 A 
ENDBRANCH  22  24
ENDBRANCH   5  22
ENDBRANCH  16  20
ENDBRANCH  11  16
TORSDOF 9
ENDMDL
