MODEL 1
REMARK VINA RESULT:      -6.3      0.000      0.000
REMARK  Name = 75536565
REMARK  7 active torsions:
REMARK  status: ('A' for Active; 'I' for Inactive)
REMARK    1  A    between atoms: O_2  and  C_8
REMARK    2  A    between atoms: N_4  and  C_16
REMARK    3  A    between atoms: N_5  and  C_10
REMARK    4  A    between atoms: N_5  and  C_18
REMARK    5  A    between atoms: C_7  and  C_16
REMARK    6  A    between atoms: C_9  and  C_17
REMARK    7  A    between atoms: C_18  and  C_19
REMARK                            x       y       z     vdW  Elec       q    Type
REMARK                         _______ _______ _______ _____ _____    ______ ____
ROOT
ATOM      1  O   UNL     1      10.601   8.395  19.963  0.00  0.00    -0.371 OA
ATOM      7  C   UNL     1      11.116   7.836  21.184  0.00  0.00    +0.165 C 
ATOM      8  C   UNL     1      12.633   7.930  21.082  0.00  0.00    +0.164 C 
ATOM     10  C   UNL     1      12.841   7.695  19.598  0.00  0.00    +0.111 C 
ATOM     15  C   UNL     1      11.671   8.462  19.005  0.00  0.00    +0.181 C 
ENDROOT
BRANCH   8   2
ATOM      2  O   UNL     1      13.276   6.958  21.884  0.00  0.00    -0.388 OA
ATOM     26  H   UNL     1      14.071   7.361  22.272  0.00  0.00    +0.210 HD
ENDBRANCH   8   2
BRANCH  10   5
ATOM      5  N   UNL     1      14.129   8.161  19.109  0.00  0.00    -0.305 NA
ATOM     25  H   UNL     1      14.644   8.586  19.880  0.00  0.00    +0.123 HD
BRANCH   5  18
ATOM     18  C   UNL     1      14.915   7.058  18.568  0.00  0.00    +0.118 C 
BRANCH  18  19
ATOM      6  N   UNL     1      18.255   5.623  19.622  0.00  0.00    -0.263 NA
ATOM     19  C   UNL     1      16.186   6.843  19.345  0.00  0.00    -0.015 A 
ATOM     20  C   UNL     1      16.484   7.614  20.462  0.00  0.00    +0.008 A 
ATOM     21  C   UNL     1      17.098   5.868  18.969  0.00  0.00    +0.115 A 
ATOM     22  C   UNL     1      17.666   7.391  21.160  0.00  0.00    +0.020 A 
ATOM     23  C   UNL     1      18.510   6.392  20.703  0.00  0.00    +0.111 A 
ENDBRANCH  18  19
ENDBRANCH   5  18
ENDBRANCH  10   5
BRANCH   7  16
ATOM     16  C   UNL     1      10.547   8.587  22.373  0.00  0.00    +0.138 C 
BRANCH  16   4
ATOM      3  O   UNL     1      10.969  11.433  21.981  0.00  0.00    -0.276 OA
ATOM      4  N   UNL     1      11.542   9.414  22.993  0.00  0.00    -0.313 N 
ATOM     17  C   UNL     1      11.672  10.776  22.745  0.00  0.00    +0.216 C 
ATOM     24  H   UNL     1      12.178   8.970  23.648  0.00  0.00    +0.149 HD
BRANCH  17   9
ATOM      9  C   UNL     1      12.775  11.404  23.540  0.00  0.00    +0.075 C 
ATOM     11  C   UNL     1      12.311  11.665  24.979  0.00  0.00    +0.013 C 
ATOM     12  C   UNL     1      13.152  12.768  22.959  0.00  0.00    +0.013 C 
ATOM     13  C   UNL     1      12.527  13.155  25.223  0.00  0.00    +0.001 C 
ATOM     14  C   UNL     1      12.427  13.775  23.841  0.00  0.00    +0.001 C 
ENDBRANCH  17   9
ENDBRANCH  16   4
ENDBRANCH   7  16
TORSDOF 7
ENDMDL
MODEL 2
REMARK VINA RESULT:      -6.2     25.593     28.847
REMARK  Name = 75536565
REMARK  7 active torsions:
REMARK  status: ('A' for Active; 'I' for Inactive)
REMARK    1  A    between atoms: O_2  and  C_8
REMARK    2  A    between atoms: N_4  and  C_16
REMARK    3  A    between atoms: N_5  and  C_10
REMARK    4  A    between atoms: N_5  and  C_18
REMARK    5  A    between atoms: C_7  and  C_16
REMARK    6  A    between atoms: C_9  and  C_17
REMARK    7  A    between atoms: C_18  and  C_19
REMARK                            x       y       z     vdW  Elec       q    Type
REMARK                         _______ _______ _______ _____ _____    ______ ____
ROOT
ATOM      1  O   UNL     1     -15.959   6.601  23.095  0.00  0.00    -0.371 OA
ATOM      7  C   UNL     1     -14.670   6.404  22.489  0.00  0.00    +0.165 C 
ATOM      8  C   UNL     1     -14.390   4.910  22.573  0.00  0.00    +0.164 C 
ATOM     10  C   UNL     1     -15.038   4.565  23.900  0.00  0.00    +0.111 C 
ATOM     15  C   UNL     1     -16.289   5.426  23.857  0.00  0.00    +0.181 C 
ENDROOT
BRANCH   8   2
ATOM      2  O   UNL     1     -13.003   4.632  22.555  0.00  0.00    -0.388 OA
ATOM     26  H   UNL     1     -12.758   4.360  21.654  0.00  0.00    +0.210 HD
ENDBRANCH   8   2
BRANCH  10   5
ATOM      5  N   UNL     1     -15.331   3.149  24.056  0.00  0.00    -0.305 NA
ATOM     25  H   UNL     1     -14.599   2.717  24.620  0.00  0.00    +0.123 HD
BRANCH   5  18
ATOM     18  C   UNL     1     -16.616   2.948  24.715  0.00  0.00    +0.118 C 
BRANCH  18  19
ATOM      6  N   UNL     1     -16.608   0.705  27.764  0.00  0.00    -0.263 NA
ATOM     19  C   UNL     1     -16.449   2.487  26.138  0.00  0.00    -0.015 A 
ATOM     20  C   UNL     1     -16.001   3.357  27.126  0.00  0.00    +0.008 A 
ATOM     21  C   UNL     1     -16.736   1.182  26.506  0.00  0.00    +0.115 A 
ATOM     22  C   UNL     1     -15.857   2.903  28.433  0.00  0.00    +0.020 A 
ATOM     23  C   UNL     1     -16.171   1.579  28.697  0.00  0.00    +0.111 A 
ENDBRANCH  18  19
ENDBRANCH   5  18
ENDBRANCH  10   5
BRANCH   7  16
ATOM     16  C   UNL     1     -14.685   6.934  21.067  0.00  0.00    +0.138 C 
BRANCH  16   4
ATOM      3  O   UNL     1     -12.821   9.139  21.368  0.00  0.00    -0.276 OA
ATOM      4  N   UNL     1     -13.357   7.031  20.533  0.00  0.00    -0.313 N 
ATOM     17  C   UNL     1     -12.530   8.130  20.729  0.00  0.00    +0.216 C 
ATOM     24  H   UNL     1     -13.014   6.246  19.988  0.00  0.00    +0.149 HD
BRANCH  17   9
ATOM      9  C   UNL     1     -11.187   7.964  20.085  0.00  0.00    +0.075 C 
ATOM     11  C   UNL     1     -10.614   9.330  19.691  0.00  0.00    +0.013 C 
ATOM     12  C   UNL     1     -11.305   7.159  18.790  0.00  0.00    +0.013 C 
ATOM     13  C   UNL     1     -10.322   9.244  18.196  0.00  0.00    +0.001 C 
ATOM     14  C   UNL     1     -11.306   8.206  17.685  0.00  0.00    +0.001 C 
ENDBRANCH  17   9
ENDBRANCH  16   4
ENDBRANCH   7  16
TORSDOF 7
ENDMDL
MODEL 3
REMARK VINA RESULT:      -6.1      1.740      2.076
REMARK  Name = 75536565
REMARK  7 active torsions:
REMARK  status: ('A' for Active; 'I' for Inactive)
REMARK    1  A    between atoms: O_2  and  C_8
REMARK    2  A    between atoms: N_4  and  C_16
REMARK    3  A    between atoms: N_5  and  C_10
REMARK    4  A    between atoms: N_5  and  C_18
REMARK    5  A    between atoms: C_7  and  C_16
REMARK    6  A    between atoms: C_9  and  C_17
REMARK    7  A    between atoms: C_18  and  C_19
REMARK                            x       y       z     vdW  Elec       q    Type
REMARK                         _______ _______ _______ _____ _____    ______ ____
ROOT
ATOM      1  O   UNL     1      13.186   9.531  19.175  0.00  0.00    -0.371 OA
ATOM      7  C   UNL     1      12.178   8.526  19.383  0.00  0.00    +0.165 C 
ATOM      8  C   UNL     1      12.927   7.218  19.599  0.00  0.00    +0.164 C 
ATOM     10  C   UNL     1      14.112   7.403  18.671  0.00  0.00    +0.111 C 
ATOM     15  C   UNL     1      14.430   8.874  18.878  0.00  0.00    +0.181 C 
ENDROOT
BRANCH   8   2
ATOM      2  O   UNL     1      12.136   6.095  19.258  0.00  0.00    -0.388 OA
ATOM     26  H   UNL     1      12.731   5.356  19.048  0.00  0.00    +0.210 HD
ENDBRANCH   8   2
BRANCH  10   5
ATOM      5  N   UNL     1      15.236   6.532  18.978  0.00  0.00    -0.305 NA
ATOM     25  H   UNL     1      16.063   6.869  18.485  0.00  0.00    +0.123 HD
BRANCH   5  18
ATOM     18  C   UNL     1      15.513   6.519  20.410  0.00  0.00    +0.118 C 
BRANCH  18  19
ATOM      6  N   UNL     1      19.296   6.503  20.555  0.00  0.00    -0.263 NA
ATOM     19  C   UNL     1      16.924   6.948  20.710  0.00  0.00    -0.015 A 
ATOM     20  C   UNL     1      17.185   8.131  21.392  0.00  0.00    +0.008 A 
ATOM     21  C   UNL     1      18.006   6.176  20.317  0.00  0.00    +0.115 A 
ATOM     22  C   UNL     1      18.499   8.502  21.656  0.00  0.00    +0.020 A 
ATOM     23  C   UNL     1      19.509   7.660  21.220  0.00  0.00    +0.111 A 
ENDBRANCH  18  19
ENDBRANCH   5  18
ENDBRANCH  10   5
BRANCH   7  16
ATOM     16  C   UNL     1      11.299   8.916  20.557  0.00  0.00    +0.138 C 
BRANCH  16   4
ATOM      3  O   UNL     1      10.558  10.067  23.117  0.00  0.00    -0.276 OA
ATOM      4  N   UNL     1      11.653  10.210  21.066  0.00  0.00    -0.313 N 
ATOM     17  C   UNL     1      11.252  10.681  22.311  0.00  0.00    +0.216 C 
ATOM     24  H   UNL     1      12.231  10.802  20.477  0.00  0.00    +0.149 HD
BRANCH  17   9
ATOM      9  C   UNL     1      11.781  12.051  22.606  0.00  0.00    +0.075 C 
ATOM     11  C   UNL     1      11.007  12.679  23.771  0.00  0.00    +0.013 C 
ATOM     12  C   UNL     1      11.577  12.979  21.407  0.00  0.00    +0.013 C 
ATOM     13  C   UNL     1      10.461  14.002  23.244  0.00  0.00    +0.001 C 
ATOM     14  C   UNL     1      10.327  13.778  21.749  0.00  0.00    +0.001 C 
ENDBRANCH  17   9
ENDBRANCH  16   4
ENDBRANCH   7  16
TORSDOF 7
ENDMDL
MODEL 4
REMARK VINA RESULT:      -6.0     26.796     29.801
REMARK  Name = 75536565
REMARK  7 active torsions:
REMARK  status: ('A' for Active; 'I' for Inactive)
REMARK    1  A    between atoms: O_2  and  C_8
REMARK    2  A    between atoms: N_4  and  C_16
REMARK    3  A    between atoms: N_5  and  C_10
REMARK    4  A    between atoms: N_5  and  C_18
REMARK    5  A    between atoms: C_7  and  C_16
REMARK    6  A    between atoms: C_9  and  C_17
REMARK    7  A    between atoms: C_18  and  C_19
REMARK                            x       y       z     vdW  Elec       q    Type
REMARK                         _______ _______ _______ _____ _____    ______ ____
ROOT
ATOM      1  O   UNL     1     -16.728   2.480  23.758  0.00  0.00    -0.371 OA
ATOM      7  C   UNL     1     -16.870   3.899  23.569  0.00  0.00    +0.165 C 
ATOM      8  C   UNL     1     -16.186   4.552  24.763  0.00  0.00    +0.164 C 
ATOM     10  C   UNL     1     -16.504   3.558  25.863  0.00  0.00    +0.111 C 
ATOM     15  C   UNL     1     -16.358   2.237  25.126  0.00  0.00    +0.181 C 
ENDROOT
BRANCH   8   2
ATOM      2  O   UNL     1     -16.703   5.842  25.025  0.00  0.00    -0.388 OA
ATOM     26  H   UNL     1     -17.184   5.812  25.870  0.00  0.00    +0.210 HD
ENDBRANCH   8   2
BRANCH  10   5
ATOM      5  N   UNL     1     -15.625   3.663  27.017  0.00  0.00    -0.305 NA
ATOM     25  H   UNL     1     -15.324   4.632  27.119  0.00  0.00    +0.123 HD
BRANCH   5  18
ATOM     18  C   UNL     1     -16.308   3.249  28.237  0.00  0.00    +0.118 C 
BRANCH  18  19
ATOM      6  N   UNL     1     -15.084  -0.083  29.549  0.00  0.00    -0.263 NA
ATOM     19  C   UNL     1     -15.508   2.235  29.010  0.00  0.00    -0.015 A 
ATOM     20  C   UNL     1     -14.492   2.629  29.871  0.00  0.00    +0.008 A 
ATOM     21  C   UNL     1     -15.763   0.878  28.885  0.00  0.00    +0.115 A 
ATOM     22  C   UNL     1     -13.770   1.669  30.573  0.00  0.00    +0.020 A 
ATOM     23  C   UNL     1     -14.103   0.338  30.378  0.00  0.00    +0.111 A 
ENDBRANCH  18  19
ENDBRANCH   5  18
ENDBRANCH  10   5
BRANCH   7  16
ATOM     16  C   UNL     1     -16.267   4.302  22.236  0.00  0.00    +0.138 C 
BRANCH  16   4
ATOM      3  O   UNL     1     -15.227   6.343  20.451  0.00  0.00    -0.276 OA
ATOM      4  N   UNL     1     -15.089   5.101  22.417  0.00  0.00    -0.313 N 
ATOM     17  C   UNL     1     -14.665   6.061  21.507  0.00  0.00    +0.216 C 
ATOM     24  H   UNL     1     -14.547   4.950  23.264  0.00  0.00    +0.149 HD
BRANCH  17   9
ATOM      9  C   UNL     1     -13.420   6.767  21.951  0.00  0.00    +0.075 C 
ATOM     11  C   UNL     1     -13.479   8.247  21.554  0.00  0.00    +0.013 C 
ATOM     12  C   UNL     1     -12.190   6.185  21.254  0.00  0.00    +0.013 C 
ATOM     13  C   UNL     1     -12.227   8.504  20.720  0.00  0.00    +0.001 C 
ATOM     14  C   UNL     1     -11.901   7.152  20.114  0.00  0.00    +0.001 C 
ENDBRANCH  17   9
ENDBRANCH  16   4
ENDBRANCH   7  16
TORSDOF 7
ENDMDL
MODEL 5
REMARK VINA RESULT:      -6.0     26.510     28.436
REMARK  Name = 75536565
REMARK  7 active torsions:
REMARK  status: ('A' for Active; 'I' for Inactive)
REMARK    1  A    between atoms: O_2  and  C_8
REMARK    2  A    between atoms: N_4  and  C_16
REMARK    3  A    between atoms: N_5  and  C_10
REMARK    4  A    between atoms: N_5  and  C_18
REMARK    5  A    between atoms: C_7  and  C_16
REMARK    6  A    between atoms: C_9  and  C_17
REMARK    7  A    between atoms: C_18  and  C_19
REMARK                            x       y       z     vdW  Elec       q    Type
REMARK                         _______ _______ _______ _____ _____    ______ ____
ROOT
ATOM      1  O   UNL     1      -4.144 -10.451  14.410  0.00  0.00    -0.371 OA
ATOM      7  C   UNL     1      -2.722 -10.393  14.617  0.00  0.00    +0.165 C 
ATOM      8  C   UNL     1      -2.418 -11.391  15.726  0.00  0.00    +0.164 C 
ATOM     10  C   UNL     1      -3.656 -11.253  16.592  0.00  0.00    +0.111 C 
ATOM     15  C   UNL     1      -4.744 -11.108  15.540  0.00  0.00    +0.181 C 
ENDROOT
BRANCH   8   2
ATOM      2  O   UNL     1      -1.228 -11.063  16.418  0.00  0.00    -0.388 OA
ATOM     26  H   UNL     1      -0.581 -10.732  15.773  0.00  0.00    +0.210 HD
ENDBRANCH   8   2
BRANCH  10   5
ATOM      5  N   UNL     1      -3.875 -12.383  17.481  0.00  0.00    -0.305 NA
ATOM     25  H   UNL     1      -3.020 -12.937  17.533  0.00  0.00    +0.123 HD
BRANCH   5  18
ATOM     18  C   UNL     1      -4.229 -11.934  18.823  0.00  0.00    +0.118 C 
BRANCH  18  19
ATOM      6  N   UNL     1      -7.622 -10.720  19.979  0.00  0.00    -0.263 NA
ATOM     19  C   UNL     1      -5.720 -11.857  19.013  0.00  0.00    -0.015 A 
ATOM     20  C   UNL     1      -6.566 -12.797  18.436  0.00  0.00    +0.008 A 
ATOM     21  C   UNL     1      -6.294 -10.846  19.768  0.00  0.00    +0.115 A 
ATOM     22  C   UNL     1      -7.940 -12.701  18.630  0.00  0.00    +0.020 A 
ATOM     23  C   UNL     1      -8.413 -11.653  19.403  0.00  0.00    +0.111 A 
ENDBRANCH  18  19
ENDBRANCH   5  18
ENDBRANCH  10   5
BRANCH   7  16
ATOM     16  C   UNL     1      -2.001 -10.701  13.317  0.00  0.00    +0.138 C 
BRANCH  16   4
ATOM      3  O   UNL     1      -1.718  -9.246  10.820  0.00  0.00    -0.276 OA
ATOM      4  N   UNL     1      -2.907 -10.695  12.205  0.00  0.00    -0.313 N 
ATOM     17  C   UNL     1      -2.690  -9.966  11.042  0.00  0.00    +0.216 C 
ATOM     24  H   UNL     1      -3.747 -11.262  12.282  0.00  0.00    +0.149 HD
BRANCH  17   9
ATOM      9  C   UNL     1      -3.777 -10.156  10.030  0.00  0.00    +0.075 C 
ATOM     11  C   UNL     1      -4.047  -8.843   9.285  0.00  0.00    +0.013 C 
ATOM     12  C   UNL     1      -5.091 -10.538  10.713  0.00  0.00    +0.013 C 
ATOM     13  C   UNL     1      -5.533  -8.554   9.475  0.00  0.00    +0.001 C 
ATOM     14  C   UNL     1      -5.879  -9.238  10.785  0.00  0.00    +0.001 C 
ENDBRANCH  17   9
ENDBRANCH  16   4
ENDBRANCH   7  16
TORSDOF 7
ENDMDL
MODEL 6
REMARK VINA RESULT:      -5.9     26.336     28.609
REMARK  Name = 75536565
REMARK  7 active torsions:
REMARK  status: ('A' for Active; 'I' for Inactive)
REMARK    1  A    between atoms: O_2  and  C_8
REMARK    2  A    between atoms: N_4  and  C_16
REMARK    3  A    between atoms: N_5  and  C_10
REMARK    4  A    between atoms: N_5  and  C_18
REMARK    5  A    between atoms: C_7  and  C_16
REMARK    6  A    between atoms: C_9  and  C_17
REMARK    7  A    between atoms: C_18  and  C_19
REMARK                            x       y       z     vdW  Elec       q    Type
REMARK                         _______ _______ _______ _____ _____    ______ ____
ROOT
ATOM      1  O   UNL     1      -7.641 -12.930  18.676  0.00  0.00    -0.371 OA
ATOM      7  C   UNL     1      -7.850 -11.767  19.496  0.00  0.00    +0.165 C 
ATOM      8  C   UNL     1      -6.707 -10.814  19.173  0.00  0.00    +0.164 C 
ATOM     10  C   UNL     1      -5.572 -11.790  18.930  0.00  0.00    +0.111 C 
ATOM     15  C   UNL     1      -6.289 -12.905  18.186  0.00  0.00    +0.181 C 
ENDROOT
BRANCH   8   2
ATOM      2  O   UNL     1      -6.443  -9.926  20.243  0.00  0.00    -0.388 OA
ATOM     26  H   UNL     1      -6.966  -9.118  20.104  0.00  0.00    +0.210 HD
ENDBRANCH   8   2
BRANCH  10   5
ATOM      5  N   UNL     1      -4.468 -11.224  18.172  0.00  0.00    -0.305 NA
ATOM     25  H   UNL     1      -3.810 -11.967  17.937  0.00  0.00    +0.123 HD
BRANCH   5  18
ATOM     18  C   UNL     1      -4.940 -10.604  16.939  0.00  0.00    +0.118 C 
BRANCH  18  19
ATOM      6  N   UNL     1      -3.323 -10.681  13.518  0.00  0.00    -0.263 NA
ATOM     19  C   UNL     1      -3.881 -10.610  15.869  0.00  0.00    -0.015 A 
ATOM     20  C   UNL     1      -2.531 -10.554  16.195  0.00  0.00    +0.008 A 
ATOM     21  C   UNL     1      -4.222 -10.671  14.526  0.00  0.00    +0.115 A 
ATOM     22  C   UNL     1      -1.576 -10.562  15.184  0.00  0.00    +0.020 A 
ATOM     23  C   UNL     1      -2.020 -10.626  13.873  0.00  0.00    +0.111 A 
ENDBRANCH  18  19
ENDBRANCH   5  18
ENDBRANCH  10   5
BRANCH   7  16
ATOM     16  C   UNL     1      -9.221 -11.179  19.213  0.00  0.00    +0.138 C 
BRANCH  16   4
ATOM      3  O   UNL     1     -11.368  -9.379  18.449  0.00  0.00    -0.276 OA
ATOM      4  N   UNL     1      -9.125 -10.007  18.391  0.00  0.00    -0.313 N 
ATOM     17  C   UNL     1     -10.211  -9.199  18.076  0.00  0.00    +0.216 C 
ATOM     24  H   UNL     1      -8.207  -9.763  18.029  0.00  0.00    +0.149 HD
BRANCH  17   9
ATOM      9  C   UNL     1      -9.830  -8.028  17.223  0.00  0.00    +0.075 C 
ATOM     11  C   UNL     1     -11.069  -7.186  16.893  0.00  0.00    +0.013 C 
ATOM     12  C   UNL     1      -9.262  -8.496  15.883  0.00  0.00    +0.013 C 
ATOM     13  C   UNL     1     -11.125  -7.108  15.371  0.00  0.00    +0.001 C 
ATOM     14  C   UNL     1     -10.424  -8.371  14.907  0.00  0.00    +0.001 C 
ENDBRANCH  17   9
ENDBRANCH  16   4
ENDBRANCH   7  16
TORSDOF 7
ENDMDL
MODEL 7
REMARK VINA RESULT:      -5.9      2.214      6.581
REMARK  Name = 75536565
REMARK  7 active torsions:
REMARK  status: ('A' for Active; 'I' for Inactive)
REMARK    1  A    between atoms: O_2  and  C_8
REMARK    2  A    between atoms: N_4  and  C_16
REMARK    3  A    between atoms: N_5  and  C_10
REMARK    4  A    between atoms: N_5  and  C_18
REMARK    5  A    between atoms: C_7  and  C_16
REMARK    6  A    between atoms: C_9  and  C_17
REMARK    7  A    between atoms: C_18  and  C_19
REMARK                            x       y       z     vdW  Elec       q    Type
REMARK                         _______ _______ _______ _____ _____    ______ ____
ROOT
ATOM      1  O   UNL     1      17.456   8.513  20.547  0.00  0.00    -0.371 OA
ATOM      7  C   UNL     1      16.574   7.678  21.317  0.00  0.00    +0.165 C 
ATOM      8  C   UNL     1      15.435   8.579  21.776  0.00  0.00    +0.164 C 
ATOM     10  C   UNL     1      16.168   9.889  21.994  0.00  0.00    +0.111 C 
ATOM     15  C   UNL     1      17.139   9.888  20.825  0.00  0.00    +0.181 C 
ENDROOT
BRANCH   8   2
ATOM      2  O   UNL     1      14.821   8.095  22.955  0.00  0.00    -0.388 OA
ATOM     26  H   UNL     1      15.500   8.030  23.648  0.00  0.00    +0.210 HD
ENDBRANCH   8   2
BRANCH  10   5
ATOM      5  N   UNL     1      15.295  11.052  22.004  0.00  0.00    -0.305 NA
ATOM     25  H   UNL     1      14.386  10.789  21.625  0.00  0.00    +0.123 HD
BRANCH   5  18
ATOM     18  C   UNL     1      15.113  11.560  23.359  0.00  0.00    +0.118 C 
BRANCH  18  19
ATOM      6  N   UNL     1      12.009  11.902  25.498  0.00  0.00    -0.263 NA
ATOM     19  C   UNL     1      13.671  11.502  23.788  0.00  0.00    -0.015 A 
ATOM     20  C   UNL     1      12.687  11.021  22.934  0.00  0.00    +0.008 A 
ATOM     21  C   UNL     1      13.283  11.927  25.050  0.00  0.00    +0.115 A 
ATOM     22  C   UNL     1      11.363  10.979  23.359  0.00  0.00    +0.020 A 
ATOM     23  C   UNL     1      11.079  11.427  24.639  0.00  0.00    +0.111 A 
ENDBRANCH  18  19
ENDBRANCH   5  18
ENDBRANCH  10   5
BRANCH   7  16
ATOM     16  C   UNL     1      16.109   6.506  20.473  0.00  0.00    +0.138 C 
BRANCH  16   4
ATOM      3  O   UNL     1      14.521   7.754  18.386  0.00  0.00    -0.276 OA
ATOM      4  N   UNL     1      14.680   6.494  20.339  0.00  0.00    -0.313 N 
ATOM     17  C   UNL     1      14.001   7.121  19.302  0.00  0.00    +0.216 C 
ATOM     24  H   UNL     1      14.149   5.993  21.045  0.00  0.00    +0.149 HD
BRANCH  17   9
ATOM      9  C   UNL     1      12.517   6.933  19.387  0.00  0.00    +0.075 C 
ATOM     11  C   UNL     1      11.795   8.250  19.077  0.00  0.00    +0.013 C 
ATOM     12  C   UNL     1      12.102   6.541  20.806  0.00  0.00    +0.013 C 
ATOM     13  C   UNL     1      10.907   8.532  20.285  0.00  0.00    +0.001 C 
ATOM     14  C   UNL     1      11.613   7.838  21.435  0.00  0.00    +0.001 C 
ENDBRANCH  17   9
ENDBRANCH  16   4
ENDBRANCH   7  16
TORSDOF 7
ENDMDL
MODEL 8
REMARK VINA RESULT:      -5.8     27.602     30.017
REMARK  Name = 75536565
REMARK  7 active torsions:
REMARK  status: ('A' for Active; 'I' for Inactive)
REMARK    1  A    between atoms: O_2  and  C_8
REMARK    2  A    between atoms: N_4  and  C_16
REMARK    3  A    between atoms: N_5  and  C_10
REMARK    4  A    between atoms: N_5  and  C_18
REMARK    5  A    between atoms: C_7  and  C_16
REMARK    6  A    between atoms: C_9  and  C_17
REMARK    7  A    between atoms: C_18  and  C_19
REMARK                            x       y       z     vdW  Elec       q    Type
REMARK                         _______ _______ _______ _____ _____    ______ ____
ROOT
ATOM      1  O   UNL     1     -12.266  -9.254  16.158  0.00  0.00    -0.371 OA
ATOM      7  C   UNL     1     -12.294  -7.836  15.922  0.00  0.00    +0.165 C 
ATOM      8  C   UNL     1     -10.905  -7.323  16.278  0.00  0.00    +0.164 C 
ATOM     10  C   UNL     1     -10.545  -8.231  17.438  0.00  0.00    +0.111 C 
ATOM     15  C   UNL     1     -11.117  -9.559  16.969  0.00  0.00    +0.181 C 
ENDROOT
BRANCH   8   2
ATOM      2  O   UNL     1     -10.925  -5.956  16.642  0.00  0.00    -0.388 OA
ATOM     26  H   UNL     1     -11.435  -5.469  15.972  0.00  0.00    +0.210 HD
ENDBRANCH   8   2
BRANCH  10   5
ATOM      5  N   UNL     1      -9.118  -8.294  17.710  0.00  0.00    -0.305 NA
ATOM     25  H   UNL     1      -8.967  -8.808  18.578  0.00  0.00    +0.123 HD
BRANCH   5  18
ATOM     18  C   UNL     1      -8.407  -8.971  16.632  0.00  0.00    +0.118 C 
BRANCH  18  19
ATOM      6  N   UNL     1      -4.818 -10.172  16.691  0.00  0.00    -0.263 NA
ATOM     19  C   UNL     1      -7.130  -9.605  17.114  0.00  0.00    -0.015 A 
ATOM     20  C   UNL     1      -7.052 -10.194  18.371  0.00  0.00    +0.008 A 
ATOM     21  C   UNL     1      -5.994  -9.620  16.320  0.00  0.00    +0.115 A 
ATOM     22  C   UNL     1      -5.859 -10.773  18.789  0.00  0.00    +0.020 A 
ATOM     23  C   UNL     1      -4.781 -10.736  17.919  0.00  0.00    +0.111 A 
ENDBRANCH  18  19
ENDBRANCH   5  18
ENDBRANCH  10   5
BRANCH   7  16
ATOM     16  C   UNL     1     -12.684  -7.563  14.482  0.00  0.00    +0.138 C 
BRANCH  16   4
ATOM      3  O   UNL     1     -12.401  -6.113  11.982  0.00  0.00    -0.276 OA
ATOM      4  N   UNL     1     -12.900  -6.162  14.257  0.00  0.00    -0.313 N 
ATOM     17  C   UNL     1     -12.741  -5.550  13.019  0.00  0.00    +0.216 C 
ATOM     24  H   UNL     1     -13.189  -5.600  15.052  0.00  0.00    +0.149 HD
BRANCH  17   9
ATOM      9  C   UNL     1     -13.054  -4.085  13.056  0.00  0.00    +0.075 C 
ATOM     11  C   UNL     1     -14.571  -3.867  13.106  0.00  0.00    +0.013 C 
ATOM     12  C   UNL     1     -12.564  -3.395  11.783  0.00  0.00    +0.013 C 
ATOM     13  C   UNL     1     -14.902  -2.973  11.915  0.00  0.00    +0.001 C 
ATOM     14  C   UNL     1     -13.805  -3.272  10.910  0.00  0.00    +0.001 C 
ENDBRANCH  17   9
ENDBRANCH  16   4
ENDBRANCH   7  16
TORSDOF 7
ENDMDL
MODEL 9
REMARK VINA RESULT:      -5.8     26.353     28.836
REMARK  Name = 75536565
REMARK  7 active torsions:
REMARK  status: ('A' for Active; 'I' for Inactive)
REMARK    1  A    between atoms: O_2  and  C_8
REMARK    2  A    between atoms: N_4  and  C_16
REMARK    3  A    between atoms: N_5  and  C_10
REMARK    4  A    between atoms: N_5  and  C_18
REMARK    5  A    between atoms: C_7  and  C_16
REMARK    6  A    between atoms: C_9  and  C_17
REMARK    7  A    between atoms: C_18  and  C_19
REMARK                            x       y       z     vdW  Elec       q    Type
REMARK                         _______ _______ _______ _____ _____    ______ ____
ROOT
ATOM      1  O   UNL     1      -5.208 -10.849  18.097  0.00  0.00    -0.371 OA
ATOM      7  C   UNL     1      -5.212 -10.673  16.670  0.00  0.00    +0.165 C 
ATOM      8  C   UNL     1      -6.260  -9.607  16.381  0.00  0.00    +0.164 C 
ATOM     10  C   UNL     1      -7.293  -9.915  17.447  0.00  0.00    +0.111 C 
ATOM     15  C   UNL     1      -6.408 -10.263  18.632  0.00  0.00    +0.181 C 
ENDROOT
BRANCH   8   2
ATOM      2  O   UNL     1      -6.778  -9.719  15.069  0.00  0.00    -0.388 OA
ATOM     26  H   UNL     1      -7.323 -10.523  15.024  0.00  0.00    +0.210 HD
ENDBRANCH   8   2
BRANCH  10   5
ATOM      5  N   UNL     1      -8.197  -8.809  17.721  0.00  0.00    -0.305 NA
ATOM     25  H   UNL     1      -7.983  -8.039  17.087  0.00  0.00    +0.123 HD
BRANCH   5  18
ATOM     18  C   UNL     1      -9.587  -9.206  17.530  0.00  0.00    +0.118 C 
BRANCH  18  19
ATOM      6  N   UNL     1     -11.219  -7.794  14.420  0.00  0.00    -0.263 NA
ATOM     19  C   UNL     1     -10.318  -8.261  16.615  0.00  0.00    -0.015 A 
ATOM     20  C   UNL     1     -10.763  -7.024  17.068  0.00  0.00    +0.008 A 
ATOM     21  C   UNL     1     -10.569  -8.595  15.293  0.00  0.00    +0.115 A 
ATOM     22  C   UNL     1     -11.436  -6.172  16.199  0.00  0.00    +0.020 A 
ATOM     23  C   UNL     1     -11.636  -6.600  14.897  0.00  0.00    +0.111 A 
ENDBRANCH  18  19
ENDBRANCH   5  18
ENDBRANCH  10   5
BRANCH   7  16
ATOM     16  C   UNL     1      -3.821 -10.293  16.196  0.00  0.00    +0.138 C 
BRANCH  16   4
ATOM      3  O   UNL     1      -1.422  -9.919  14.603  0.00  0.00    -0.276 OA
ATOM      4  N   UNL     1      -3.622 -10.653  14.821  0.00  0.00    -0.313 N 
ATOM     17  C   UNL     1      -2.433 -10.437  14.135  0.00  0.00    +0.216 C 
ATOM     24  H   UNL     1      -4.399 -11.093  14.337  0.00  0.00    +0.149 HD
BRANCH  17   9
ATOM      9  C   UNL     1      -2.486 -10.929  12.721  0.00  0.00    +0.075 C 
ATOM     11  C   UNL     1      -1.664 -10.012  11.808  0.00  0.00    +0.013 C 
ATOM     12  C   UNL     1      -3.919 -10.892  12.188  0.00  0.00    +0.013 C 
ATOM     13  C   UNL     1      -2.621  -9.548  10.714  0.00  0.00    +0.001 C 
ATOM     14  C   UNL     1      -3.990  -9.613  11.366  0.00  0.00    +0.001 C 
ENDBRANCH  17   9
ENDBRANCH  16   4
ENDBRANCH   7  16
TORSDOF 7
ENDMDL
MODEL 10
REMARK VINA RESULT:      -5.7     26.952     28.390
REMARK  Name = 75536565
REMARK  7 active torsions:
REMARK  status: ('A' for Active; 'I' for Inactive)
REMARK    1  A    between atoms: O_2  and  C_8
REMARK    2  A    between atoms: N_4  and  C_16
REMARK    3  A    between atoms: N_5  and  C_10
REMARK    4  A    between atoms: N_5  and  C_18
REMARK    5  A    between atoms: C_7  and  C_16
REMARK    6  A    between atoms: C_9  and  C_17
REMARK    7  A    between atoms: C_18  and  C_19
REMARK                            x       y       z     vdW  Elec       q    Type
REMARK                         _______ _______ _______ _____ _____    ______ ____
ROOT
ATOM      1  O   UNL     1      -2.800 -13.046  11.895  0.00  0.00    -0.371 OA
ATOM      7  C   UNL     1      -2.120 -12.369  12.967  0.00  0.00    +0.165 C 
ATOM      8  C   UNL     1      -2.614 -10.929  12.935  0.00  0.00    +0.164 C 
ATOM     10  C   UNL     1      -2.793 -10.713  11.444  0.00  0.00    +0.111 C 
ATOM     15  C   UNL     1      -3.356 -12.057  11.011  0.00  0.00    +0.181 C 
ENDROOT
BRANCH   8   2
ATOM      2  O   UNL     1      -1.677 -10.037  13.507  0.00  0.00    -0.388 OA
ATOM     26  H   UNL     1      -2.043  -9.705  14.344  0.00  0.00    +0.210 HD
ENDBRANCH   8   2
BRANCH  10   5
ATOM      5  N   UNL     1      -3.669  -9.600  11.116  0.00  0.00    -0.305 NA
ATOM     25  H   UNL     1      -3.435  -8.805  11.711  0.00  0.00    +0.123 HD
BRANCH   5  18
ATOM     18  C   UNL     1      -3.516  -9.206   9.720  0.00  0.00    +0.118 C 
BRANCH  18  19
ATOM      6  N   UNL     1      -6.264  -9.751   7.175  0.00  0.00    -0.263 NA
ATOM     19  C   UNL     1      -4.844  -9.099   9.020  0.00  0.00    -0.015 A 
ATOM     20  C   UNL     1      -5.858  -8.293   9.524  0.00  0.00    +0.008 A 
ATOM     21  C   UNL     1      -5.096  -9.802   7.852  0.00  0.00    +0.115 A 
ATOM     22  C   UNL     1      -7.075  -8.215   8.855  0.00  0.00    +0.020 A 
ATOM     23  C   UNL     1      -7.225  -8.957   7.694  0.00  0.00    +0.111 A 
ENDBRANCH  18  19
ENDBRANCH   5  18
ENDBRANCH  10   5
BRANCH   7  16
ATOM     16  C   UNL     1      -2.404 -13.072  14.281  0.00  0.00    +0.138 C 
BRANCH  16   4
ATOM      3  O   UNL     1      -4.761 -12.981  15.975  0.00  0.00    -0.276 OA
ATOM      4  N   UNL     1      -2.692 -12.131  15.325  0.00  0.00    -0.313 N 
ATOM     17  C   UNL     1      -3.851 -12.163  16.090  0.00  0.00    +0.216 C 
ATOM     24  H   UNL     1      -2.000 -11.409  15.507  0.00  0.00    +0.149 HD
BRANCH  17   9
ATOM      9  C   UNL     1      -3.889 -11.082  17.126  0.00  0.00    +0.075 C 
ATOM     11  C   UNL     1      -4.266 -11.668  18.492  0.00  0.00    +0.013 C 
ATOM     12  C   UNL     1      -4.966 -10.049  16.792  0.00  0.00    +0.013 C 
ATOM     13  C   UNL     1      -5.493 -10.888  18.955  0.00  0.00    +0.001 C 
ATOM     14  C   UNL     1      -6.152 -10.433  17.666  0.00  0.00    +0.001 C 
ENDBRANCH  17   9
ENDBRANCH  16   4
ENDBRANCH   7  16
TORSDOF 7
ENDMDL
