MODEL 1
REMARK VINA RESULT:      -6.5      0.000      0.000
REMARK  Name = 7661884
REMARK  7 active torsions:
REMARK  status: ('A' for Active; 'I' for Inactive)
REMARK    1  A    between atoms: S_1  and  N_9
REMARK    2  A    between atoms: S_1  and  C_23
REMARK    3  A    between atoms: S_2  and  N_11
REMARK    4  A    between atoms: S_2  and  C_26
REMARK    5  A    between atoms: O_8  and  C_29
REMARK    6  A    between atoms: O_8  and  C_35
REMARK    7  A    between atoms: N_11  and  C_19
REMARK                            x       y       z     vdW  Elec       q    Type
REMARK                         _______ _______ _______ _____ _____    ______ ____
ROOT
ATOM      5  O   UNL     1      -6.694 -11.796  20.389  0.00  0.00    -0.268 OA
ATOM      9  N   UNL     1      -8.155 -11.984  15.620  0.00  0.00    -0.176 NA
ATOM     10  N   UNL     1      -6.807 -10.848  18.248  0.00  0.00    -0.310 N 
ATOM     12  C   UNL     1      -9.038 -10.226  17.156  0.00  0.00    +0.025 C 
ATOM     13  C   UNL     1      -6.937  -9.842  15.945  0.00  0.00    +0.054 C 
ATOM     14  C   UNL     1      -8.221  -9.172  16.430  0.00  0.00    +0.017 C 
ATOM     15  C   UNL     1      -9.386 -11.391  16.216  0.00  0.00    +0.114 C 
ATOM     16  C   UNL     1      -7.292 -10.965  14.953  0.00  0.00    +0.119 C 
ATOM     17  C   UNL     1      -8.257 -10.680  18.391  0.00  0.00    +0.130 C 
ATOM     18  C   UNL     1      -6.113 -10.400  17.105  0.00  0.00    +0.049 A 
ATOM     19  C   UNL     1      -4.768 -10.505  17.086  0.00  0.00    +0.068 A 
ATOM     20  C   UNL     1      -6.141 -11.401  19.361  0.00  0.00    +0.252 A 
ATOM     21  C   UNL     1      -4.031 -11.051  18.190  0.00  0.00    +0.031 A 
ATOM     22  C   UNL     1      -4.661 -11.493  19.278  0.00  0.00    +0.072 A 
ENDROOT
BRANCH   9   1
ATOM      1  S   UNL     1      -8.379 -13.444  14.757  0.00  0.00    +0.061 S 
ATOM      3  O   UNL     1      -8.234 -13.184  13.341  0.00  0.00    -0.153 OA
ATOM      4  O   UNL     1      -9.548 -14.123  15.274  0.00  0.00    -0.153 OA
BRANCH   1  23
ATOM     23  C   UNL     1      -6.952 -14.339  15.289  0.00  0.00    +0.106 A 
ATOM     24  C   UNL     1      -6.312 -15.183  14.397  0.00  0.00    +0.032 A 
ATOM     25  C   UNL     1      -6.499 -14.183  16.588  0.00  0.00    +0.032 A 
ATOM     27  C   UNL     1      -5.184 -15.890  14.816  0.00  0.00    +0.047 A 
ATOM     28  C   UNL     1      -5.373 -14.890  17.007  0.00  0.00    +0.047 A 
ATOM     29  C   UNL     1      -4.715 -15.744  16.122  0.00  0.00    +0.120 A 
BRANCH  29   8
ATOM      8  O   UNL     1      -3.615 -16.434  16.530  0.00  0.00    -0.495 OA
ATOM     35  C   UNL     1      -2.791 -17.005  15.514  0.00  0.00    +0.277 C 
ENDBRANCH  29   8
ENDBRANCH   1  23
ENDBRANCH   9   1
BRANCH  19  11
ATOM     11  N   UNL     1      -4.055 -10.088  15.938  0.00  0.00    -0.215 N 
ATOM     36  H   UNL     1      -3.696  -9.127  15.975  0.00  0.00    +0.174 HD
BRANCH  11   2
ATOM      2  S   UNL     1      -3.025 -11.222  15.227  0.00  0.00    +0.072 S 
ATOM      6  O   UNL     1      -1.676 -11.047  15.734  0.00  0.00    -0.150 OA
ATOM      7  O   UNL     1      -3.648 -12.531  15.247  0.00  0.00    -0.150 OA
BRANCH   2  26
ATOM     26  C   UNL     1      -3.035 -10.659  13.550  0.00  0.00    +0.108 A 
ATOM     30  C   UNL     1      -4.248 -10.483  12.906  0.00  0.00    +0.029 A 
ATOM     31  C   UNL     1      -1.833 -10.407  12.916  0.00  0.00    +0.029 A 
ATOM     32  C   UNL     1      -4.256 -10.041  11.583  0.00  0.00    +0.002 A 
ATOM     33  C   UNL     1      -1.841  -9.964  11.593  0.00  0.00    +0.002 A 
ATOM     34  C   UNL     1      -3.053  -9.781  10.926  0.00  0.00    +0.000 A 
ENDBRANCH   2  26
ENDBRANCH  11   2
ENDBRANCH  19  11
TORSDOF 6
ENDMDL
MODEL 2
REMARK VINA RESULT:      -6.4     25.290     28.093
REMARK  Name = 7661884
REMARK  7 active torsions:
REMARK  status: ('A' for Active; 'I' for Inactive)
REMARK    1  A    between atoms: S_1  and  N_9
REMARK    2  A    between atoms: S_1  and  C_23
REMARK    3  A    between atoms: S_2  and  N_11
REMARK    4  A    between atoms: S_2  and  C_26
REMARK    5  A    between atoms: O_8  and  C_29
REMARK    6  A    between atoms: O_8  and  C_35
REMARK    7  A    between atoms: N_11  and  C_19
REMARK                            x       y       z     vdW  Elec       q    Type
REMARK                         _______ _______ _______ _____ _____    ______ ____
ROOT
ATOM      5  O   UNL     1      19.443  -4.999  21.152  0.00  0.00    -0.268 OA
ATOM      9  N   UNL     1      18.699  -2.251  25.251  0.00  0.00    -0.176 NA
ATOM     10  N   UNL     1      18.065  -4.279  22.906  0.00  0.00    -0.310 N 
ATOM     12  C   UNL     1      17.383  -1.825  23.174  0.00  0.00    +0.025 C 
ATOM     13  C   UNL     1      16.596  -3.495  24.793  0.00  0.00    +0.054 C 
ATOM     14  C   UNL     1      16.141  -2.396  23.836  0.00  0.00    +0.017 C 
ATOM     15  C   UNL     1      18.339  -1.235  24.223  0.00  0.00    +0.114 C 
ATOM     16  C   UNL     1      17.500  -2.883  25.879  0.00  0.00    +0.119 C 
ATOM     17  C   UNL     1      18.037  -2.926  22.337  0.00  0.00    +0.130 C 
ATOM     18  C   UNL     1      17.331  -4.617  24.061  0.00  0.00    +0.049 A 
ATOM     19  C   UNL     1      17.333  -5.903  24.471  0.00  0.00    +0.068 A 
ATOM     20  C   UNL     1      18.797  -5.236  22.174  0.00  0.00    +0.252 A 
ATOM     21  C   UNL     1      18.051  -6.927  23.766  0.00  0.00    +0.031 A 
ATOM     22  C   UNL     1      18.763  -6.633  22.677  0.00  0.00    +0.072 A 
ENDROOT
BRANCH   9   1
ATOM      1  S   UNL     1      19.950  -1.804  26.329  0.00  0.00    +0.061 S 
ATOM      3  O   UNL     1      19.539  -2.107  27.683  0.00  0.00    -0.153 OA
ATOM      4  O   UNL     1      20.429  -0.485  25.973  0.00  0.00    -0.153 OA
BRANCH   1  23
ATOM     23  C   UNL     1      21.189  -2.974  25.867  0.00  0.00    +0.106 A 
ATOM     24  C   UNL     1      20.843  -4.042  25.056  0.00  0.00    +0.032 A 
ATOM     25  C   UNL     1      22.485  -2.806  26.325  0.00  0.00    +0.032 A 
ATOM     27  C   UNL     1      21.822  -4.966  24.690  0.00  0.00    +0.047 A 
ATOM     28  C   UNL     1      23.463  -3.730  25.960  0.00  0.00    +0.047 A 
ATOM     29  C   UNL     1      23.132  -4.811  25.143  0.00  0.00    +0.120 A 
BRANCH  29   8
ATOM      8  O   UNL     1      24.086  -5.713  24.786  0.00  0.00    -0.495 OA
ATOM     35  C   UNL     1      25.322  -5.194  24.298  0.00  0.00    +0.277 C 
ENDBRANCH  29   8
ENDBRANCH   1  23
ENDBRANCH   9   1
BRANCH  19  11
ATOM     11  N   UNL     1      16.628  -6.259  25.644  0.00  0.00    -0.215 N 
ATOM     36  H   UNL     1      15.777  -6.811  25.487  0.00  0.00    +0.174 HD
BRANCH  11   2
ATOM      2  S   UNL     1      17.554  -6.713  26.982  0.00  0.00    +0.072 S 
ATOM      6  O   UNL     1      17.700  -8.156  27.012  0.00  0.00    -0.150 OA
ATOM      7  O   UNL     1      18.721  -5.858  27.083  0.00  0.00    -0.150 OA
BRANCH   2  26
ATOM     26  C   UNL     1      16.458  -6.266  28.297  0.00  0.00    +0.108 A 
ATOM     30  C   UNL     1      15.240  -6.915  28.410  0.00  0.00    +0.029 A 
ATOM     31  C   UNL     1      16.838  -5.276  29.185  0.00  0.00    +0.029 A 
ATOM     32  C   UNL     1      14.375  -6.561  29.445  0.00  0.00    +0.002 A 
ATOM     33  C   UNL     1      15.974  -4.923  30.221  0.00  0.00    +0.002 A 
ATOM     34  C   UNL     1      14.742  -5.565  30.351  0.00  0.00    +0.000 A 
ENDBRANCH   2  26
ENDBRANCH  11   2
ENDBRANCH  19  11
TORSDOF 6
ENDMDL
MODEL 3
REMARK VINA RESULT:      -6.2      2.539      5.417
REMARK  Name = 7661884
REMARK  7 active torsions:
REMARK  status: ('A' for Active; 'I' for Inactive)
REMARK    1  A    between atoms: S_1  and  N_9
REMARK    2  A    between atoms: S_1  and  C_23
REMARK    3  A    between atoms: S_2  and  N_11
REMARK    4  A    between atoms: S_2  and  C_26
REMARK    5  A    between atoms: O_8  and  C_29
REMARK    6  A    between atoms: O_8  and  C_35
REMARK    7  A    between atoms: N_11  and  C_19
REMARK                            x       y       z     vdW  Elec       q    Type
REMARK                         _______ _______ _______ _____ _____    ______ ____
ROOT
ATOM      5  O   UNL     1      -4.428 -15.540  17.449  0.00  0.00    -0.268 OA
ATOM      9  N   UNL     1      -7.449 -11.578  17.155  0.00  0.00    -0.176 NA
ATOM     10  N   UNL     1      -4.819 -13.310  16.844  0.00  0.00    -0.310 N 
ATOM     12  C   UNL     1      -5.400 -11.517  18.578  0.00  0.00    +0.025 C 
ATOM     13  C   UNL     1      -5.252 -10.914  16.203  0.00  0.00    +0.054 C 
ATOM     14  C   UNL     1      -4.740 -10.563  17.598  0.00  0.00    +0.017 C 
ATOM     15  C   UNL     1      -6.929 -11.371  18.536  0.00  0.00    +0.114 C 
ATOM     16  C   UNL     1      -6.776 -10.702  16.150  0.00  0.00    +0.119 C 
ATOM     17  C   UNL     1      -4.936 -12.940  18.259  0.00  0.00    +0.130 C 
ATOM     18  C   UNL     1      -4.902 -12.351  15.814  0.00  0.00    +0.049 A 
ATOM     19  C   UNL     1      -4.692 -12.752  14.543  0.00  0.00    +0.068 A 
ATOM     20  C   UNL     1      -4.527 -14.664  16.588  0.00  0.00    +0.252 A 
ATOM     21  C   UNL     1      -4.382 -14.115  14.215  0.00  0.00    +0.031 A 
ATOM     22  C   UNL     1      -4.308 -15.045  15.168  0.00  0.00    +0.072 A 
ENDROOT
BRANCH   9   1
ATOM      1  S   UNL     1      -9.150 -11.695  17.013  0.00  0.00    +0.061 S 
ATOM      3  O   UNL     1      -9.718 -11.950  18.320  0.00  0.00    -0.153 OA
ATOM      4  O   UNL     1      -9.472 -12.540  15.883  0.00  0.00    -0.153 OA
BRANCH   1  23
ATOM     23  C   UNL     1      -9.539 -10.029  16.573  0.00  0.00    +0.106 A 
ATOM     24  C   UNL     1      -9.781  -9.719  15.245  0.00  0.00    +0.032 A 
ATOM     25  C   UNL     1      -9.594  -9.062  17.562  0.00  0.00    +0.032 A 
ATOM     27  C   UNL     1     -10.089  -8.403  14.897  0.00  0.00    +0.047 A 
ATOM     28  C   UNL     1      -9.901  -7.747  17.215  0.00  0.00    +0.047 A 
ATOM     29  C   UNL     1     -10.148  -7.417  15.882  0.00  0.00    +0.120 A 
BRANCH  29   8
ATOM      8  O   UNL     1     -10.448  -6.133  15.542  0.00  0.00    -0.495 OA
ATOM     35  C   UNL     1     -11.822  -5.827  15.309  0.00  0.00    +0.277 C 
ENDBRANCH  29   8
ENDBRANCH   1  23
ENDBRANCH   9   1
BRANCH  19  11
ATOM     11  N   UNL     1      -4.799 -11.813  13.490  0.00  0.00    -0.215 N 
ATOM     36  H   UNL     1      -5.560 -11.132  13.593  0.00  0.00    +0.174 HD
BRANCH  11   2
ATOM      2  S   UNL     1      -3.355 -11.202  12.864  0.00  0.00    +0.072 S 
ATOM      6  O   UNL     1      -2.690 -10.388  13.865  0.00  0.00    -0.150 OA
ATOM      7  O   UNL     1      -2.630 -12.257  12.182  0.00  0.00    -0.150 OA
BRANCH   2  26
ATOM     26  C   UNL     1      -3.981 -10.106  11.625  0.00  0.00    +0.108 A 
ATOM     30  C   UNL     1      -5.264  -9.603  11.755  0.00  0.00    +0.029 A 
ATOM     31  C   UNL     1      -3.177  -9.774  10.549  0.00  0.00    +0.029 A 
ATOM     32  C   UNL     1      -5.759  -8.740  10.777  0.00  0.00    +0.002 A 
ATOM     33  C   UNL     1      -3.671  -8.911   9.571  0.00  0.00    +0.002 A 
ATOM     34  C   UNL     1      -4.962  -8.394   9.685  0.00  0.00    +0.000 A 
ENDBRANCH   2  26
ENDBRANCH  11   2
ENDBRANCH  19  11
TORSDOF 6
ENDMDL
MODEL 4
REMARK VINA RESULT:      -6.2     27.862     31.114
REMARK  Name = 7661884
REMARK  7 active torsions:
REMARK  status: ('A' for Active; 'I' for Inactive)
REMARK    1  A    between atoms: S_1  and  N_9
REMARK    2  A    between atoms: S_1  and  C_23
REMARK    3  A    between atoms: S_2  and  N_11
REMARK    4  A    between atoms: S_2  and  C_26
REMARK    5  A    between atoms: O_8  and  C_29
REMARK    6  A    between atoms: O_8  and  C_35
REMARK    7  A    between atoms: N_11  and  C_19
REMARK                            x       y       z     vdW  Elec       q    Type
REMARK                         _______ _______ _______ _____ _____    ______ ____
ROOT
ATOM      5  O   UNL     1      17.038  12.637  17.273  0.00  0.00    -0.268 OA
ATOM      9  N   UNL     1      16.178   9.365  20.943  0.00  0.00    -0.176 NA
ATOM     10  N   UNL     1      16.178  12.123  19.392  0.00  0.00    -0.310 N 
ATOM     12  C   UNL     1      17.678  11.326  21.308  0.00  0.00    +0.025 C 
ATOM     13  C   UNL     1      15.261  11.558  21.667  0.00  0.00    +0.054 C 
ATOM     14  C   UNL     1      16.632  11.969  22.200  0.00  0.00    +0.017 C 
ATOM     15  C   UNL     1      17.551   9.794  21.333  0.00  0.00    +0.114 C 
ATOM     16  C   UNL     1      15.117  10.028  21.757  0.00  0.00    +0.119 C 
ATOM     17  C   UNL     1      17.538  11.905  19.899  0.00  0.00    +0.130 C 
ATOM     18  C   UNL     1      15.047  12.028  20.229  0.00  0.00    +0.049 A 
ATOM     19  C   UNL     1      13.837  12.334  19.713  0.00  0.00    +0.068 A 
ATOM     20  C   UNL     1      16.083  12.523  18.044  0.00  0.00    +0.252 A 
ATOM     21  C   UNL     1      13.675  12.755  18.351  0.00  0.00    +0.031 A 
ATOM     22  C   UNL     1      14.725  12.843  17.534  0.00  0.00    +0.072 A 
ENDROOT
BRANCH   9   1
ATOM      1  S   UNL     1      15.973   7.686  20.684  0.00  0.00    +0.061 S 
ATOM      3  O   UNL     1      15.551   7.064  21.920  0.00  0.00    -0.153 OA
ATOM      4  O   UNL     1      17.110   7.180  19.945  0.00  0.00    -0.153 OA
BRANCH   1  23
ATOM     23  C   UNL     1      14.584   7.710  19.592  0.00  0.00    +0.106 A 
ATOM     24  C   UNL     1      14.628   8.505  18.459  0.00  0.00    +0.032 A 
ATOM     25  C   UNL     1      13.476   6.935  19.888  0.00  0.00    +0.032 A 
ATOM     27  C   UNL     1      13.532   8.524  17.596  0.00  0.00    +0.047 A 
ATOM     28  C   UNL     1      12.380   6.954  19.026  0.00  0.00    +0.047 A 
ATOM     29  C   UNL     1      12.407   7.749  17.880  0.00  0.00    +0.120 A 
BRANCH  29   8
ATOM      8  O   UNL     1      11.338   7.767  17.038  0.00  0.00    -0.495 OA
ATOM     35  C   UNL     1      11.103   8.972  16.311  0.00  0.00    +0.277 C 
ENDBRANCH  29   8
ENDBRANCH   1  23
ENDBRANCH   9   1
BRANCH  19  11
ATOM     11  N   UNL     1      12.686  12.217  20.526  0.00  0.00    -0.215 N 
ATOM     36  H   UNL     1      12.659  11.382  21.122  0.00  0.00    +0.174 HD
BRANCH  11   2
ATOM      2  S   UNL     1      12.106  13.636  21.235  0.00  0.00    +0.072 S 
ATOM      6  O   UNL     1      13.200  14.568  21.434  0.00  0.00    -0.150 OA
ATOM      7  O   UNL     1      10.897  14.064  20.559  0.00  0.00    -0.150 OA
BRANCH   2  26
ATOM     26  C   UNL     1      11.634  13.029  22.828  0.00  0.00    +0.108 A 
ATOM     30  C   UNL     1      11.573  11.662  23.038  0.00  0.00    +0.029 A 
ATOM     31  C   UNL     1      11.333  13.932  23.832  0.00  0.00    +0.029 A 
ATOM     32  C   UNL     1      11.199  11.183  24.293  0.00  0.00    +0.002 A 
ATOM     33  C   UNL     1      10.959  13.453  25.087  0.00  0.00    +0.002 A 
ATOM     34  C   UNL     1      10.892  12.078  25.319  0.00  0.00    +0.000 A 
ENDBRANCH   2  26
ENDBRANCH  11   2
ENDBRANCH  19  11
TORSDOF 6
ENDMDL
MODEL 5
REMARK VINA RESULT:      -6.1     26.036     30.341
REMARK  Name = 7661884
REMARK  7 active torsions:
REMARK  status: ('A' for Active; 'I' for Inactive)
REMARK    1  A    between atoms: S_1  and  N_9
REMARK    2  A    between atoms: S_1  and  C_23
REMARK    3  A    between atoms: S_2  and  N_11
REMARK    4  A    between atoms: S_2  and  C_26
REMARK    5  A    between atoms: O_8  and  C_29
REMARK    6  A    between atoms: O_8  and  C_35
REMARK    7  A    between atoms: N_11  and  C_19
REMARK                            x       y       z     vdW  Elec       q    Type
REMARK                         _______ _______ _______ _____ _____    ______ ____
ROOT
ATOM      5  O   UNL     1      12.113  10.723   6.126  0.00  0.00    -0.268 OA
ATOM      9  N   UNL     1      12.179   7.242   2.550  0.00  0.00    -0.176 NA
ATOM     10  N   UNL     1      13.165   9.680   4.310  0.00  0.00    -0.310 N 
ATOM     12  C   UNL     1      12.130   9.668   1.967  0.00  0.00    +0.025 C 
ATOM     13  C   UNL     1      14.282   8.552   2.356  0.00  0.00    +0.054 C 
ATOM     14  C   UNL     1      13.570   9.590   1.491  0.00  0.00    +0.017 C 
ATOM     15  C   UNL     1      11.432   8.307   1.823  0.00  0.00    +0.114 C 
ATOM     16  C   UNL     1      13.617   7.178   2.155  0.00  0.00    +0.119 C 
ATOM     17  C   UNL     1      12.122  10.183   3.408  0.00  0.00    +0.130 C 
ATOM     18  C   UNL     1      14.266   8.938   3.835  0.00  0.00    +0.049 A 
ATOM     19  C   UNL     1      15.232   8.589   4.710  0.00  0.00    +0.068 A 
ATOM     20  C   UNL     1      13.044  10.064   5.661  0.00  0.00    +0.252 A 
ATOM     21  C   UNL     1      15.173   8.956   6.097  0.00  0.00    +0.031 A 
ATOM     22  C   UNL     1      14.139   9.647   6.575  0.00  0.00    +0.072 A 
ENDROOT
BRANCH   9   1
ATOM      1  S   UNL     1      11.380   5.735   2.682  0.00  0.00    +0.061 S 
ATOM      3  O   UNL     1      12.331   4.672   2.439  0.00  0.00    -0.153 OA
ATOM      4  O   UNL     1      10.130   5.799   1.954  0.00  0.00    -0.153 OA
BRANCH   1  23
ATOM     23  C   UNL     1      11.003   5.736   4.408  0.00  0.00    +0.106 A 
ATOM     24  C   UNL     1      10.015   4.891   4.885  0.00  0.00    +0.032 A 
ATOM     25  C   UNL     1      11.699   6.582   5.254  0.00  0.00    +0.032 A 
ATOM     27  C   UNL     1       9.717   4.891   6.248  0.00  0.00    +0.047 A 
ATOM     28  C   UNL     1      11.402   6.583   6.616  0.00  0.00    +0.047 A 
ATOM     29  C   UNL     1      10.410   5.738   7.113  0.00  0.00    +0.120 A 
BRANCH  29   8
ATOM      8  O   UNL     1      10.119   5.737   8.443  0.00  0.00    -0.495 OA
ATOM     35  C   UNL     1       9.594   4.529   8.994  0.00  0.00    +0.277 C 
ENDBRANCH  29   8
ENDBRANCH   1  23
ENDBRANCH   9   1
BRANCH  19  11
ATOM     11  N   UNL     1      16.331   7.820   4.262  0.00  0.00    -0.215 N 
ATOM     36  H   UNL     1      16.083   6.932   3.811  0.00  0.00    +0.174 HD
BRANCH  11   2
ATOM      2  S   UNL     1      17.614   8.662   3.556  0.00  0.00    +0.072 S 
ATOM      6  O   UNL     1      17.952   8.062   2.279  0.00  0.00    -0.150 OA
ATOM      7  O   UNL     1      17.376  10.089   3.652  0.00  0.00    -0.150 OA
BRANCH   2  26
ATOM     26  C   UNL     1      18.917   8.267   4.685  0.00  0.00    +0.108 A 
ATOM     30  C   UNL     1      19.971   7.481   4.251  0.00  0.00    +0.029 A 
ATOM     31  C   UNL     1      18.857   8.750   5.980  0.00  0.00    +0.029 A 
ATOM     32  C   UNL     1      20.997   7.168   5.142  0.00  0.00    +0.002 A 
ATOM     33  C   UNL     1      19.884   8.438   6.871  0.00  0.00    +0.002 A 
ATOM     34  C   UNL     1      20.954   7.647   6.452  0.00  0.00    +0.000 A 
ENDBRANCH   2  26
ENDBRANCH  11   2
ENDBRANCH  19  11
TORSDOF 6
ENDMDL
MODEL 6
REMARK VINA RESULT:      -6.1     25.103     29.055
REMARK  Name = 7661884
REMARK  7 active torsions:
REMARK  status: ('A' for Active; 'I' for Inactive)
REMARK    1  A    between atoms: S_1  and  N_9
REMARK    2  A    between atoms: S_1  and  C_23
REMARK    3  A    between atoms: S_2  and  N_11
REMARK    4  A    between atoms: S_2  and  C_26
REMARK    5  A    between atoms: O_8  and  C_29
REMARK    6  A    between atoms: O_8  and  C_35
REMARK    7  A    between atoms: N_11  and  C_19
REMARK                            x       y       z     vdW  Elec       q    Type
REMARK                         _______ _______ _______ _____ _____    ______ ____
ROOT
ATOM      5  O   UNL     1      11.092   9.010  -1.161  0.00  0.00    -0.268 OA
ATOM      9  N   UNL     1      13.724   5.530   1.263  0.00  0.00    -0.176 NA
ATOM     10  N   UNL     1      11.892   8.074   0.833  0.00  0.00    -0.310 N 
ATOM     12  C   UNL     1      14.394   7.932   1.357  0.00  0.00    +0.025 C 
ATOM     13  C   UNL     1      12.760   7.060   2.967  0.00  0.00    +0.054 C 
ATOM     14  C   UNL     1      13.946   8.008   2.806  0.00  0.00    +0.017 C 
ATOM     15  C   UNL     1      14.820   6.501   0.990  0.00  0.00    +0.114 C 
ATOM     16  C   UNL     1      13.211   5.620   2.662  0.00  0.00    +0.119 C 
ATOM     17  C   UNL     1      13.262   8.454   0.470  0.00  0.00    +0.130 C 
ATOM     18  C   UNL     1      11.591   7.453   2.063  0.00  0.00    +0.049 A 
ATOM     19  C   UNL     1      10.298   7.219   2.367  0.00  0.00    +0.068 A 
ATOM     20  C   UNL     1      10.888   8.453  -0.081  0.00  0.00    +0.252 A 
ATOM     21  C   UNL     1       9.229   7.587   1.482  0.00  0.00    +0.031 A 
ATOM     22  C   UNL     1       9.484   8.166   0.308  0.00  0.00    +0.072 A 
ENDROOT
BRANCH   9   1
ATOM      1  S   UNL     1      13.971   3.946   0.666  0.00  0.00    +0.061 S 
ATOM      3  O   UNL     1      13.719   2.995   1.727  0.00  0.00    -0.153 OA
ATOM      4  O   UNL     1      15.209   3.914  -0.085  0.00  0.00    -0.153 OA
BRANCH   1  23
ATOM     23  C   UNL     1      12.636   3.837  -0.484  0.00  0.00    +0.106 A 
ATOM     24  C   UNL     1      11.596   4.749  -0.403  0.00  0.00    +0.032 A 
ATOM     25  C   UNL     1      12.649   2.841  -1.447  0.00  0.00    +0.032 A 
ATOM     27  C   UNL     1      10.541   4.663  -1.312  0.00  0.00    +0.047 A 
ATOM     28  C   UNL     1      11.594   2.755  -2.354  0.00  0.00    +0.047 A 
ATOM     29  C   UNL     1      10.539   3.665  -2.287  0.00  0.00    +0.120 A 
BRANCH  29   8
ATOM      8  O   UNL     1       9.510   3.583  -3.173  0.00  0.00    -0.495 OA
ATOM     35  C   UNL     1       9.424   2.397  -3.962  0.00  0.00    +0.277 C 
ENDBRANCH  29   8
ENDBRANCH   1  23
ENDBRANCH   9   1
BRANCH  19  11
ATOM     11  N   UNL     1       9.975   6.570   3.582  0.00  0.00    -0.215 N 
ATOM     36  H   UNL     1      10.655   5.867   3.891  0.00  0.00    +0.174 HD
BRANCH  11   2
ATOM      2  S   UNL     1       9.311   7.528   4.804  0.00  0.00    +0.072 S 
ATOM      6  O   UNL     1      10.175   8.665   5.061  0.00  0.00    -0.150 OA
ATOM      7  O   UNL     1       7.896   7.727   4.557  0.00  0.00    -0.150 OA
BRANCH   2  26
ATOM     26  C   UNL     1       9.456   6.432   6.185  0.00  0.00    +0.108 A 
ATOM     30  C   UNL     1       9.202   6.914   7.458  0.00  0.00    +0.029 A 
ATOM     31  C   UNL     1       9.822   5.116   5.967  0.00  0.00    +0.029 A 
ATOM     32  C   UNL     1       9.318   6.051   8.547  0.00  0.00    +0.002 A 
ATOM     33  C   UNL     1       9.938   4.253   7.056  0.00  0.00    +0.002 A 
ATOM     34  C   UNL     1       9.686   4.720   8.347  0.00  0.00    +0.000 A 
ENDBRANCH   2  26
ENDBRANCH  11   2
ENDBRANCH  19  11
TORSDOF 6
ENDMDL
MODEL 7
REMARK VINA RESULT:      -6.1     26.434     28.910
REMARK  Name = 7661884
REMARK  7 active torsions:
REMARK  status: ('A' for Active; 'I' for Inactive)
REMARK    1  A    between atoms: S_1  and  N_9
REMARK    2  A    between atoms: S_1  and  C_23
REMARK    3  A    between atoms: S_2  and  N_11
REMARK    4  A    between atoms: S_2  and  C_26
REMARK    5  A    between atoms: O_8  and  C_29
REMARK    6  A    between atoms: O_8  and  C_35
REMARK    7  A    between atoms: N_11  and  C_19
REMARK                            x       y       z     vdW  Elec       q    Type
REMARK                         _______ _______ _______ _____ _____    ______ ____
ROOT
ATOM      5  O   UNL     1      10.931   5.379   8.059  0.00  0.00    -0.268 OA
ATOM      9  N   UNL     1       9.560   8.971   4.877  0.00  0.00    -0.176 NA
ATOM     10  N   UNL     1      10.977   7.616   7.361  0.00  0.00    -0.310 N 
ATOM     12  C   UNL     1       8.859   9.052   7.270  0.00  0.00    +0.025 C 
ATOM     13  C   UNL     1      11.015  10.015   6.600  0.00  0.00    +0.054 C 
ATOM     14  C   UNL     1       9.809  10.210   7.517  0.00  0.00    +0.017 C 
ATOM     15  C   UNL     1       8.396   9.028   5.805  0.00  0.00    +0.114 C 
ATOM     16  C   UNL     1      10.552  10.058   5.133  0.00  0.00    +0.119 C 
ATOM     17  C   UNL     1       9.553   7.755   7.689  0.00  0.00    +0.130 C 
ATOM     18  C   UNL     1      11.742   8.702   6.889  0.00  0.00    +0.049 A 
ATOM     19  C   UNL     1      13.066   8.522   6.697  0.00  0.00    +0.068 A 
ATOM     20  C   UNL     1      11.548   6.357   7.633  0.00  0.00    +0.252 A 
ATOM     21  C   UNL     1      13.710   7.267   6.964  0.00  0.00    +0.031 A 
ATOM     22  C   UNL     1      13.009   6.220   7.399  0.00  0.00    +0.072 A 
ENDROOT
BRANCH   9   1
ATOM      1  S   UNL     1       9.184   8.685   3.233  0.00  0.00    +0.061 S 
ATOM      3  O   UNL     1       9.938   9.603   2.407  0.00  0.00    -0.153 OA
ATOM      4  O   UNL     1       7.748   8.563   3.092  0.00  0.00    -0.153 OA
BRANCH   1  23
ATOM     23  C   UNL     1       9.887   7.077   3.031  0.00  0.00    +0.106 A 
ATOM     24  C   UNL     1      10.305   6.376   4.149  0.00  0.00    +0.032 A 
ATOM     25  C   UNL     1      10.009   6.545   1.758  0.00  0.00    +0.032 A 
ATOM     27  C   UNL     1      10.860   5.105   3.991  0.00  0.00    +0.047 A 
ATOM     28  C   UNL     1      10.564   5.276   1.599  0.00  0.00    +0.047 A 
ATOM     29  C   UNL     1      10.990   4.556   2.715  0.00  0.00    +0.120 A 
BRANCH  29   8
ATOM      8  O   UNL     1      11.531   3.316   2.561  0.00  0.00    -0.495 OA
ATOM     35  C   UNL     1      12.686   3.209   1.729  0.00  0.00    +0.277 C 
ENDBRANCH  29   8
ENDBRANCH   1  23
ENDBRANCH   9   1
BRANCH  19  11
ATOM     11  N   UNL     1      13.848   9.589   6.197  0.00  0.00    -0.215 N 
ATOM     36  H   UNL     1      14.579   9.926   6.833  0.00  0.00    +0.174 HD
BRANCH  11   2
ATOM      2  S   UNL     1      14.277   9.519   4.565  0.00  0.00    +0.072 S 
ATOM      6  O   UNL     1      13.602   8.405   3.926  0.00  0.00    -0.150 OA
ATOM      7  O   UNL     1      14.211  10.845   3.982  0.00  0.00    -0.150 OA
BRANCH   2  26
ATOM     26  C   UNL     1      15.988   9.089   4.702  0.00  0.00    +0.108 A 
ATOM     30  C   UNL     1      16.651   9.334   5.893  0.00  0.00    +0.029 A 
ATOM     31  C   UNL     1      16.629   8.518   3.618  0.00  0.00    +0.029 A 
ATOM     32  C   UNL     1      18.000   8.997   6.001  0.00  0.00    +0.002 A 
ATOM     33  C   UNL     1      17.978   8.180   3.726  0.00  0.00    +0.002 A 
ATOM     34  C   UNL     1      18.664   8.420   4.917  0.00  0.00    +0.000 A 
ENDBRANCH   2  26
ENDBRANCH  11   2
ENDBRANCH  19  11
TORSDOF 6
ENDMDL
MODEL 8
REMARK VINA RESULT:      -6.1     25.991     29.504
REMARK  Name = 7661884
REMARK  7 active torsions:
REMARK  status: ('A' for Active; 'I' for Inactive)
REMARK    1  A    between atoms: S_1  and  N_9
REMARK    2  A    between atoms: S_1  and  C_23
REMARK    3  A    between atoms: S_2  and  N_11
REMARK    4  A    between atoms: S_2  and  C_26
REMARK    5  A    between atoms: O_8  and  C_29
REMARK    6  A    between atoms: O_8  and  C_35
REMARK    7  A    between atoms: N_11  and  C_19
REMARK                            x       y       z     vdW  Elec       q    Type
REMARK                         _______ _______ _______ _____ _____    ______ ____
ROOT
ATOM      5  O   UNL     1      10.336   8.315   0.227  0.00  0.00    -0.268 OA
ATOM      9  N   UNL     1      14.554   5.760   0.997  0.00  0.00    -0.176 NA
ATOM     10  N   UNL     1      12.255   7.876   1.499  0.00  0.00    -0.310 N 
ATOM     12  C   UNL     1      14.612   8.216   0.558  0.00  0.00    +0.025 C 
ATOM     13  C   UNL     1      14.321   7.396   2.853  0.00  0.00    +0.054 C 
ATOM     14  C   UNL     1      14.994   8.473   2.005  0.00  0.00    +0.017 C 
ATOM     15  C   UNL     1      15.089   6.826   0.105  0.00  0.00    +0.114 C 
ATOM     16  C   UNL     1      14.853   6.012   2.438  0.00  0.00    +0.119 C 
ATOM     17  C   UNL     1      13.099   8.393   0.416  0.00  0.00    +0.130 C 
ATOM     18  C   UNL     1      12.799   7.440   2.724  0.00  0.00    +0.049 A 
ATOM     19  C   UNL     1      11.953   7.065   3.707  0.00  0.00    +0.068 A 
ATOM     20  C   UNL     1      10.865   7.930   1.270  0.00  0.00    +0.252 A 
ATOM     21  C   UNL     1      10.527   7.104   3.541  0.00  0.00    +0.031 A 
ATOM     22  C   UNL     1       9.986   7.501   2.389  0.00  0.00    +0.072 A 
ENDROOT
BRANCH   9   1
ATOM      1  S   UNL     1      14.797   4.154   0.461  0.00  0.00    +0.061 S 
ATOM      3  O   UNL     1      14.763   3.263   1.601  0.00  0.00    -0.153 OA
ATOM      4  O   UNL     1      15.906   4.130  -0.470  0.00  0.00    -0.153 OA
BRANCH   1  23
ATOM     23  C   UNL     1      13.311   3.907  -0.460  0.00  0.00    +0.106 A 
ATOM     24  C   UNL     1      12.117   4.407   0.034  0.00  0.00    +0.032 A 
ATOM     25  C   UNL     1      13.362   3.217  -1.660  0.00  0.00    +0.032 A 
ATOM     27  C   UNL     1      10.942   4.213  -0.694  0.00  0.00    +0.047 A 
ATOM     28  C   UNL     1      12.189   3.022  -2.387  0.00  0.00    +0.047 A 
ATOM     29  C   UNL     1      10.978   3.519  -1.904  0.00  0.00    +0.120 A 
BRANCH  29   8
ATOM      8  O   UNL     1       9.832   3.331  -2.613  0.00  0.00    -0.495 OA
ATOM     35  C   UNL     1       9.575   4.234  -3.687  0.00  0.00    +0.277 C 
ENDBRANCH  29   8
ENDBRANCH   1  23
ENDBRANCH   9   1
BRANCH  19  11
ATOM     11  N   UNL     1      12.477   6.596   4.934  0.00  0.00    -0.215 N 
ATOM     36  H   UNL     1      13.297   5.986   4.850  0.00  0.00    +0.174 HD
BRANCH  11   2
ATOM      2  S   UNL     1      12.516   7.696   6.215  0.00  0.00    +0.072 S 
ATOM      6  O   UNL     1      13.685   7.450   7.039  0.00  0.00    -0.150 OA
ATOM      7  O   UNL     1      12.235   9.031   5.725  0.00  0.00    -0.150 OA
BRANCH   2  26
ATOM     26  C   UNL     1      11.101   7.165   7.136  0.00  0.00    +0.108 A 
ATOM     30  C   UNL     1      11.114   5.914   7.729  0.00  0.00    +0.029 A 
ATOM     31  C   UNL     1      10.011   8.009   7.244  0.00  0.00    +0.029 A 
ATOM     32  C   UNL     1       9.999   5.494   8.454  0.00  0.00    +0.002 A 
ATOM     33  C   UNL     1       8.896   7.589   7.969  0.00  0.00    +0.002 A 
ATOM     34  C   UNL     1       8.889   6.332   8.574  0.00  0.00    +0.000 A 
ENDBRANCH   2  26
ENDBRANCH  11   2
ENDBRANCH  19  11
TORSDOF 6
ENDMDL
MODEL 9
REMARK VINA RESULT:      -6.0     25.623     28.886
REMARK  Name = 7661884
REMARK  7 active torsions:
REMARK  status: ('A' for Active; 'I' for Inactive)
REMARK    1  A    between atoms: S_1  and  N_9
REMARK    2  A    between atoms: S_1  and  C_23
REMARK    3  A    between atoms: S_2  and  N_11
REMARK    4  A    between atoms: S_2  and  C_26
REMARK    5  A    between atoms: O_8  and  C_29
REMARK    6  A    between atoms: O_8  and  C_35
REMARK    7  A    between atoms: N_11  and  C_19
REMARK                            x       y       z     vdW  Elec       q    Type
REMARK                         _______ _______ _______ _____ _____    ______ ____
ROOT
ATOM      5  O   UNL     1       8.222   7.745   7.339  0.00  0.00    -0.268 OA
ATOM      9  N   UNL     1      12.132   9.259   4.631  0.00  0.00    -0.176 NA
ATOM     10  N   UNL     1      10.342   7.356   6.417  0.00  0.00    -0.310 N 
ATOM     12  C   UNL     1      12.381   8.764   7.064  0.00  0.00    +0.025 C 
ATOM     13  C   UNL     1      12.619   6.955   5.422  0.00  0.00    +0.054 C 
ATOM     14  C   UNL     1      13.169   7.508   6.735  0.00  0.00    +0.017 C 
ATOM     15  C   UNL     1      12.537   9.814   5.953  0.00  0.00    +0.114 C 
ATOM     16  C   UNL     1      12.839   7.986   4.301  0.00  0.00    +0.119 C 
ATOM     17  C   UNL     1      10.921   8.373   7.302  0.00  0.00    +0.130 C 
ATOM     18  C   UNL     1      11.136   6.598   5.533  0.00  0.00    +0.049 A 
ATOM     19  C   UNL     1      10.547   5.618   4.817  0.00  0.00    +0.068 A 
ATOM     20  C   UNL     1       8.961   7.123   6.573  0.00  0.00    +0.252 A 
ATOM     21  C   UNL     1       9.147   5.325   4.936  0.00  0.00    +0.031 A 
ATOM     22  C   UNL     1       8.369   6.033   5.755  0.00  0.00    +0.072 A 
ENDROOT
BRANCH   9   1
ATOM      1  S   UNL     1      12.015  10.393   3.355  0.00  0.00    +0.061 S 
ATOM      3  O   UNL     1      12.912  10.001   2.289  0.00  0.00    -0.153 OA
ATOM      4  O   UNL     1      12.055  11.731   3.908  0.00  0.00    -0.153 OA
BRANCH   1  23
ATOM     23  C   UNL     1      10.364  10.079   2.812  0.00  0.00    +0.106 A 
ATOM     24  C   UNL     1       9.970  10.516   1.558  0.00  0.00    +0.032 A 
ATOM     25  C   UNL     1       9.492   9.403   3.648  0.00  0.00    +0.032 A 
ATOM     27  C   UNL     1       8.665  10.268   1.128  0.00  0.00    +0.047 A 
ATOM     28  C   UNL     1       8.189   9.155   3.219  0.00  0.00    +0.047 A 
ATOM     29  C   UNL     1       7.775   9.588   1.959  0.00  0.00    +0.120 A 
BRANCH  29   8
ATOM      8  O   UNL     1       6.503   9.346   1.539  0.00  0.00    -0.495 OA
ATOM     35  C   UNL     1       5.508  10.307   1.889  0.00  0.00    +0.277 C 
ENDBRANCH  29   8
ENDBRANCH   1  23
ENDBRANCH   9   1
BRANCH  19  11
ATOM     11  N   UNL     1      11.319   4.864   3.903  0.00  0.00    -0.215 N 
ATOM     36  H   UNL     1      11.457   3.880   4.159  0.00  0.00    +0.174 HD
BRANCH  11   2
ATOM      2  S   UNL     1      11.056   5.158   2.260  0.00  0.00    +0.072 S 
ATOM      6  O   UNL     1      10.234   4.103   1.698  0.00  0.00    -0.150 OA
ATOM      7  O   UNL     1      10.695   6.548   2.062  0.00  0.00    -0.150 OA
BRANCH   2  26
ATOM     26  C   UNL     1      12.695   4.943   1.630  0.00  0.00    +0.108 A 
ATOM     30  C   UNL     1      13.286   3.693   1.700  0.00  0.00    +0.029 A 
ATOM     31  C   UNL     1      13.354   6.028   1.080  0.00  0.00    +0.029 A 
ATOM     32  C   UNL     1      14.579   3.524   1.204  0.00  0.00    +0.002 A 
ATOM     33  C   UNL     1      14.646   5.859   0.584  0.00  0.00    +0.002 A 
ATOM     34  C   UNL     1      15.259   4.607   0.646  0.00  0.00    +0.000 A 
ENDBRANCH   2  26
ENDBRANCH  11   2
ENDBRANCH  19  11
TORSDOF 6
ENDMDL
MODEL 10
REMARK VINA RESULT:      -6.0     27.276     29.689
REMARK  Name = 7661884
REMARK  7 active torsions:
REMARK  status: ('A' for Active; 'I' for Inactive)
REMARK    1  A    between atoms: S_1  and  N_9
REMARK    2  A    between atoms: S_1  and  C_23
REMARK    3  A    between atoms: S_2  and  N_11
REMARK    4  A    between atoms: S_2  and  C_26
REMARK    5  A    between atoms: O_8  and  C_29
REMARK    6  A    between atoms: O_8  and  C_35
REMARK    7  A    between atoms: N_11  and  C_19
REMARK                            x       y       z     vdW  Elec       q    Type
REMARK                         _______ _______ _______ _____ _____    ______ ____
ROOT
ATOM      5  O   UNL     1       9.775   8.023   0.612  0.00  0.00    -0.268 OA
ATOM      9  N   UNL     1      14.165   5.727   1.221  0.00  0.00    -0.176 NA
ATOM     10  N   UNL     1      11.713   7.620   1.868  0.00  0.00    -0.310 N 
ATOM     12  C   UNL     1      14.045   8.209   0.989  0.00  0.00    +0.025 C 
ATOM     13  C   UNL     1      13.800   7.180   3.204  0.00  0.00    +0.054 C 
ATOM     14  C   UNL     1      14.397   8.370   2.457  0.00  0.00    +0.017 C 
ATOM     15  C   UNL     1      14.626   6.902   0.428  0.00  0.00    +0.114 C 
ATOM     16  C   UNL     1      14.435   5.879   2.681  0.00  0.00    +0.119 C 
ATOM     17  C   UNL     1      12.524   8.287   0.842  0.00  0.00    +0.130 C 
ATOM     18  C   UNL     1      12.279   7.123   3.059  0.00  0.00    +0.049 A 
ATOM     19  C   UNL     1      11.457   6.606   3.996  0.00  0.00    +0.068 A 
ATOM     20  C   UNL     1      10.324   7.591   1.627  0.00  0.00    +0.252 A 
ATOM     21  C   UNL     1      10.033   6.554   3.815  0.00  0.00    +0.031 A 
ATOM     22  C   UNL     1       9.472   7.007   2.694  0.00  0.00    +0.072 A 
ENDROOT
BRANCH   9   1
ATOM      1  S   UNL     1      14.530   4.194   0.555  0.00  0.00    +0.061 S 
ATOM      3  O   UNL     1      14.511   3.203   1.610  0.00  0.00    -0.153 OA
ATOM      4  O   UNL     1      15.671   4.323  -0.327  0.00  0.00    -0.153 OA
BRANCH   1  23
ATOM     23  C   UNL     1      13.097   3.943  -0.446  0.00  0.00    +0.106 A 
ATOM     24  C   UNL     1      13.196   3.162  -1.586  0.00  0.00    +0.032 A 
ATOM     25  C   UNL     1      11.899   4.530  -0.075  0.00  0.00    +0.032 A 
ATOM     27  C   UNL     1      12.064   2.963  -2.377  0.00  0.00    +0.047 A 
ATOM     28  C   UNL     1      10.768   4.331  -0.866  0.00  0.00    +0.047 A 
ATOM     29  C   UNL     1      10.850   3.548  -2.017  0.00  0.00    +0.120 A 
BRANCH  29   8
ATOM      8  O   UNL     1       9.746   3.352  -2.789  0.00  0.00    -0.495 OA
ATOM     35  C   UNL     1       9.953   2.827  -4.099  0.00  0.00    +0.277 C 
ENDBRANCH  29   8
ENDBRANCH   1  23
ENDBRANCH   9   1
BRANCH  19  11
ATOM     11  N   UNL     1      12.006   6.075   5.186  0.00  0.00    -0.215 N 
ATOM     36  H   UNL     1      12.893   5.574   5.068  0.00  0.00    +0.174 HD
BRANCH  11   2
ATOM      2  S   UNL     1      11.889   7.032   6.573  0.00  0.00    +0.072 S 
ATOM      6  O   UNL     1      10.775   7.953   6.441  0.00  0.00    -0.150 OA
ATOM      7  O   UNL     1      12.014   6.202   7.755  0.00  0.00    -0.150 OA
BRANCH   2  26
ATOM     26  C   UNL     1      13.376   7.981   6.434  0.00  0.00    +0.108 A 
ATOM     30  C   UNL     1      13.288   9.354   6.281  0.00  0.00    +0.029 A 
ATOM     31  C   UNL     1      14.596   7.332   6.480  0.00  0.00    +0.029 A 
ATOM     32  C   UNL     1      14.460  10.101   6.169  0.00  0.00    +0.002 A 
ATOM     33  C   UNL     1      15.769   8.079   6.368  0.00  0.00    +0.002 A 
ATOM     34  C   UNL     1      15.701   9.464   6.213  0.00  0.00    +0.000 A 
ENDBRANCH   2  26
ENDBRANCH  11   2
ENDBRANCH  19  11
TORSDOF 6
ENDMDL
