MODEL 1
REMARK VINA RESULT:      -7.2      0.000      0.000
REMARK  Name = 45783771
REMARK  8 active torsions:
REMARK  status: ('A' for Active; 'I' for Inactive)
REMARK    1  A    between atoms: O_3  and  C_21
REMARK    2  A    between atoms: N_4  and  C_13
REMARK    3  A    between atoms: N_8  and  C_25
REMARK    4  A    between atoms: N_8  and  C_26
REMARK    5  A    between atoms: C_9  and  C_14
REMARK    6  A    between atoms: C_13  and  C_15
REMARK    7  A    between atoms: C_17  and  C_20
REMARK    8  A    between atoms: C_18  and  C_21
REMARK                            x       y       z     vdW  Elec       q    Type
REMARK                         _______ _______ _______ _____ _____    ______ ____
ROOT
ATOM      4  N   UNL     1      15.287   7.252  19.382  0.00  0.00    -0.284 NA
ATOM      9  C   UNL     1      14.660   6.609  20.554  0.00  0.00    +0.146 C 
ATOM     10  C   UNL     1      15.814   6.412  21.555  0.00  0.00    +0.030 C 
ATOM     11  C   UNL     1      17.056   6.915  20.834  0.00  0.00    +0.017 C 
ATOM     12  C   UNL     1      16.683   6.817  19.369  0.00  0.00    +0.085 C 
ENDROOT
BRANCH   9  14
ATOM      1  O   UNL     1      12.409   6.741  21.497  0.00  0.00    -0.336 OA
ATOM      5  N   UNL     1      13.446   8.719  21.328  0.00  0.00    -0.190 NA
ATOM      6  N   UNL     1      11.511   7.696  21.990  0.00  0.00    -0.056 NA
ATOM     14  C   UNL     1      13.523   7.427  21.129  0.00  0.00    +0.245 A 
ATOM     17  C   UNL     1      12.195   8.836  21.857  0.00  0.00    +0.204 A 
BRANCH  17  20
ATOM      7  N   UNL     1      10.496  11.446  23.890  0.00  0.00    -0.240 NA
ATOM     20  C   UNL     1      11.657  10.108  22.244  0.00  0.00    +0.041 A 
ATOM     22  C   UNL     1      11.753  11.213  21.404  0.00  0.00    +0.016 A 
ATOM     23  C   UNL     1      11.025  10.276  23.465  0.00  0.00    +0.124 A 
ATOM     24  C   UNL     1      11.221  12.433  21.805  0.00  0.00    +0.044 A 
ATOM     25  C   UNL     1      10.609  12.497  23.047  0.00  0.00    +0.118 A 
BRANCH  25   8
ATOM      8  N   UNL     1      10.073  13.747  23.442  0.00  0.00    -0.332 N 
ATOM     26  C   UNL     1       9.413  14.624  22.531  0.00  0.00    +0.127 C 
ATOM     28  H   UNL     1      10.366  14.113  24.341  0.00  0.00    +0.147 HD
ENDBRANCH  25   8
ENDBRANCH  17  20
ENDBRANCH   9  14
BRANCH   4  13
ATOM     13  C   UNL     1      14.607   6.949  18.130  0.00  0.00    +0.159 C 
BRANCH  13  15
ATOM      2  O   UNL     1      12.677   7.910  16.997  0.00  0.00    -0.461 OA
ATOM     15  C   UNL     1      13.880   8.149  17.582  0.00  0.00    +0.119 A 
ATOM     16  C   UNL     1      14.179   9.491  17.539  0.00  0.00    +0.046 A 
ATOM     18  C   UNL     1      12.203   9.112  16.577  0.00  0.00    +0.131 A 
ATOM     19  C   UNL     1      13.090  10.116  16.887  0.00  0.00    +0.047 A 
BRANCH  18  21
ATOM     21  C   UNL     1      10.895   9.097  15.907  0.00  0.00    +0.230 C 
BRANCH  21   3
ATOM      3  O   UNL     1      10.123   7.979  16.353  0.00  0.00    -0.387 OA
ATOM     27  H   UNL     1      10.301   7.247  15.737  0.00  0.00    +0.210 HD
ENDBRANCH  21   3
ENDBRANCH  18  21
ENDBRANCH  13  15
ENDBRANCH   4  13
TORSDOF 7
ENDMDL
MODEL 2
REMARK VINA RESULT:      -6.6      3.190      7.256
REMARK  Name = 45783771
REMARK  8 active torsions:
REMARK  status: ('A' for Active; 'I' for Inactive)
REMARK    1  A    between atoms: O_3  and  C_21
REMARK    2  A    between atoms: N_4  and  C_13
REMARK    3  A    between atoms: N_8  and  C_25
REMARK    4  A    between atoms: N_8  and  C_26
REMARK    5  A    between atoms: C_9  and  C_14
REMARK    6  A    between atoms: C_13  and  C_15
REMARK    7  A    between atoms: C_17  and  C_20
REMARK    8  A    between atoms: C_18  and  C_21
REMARK                            x       y       z     vdW  Elec       q    Type
REMARK                         _______ _______ _______ _____ _____    ______ ____
ROOT
ATOM      4  N   UNL     1      11.753   8.803  21.626  0.00  0.00    -0.284 NA
ATOM      9  C   UNL     1      12.434   7.648  21.008  0.00  0.00    +0.146 C 
ATOM     10  C   UNL     1      11.454   6.474  21.187  0.00  0.00    +0.030 C 
ATOM     11  C   UNL     1      10.283   7.050  21.970  0.00  0.00    +0.017 C 
ATOM     12  C   UNL     1      10.877   8.259  22.663  0.00  0.00    +0.085 C 
ENDROOT
BRANCH   9  14
ATOM      1  O   UNL     1      12.258   7.034  18.648  0.00  0.00    -0.336 OA
ATOM      5  N   UNL     1      13.554   8.820  19.033  0.00  0.00    -0.190 NA
ATOM      6  N   UNL     1      12.726   7.454  17.396  0.00  0.00    -0.056 NA
ATOM     14  C   UNL     1      12.793   7.892  19.556  0.00  0.00    +0.245 A 
ATOM     17  C   UNL     1      13.483   8.511  17.707  0.00  0.00    +0.204 A 
BRANCH  17  20
ATOM      7  N   UNL     1      15.061   9.439  14.470  0.00  0.00    -0.240 NA
ATOM     20  C   UNL     1      14.179   9.278  16.716  0.00  0.00    +0.041 A 
ATOM     22  C   UNL     1      14.642  10.560  16.996  0.00  0.00    +0.016 A 
ATOM     23  C   UNL     1      14.412   8.768  15.449  0.00  0.00    +0.124 A 
ATOM     24  C   UNL     1      15.314  11.281  16.015  0.00  0.00    +0.044 A 
ATOM     25  C   UNL     1      15.496  10.680  14.779  0.00  0.00    +0.118 A 
BRANCH  25   8
ATOM      8  N   UNL     1      16.182  11.427  13.791  0.00  0.00    -0.332 N 
ATOM     26  C   UNL     1      15.574  11.816  12.559  0.00  0.00    +0.127 C 
ATOM     28  H   UNL     1      17.190  11.489  13.874  0.00  0.00    +0.147 HD
ENDBRANCH  25   8
ENDBRANCH  17  20
ENDBRANCH   9  14
BRANCH   4  13
ATOM     13  C   UNL     1      12.677   9.798  22.155  0.00  0.00    +0.159 C 
BRANCH  13  15
ATOM      2  O   UNL     1      11.978  11.457  23.795  0.00  0.00    -0.461 OA
ATOM     15  C   UNL     1      11.980  11.091  22.485  0.00  0.00    +0.119 A 
ATOM     16  C   UNL     1      11.315  12.023  21.722  0.00  0.00    +0.046 A 
ATOM     18  C   UNL     1      11.305  12.635  23.867  0.00  0.00    +0.131 A 
ATOM     19  C   UNL     1      10.877  13.026  22.620  0.00  0.00    +0.047 A 
BRANCH  18  21
ATOM     21  C   UNL     1      11.177  13.229  25.206  0.00  0.00    +0.230 C 
BRANCH  21   3
ATOM      3  O   UNL     1      10.513  12.320  26.088  0.00  0.00    -0.387 OA
ATOM     27  H   UNL     1      11.095  12.196  26.858  0.00  0.00    +0.210 HD
ENDBRANCH  21   3
ENDBRANCH  18  21
ENDBRANCH  13  15
ENDBRANCH   4  13
TORSDOF 7
ENDMDL
MODEL 3
REMARK VINA RESULT:      -6.3      3.520      6.931
REMARK  Name = 45783771
REMARK  8 active torsions:
REMARK  status: ('A' for Active; 'I' for Inactive)
REMARK    1  A    between atoms: O_3  and  C_21
REMARK    2  A    between atoms: N_4  and  C_13
REMARK    3  A    between atoms: N_8  and  C_25
REMARK    4  A    between atoms: N_8  and  C_26
REMARK    5  A    between atoms: C_9  and  C_14
REMARK    6  A    between atoms: C_13  and  C_15
REMARK    7  A    between atoms: C_17  and  C_20
REMARK    8  A    between atoms: C_18  and  C_21
REMARK                            x       y       z     vdW  Elec       q    Type
REMARK                         _______ _______ _______ _____ _____    ______ ____
ROOT
ATOM      4  N   UNL     1      13.037   7.898  20.652  0.00  0.00    -0.284 NA
ATOM      9  C   UNL     1      12.099   7.825  19.514  0.00  0.00    +0.146 C 
ATOM     10  C   UNL     1      10.899   8.692  19.941  0.00  0.00    +0.030 C 
ATOM     11  C   UNL     1      11.226   9.155  21.353  0.00  0.00    +0.017 C 
ATOM     12  C   UNL     1      12.223   8.126  21.845  0.00  0.00    +0.085 C 
ENDROOT
BRANCH   9  14
ATOM      1  O   UNL     1      13.188   7.320  17.385  0.00  0.00    -0.336 OA
ATOM      5  N   UNL     1      12.884   9.508  17.760  0.00  0.00    -0.190 NA
ATOM      6  N   UNL     1      13.711   7.985  16.267  0.00  0.00    -0.056 NA
ATOM     14  C   UNL     1      12.722   8.291  18.214  0.00  0.00    +0.245 A 
ATOM     17  C   UNL     1      13.495   9.270  16.564  0.00  0.00    +0.204 A 
BRANCH  17  20
ATOM      7  N   UNL     1      13.291  11.840  13.883  0.00  0.00    -0.240 NA
ATOM     20  C   UNL     1      13.876  10.337  15.686  0.00  0.00    +0.041 A 
ATOM     22  C   UNL     1      15.143  10.906  15.758  0.00  0.00    +0.016 A 
ATOM     23  C   UNL     1      12.994  10.836  14.740  0.00  0.00    +0.124 A 
ATOM     24  C   UNL     1      15.485  11.940  14.893  0.00  0.00    +0.044 A 
ATOM     25  C   UNL     1      14.531  12.367  13.983  0.00  0.00    +0.118 A 
BRANCH  25   8
ATOM      8  N   UNL     1      14.894  13.421  13.110  0.00  0.00    -0.332 N 
ATOM     26  C   UNL     1      14.204  13.682  11.888  0.00  0.00    +0.127 C 
ATOM     28  H   UNL     1      15.801  13.851  13.256  0.00  0.00    +0.147 HD
ENDBRANCH  25   8
ENDBRANCH  17  20
ENDBRANCH   9  14
BRANCH   4  13
ATOM     13  C   UNL     1      13.877   6.714  20.779  0.00  0.00    +0.159 C 
BRANCH  13  15
ATOM      2  O   UNL     1      16.182   6.153  20.226  0.00  0.00    -0.461 OA
ATOM     15  C   UNL     1      15.342   7.064  20.786  0.00  0.00    +0.119 A 
ATOM     16  C   UNL     1      16.048   8.147  21.254  0.00  0.00    +0.046 A 
ATOM     18  C   UNL     1      17.436   6.661  20.339  0.00  0.00    +0.131 A 
ATOM     19  C   UNL     1      17.408   7.885  20.964  0.00  0.00    +0.047 A 
BRANCH  18  21
ATOM     21  C   UNL     1      18.523   5.835  19.793  0.00  0.00    +0.230 C 
BRANCH  21   3
ATOM      3  O   UNL     1      18.123   5.248  18.552  0.00  0.00    -0.387 OA
ATOM     27  H   UNL     1      17.735   4.381  18.760  0.00  0.00    +0.210 HD
ENDBRANCH  21   3
ENDBRANCH  18  21
ENDBRANCH  13  15
ENDBRANCH   4  13
TORSDOF 7
ENDMDL
MODEL 4
REMARK VINA RESULT:      -6.3      2.869      7.919
REMARK  Name = 45783771
REMARK  8 active torsions:
REMARK  status: ('A' for Active; 'I' for Inactive)
REMARK    1  A    between atoms: O_3  and  C_21
REMARK    2  A    between atoms: N_4  and  C_13
REMARK    3  A    between atoms: N_8  and  C_25
REMARK    4  A    between atoms: N_8  and  C_26
REMARK    5  A    between atoms: C_9  and  C_14
REMARK    6  A    between atoms: C_13  and  C_15
REMARK    7  A    between atoms: C_17  and  C_20
REMARK    8  A    between atoms: C_18  and  C_21
REMARK                            x       y       z     vdW  Elec       q    Type
REMARK                         _______ _______ _______ _____ _____    ______ ____
ROOT
ATOM      4  N   UNL     1      11.974   8.623  19.785  0.00  0.00    -0.284 NA
ATOM      9  C   UNL     1      12.771   7.432  19.428  0.00  0.00    +0.146 C 
ATOM     10  C   UNL     1      12.642   7.319  17.897  0.00  0.00    +0.030 C 
ATOM     11  C   UNL     1      11.704   8.448  17.494  0.00  0.00    +0.017 C 
ATOM     12  C   UNL     1      10.934   8.744  18.764  0.00  0.00    +0.085 C 
ENDROOT
BRANCH   9  14
ATOM      1  O   UNL     1      14.560   8.684  20.528  0.00  0.00    -0.336 OA
ATOM      5  N   UNL     1      15.191   6.679  19.753  0.00  0.00    -0.190 NA
ATOM      6  N   UNL     1      15.917   8.551  20.848  0.00  0.00    -0.056 NA
ATOM     14  C   UNL     1      14.212   7.538  19.885  0.00  0.00    +0.245 A 
ATOM     17  C   UNL     1      16.216   7.344  20.358  0.00  0.00    +0.204 A 
BRANCH  17  20
ATOM      7  N   UNL     1      19.131   5.129  19.704  0.00  0.00    -0.240 NA
ATOM     20  C   UNL     1      17.528   6.775  20.459  0.00  0.00    +0.041 A 
ATOM     22  C   UNL     1      18.459   7.277  21.363  0.00  0.00    +0.016 A 
ATOM     23  C   UNL     1      17.911   5.710  19.659  0.00  0.00    +0.124 A 
ATOM     24  C   UNL     1      19.724   6.705  21.439  0.00  0.00    +0.044 A 
ATOM     25  C   UNL     1      20.008   5.643  20.595  0.00  0.00    +0.118 A 
BRANCH  25   8
ATOM      8  N   UNL     1      21.301   5.072  20.684  0.00  0.00    -0.332 N 
ATOM     26  C   UNL     1      21.563   3.867  21.401  0.00  0.00    +0.127 C 
ATOM     28  H   UNL     1      22.085   5.658  20.418  0.00  0.00    +0.147 HD
ENDBRANCH  25   8
ENDBRANCH  17  20
ENDBRANCH   9  14
BRANCH   4  13
ATOM     13  C   UNL     1      11.417   8.558  21.130  0.00  0.00    +0.159 C 
BRANCH  13  15
ATOM      2  O   UNL     1      11.176   9.899  23.148  0.00  0.00    -0.461 OA
ATOM     15  C   UNL     1      11.456   9.897  21.818  0.00  0.00    +0.119 A 
ATOM     16  C   UNL     1      11.723  11.173  21.379  0.00  0.00    +0.046 A 
ATOM     18  C   UNL     1      11.265  11.190  23.562  0.00  0.00    +0.131 A 
ATOM     19  C   UNL     1      11.599  12.012  22.512  0.00  0.00    +0.047 A 
BRANCH  18  21
ATOM     21  C   UNL     1      10.999  11.436  24.987  0.00  0.00    +0.230 C 
BRANCH  21   3
ATOM      3  O   UNL     1      12.218  11.738  25.672  0.00  0.00    -0.387 OA
ATOM     27  H   UNL     1      12.815  10.983  25.534  0.00  0.00    +0.210 HD
ENDBRANCH  21   3
ENDBRANCH  18  21
ENDBRANCH  13  15
ENDBRANCH   4  13
TORSDOF 7
ENDMDL
MODEL 5
REMARK VINA RESULT:      -6.3      3.267      7.201
REMARK  Name = 45783771
REMARK  8 active torsions:
REMARK  status: ('A' for Active; 'I' for Inactive)
REMARK    1  A    between atoms: O_3  and  C_21
REMARK    2  A    between atoms: N_4  and  C_13
REMARK    3  A    between atoms: N_8  and  C_25
REMARK    4  A    between atoms: N_8  and  C_26
REMARK    5  A    between atoms: C_9  and  C_14
REMARK    6  A    between atoms: C_13  and  C_15
REMARK    7  A    between atoms: C_17  and  C_20
REMARK    8  A    between atoms: C_18  and  C_21
REMARK                            x       y       z     vdW  Elec       q    Type
REMARK                         _______ _______ _______ _____ _____    ______ ____
ROOT
ATOM      4  N   UNL     1      12.763   8.649  19.565  0.00  0.00    -0.284 NA
ATOM      9  C   UNL     1      13.521   8.356  20.799  0.00  0.00    +0.146 C 
ATOM     10  C   UNL     1      12.529   7.591  21.695  0.00  0.00    +0.030 C 
ATOM     11  C   UNL     1      11.227   7.558  20.908  0.00  0.00    +0.017 C 
ATOM     12  C   UNL     1      11.356   8.729  19.955  0.00  0.00    +0.085 C 
ENDROOT
BRANCH   9  14
ATOM      1  O   UNL     1      14.723   6.631  19.553  0.00  0.00    -0.336 OA
ATOM      5  N   UNL     1      15.961   7.665  21.106  0.00  0.00    -0.190 NA
ATOM      6  N   UNL     1      15.995   6.048  19.489  0.00  0.00    -0.056 NA
ATOM     14  C   UNL     1      14.789   7.573  20.530  0.00  0.00    +0.245 A 
ATOM     17  C   UNL     1      16.667   6.711  20.436  0.00  0.00    +0.204 A 
BRANCH  17  20
ATOM      7  N   UNL     1      20.061   5.202  20.244  0.00  0.00    -0.240 NA
ATOM     20  C   UNL     1      18.044   6.444  20.733  0.00  0.00    +0.041 A 
ATOM     22  C   UNL     1      18.703   7.124  21.753  0.00  0.00    +0.016 A 
ATOM     23  C   UNL     1      18.762   5.502  20.014  0.00  0.00    +0.124 A 
ATOM     24  C   UNL     1      20.038   6.844  22.018  0.00  0.00    +0.044 A 
ATOM     25  C   UNL     1      20.667   5.884  21.242  0.00  0.00    +0.118 A 
BRANCH  25   8
ATOM      8  N   UNL     1      22.027   5.610  21.525  0.00  0.00    -0.332 N 
ATOM     26  C   UNL     1      22.851   6.499  22.278  0.00  0.00    +0.127 C 
ATOM     28  H   UNL     1      22.473   4.874  20.988  0.00  0.00    +0.147 HD
ENDBRANCH  25   8
ENDBRANCH  17  20
ENDBRANCH   9  14
BRANCH   4  13
ATOM     13  C   UNL     1      13.214   9.858  18.889  0.00  0.00    +0.159 C 
BRANCH  13  15
ATOM      2  O   UNL     1      14.187  10.630  16.794  0.00  0.00    -0.461 OA
ATOM     15  C   UNL     1      13.692   9.572  17.490  0.00  0.00    +0.119 A 
ATOM     16  C   UNL     1      13.739   8.428  16.727  0.00  0.00    +0.046 A 
ATOM     18  C   UNL     1      14.554  10.156  15.575  0.00  0.00    +0.131 A 
ATOM     19  C   UNL     1      14.299   8.808  15.484  0.00  0.00    +0.047 A 
BRANCH  18  21
ATOM     21  C   UNL     1      15.126  11.137  14.641  0.00  0.00    +0.230 C 
BRANCH  21   3
ATOM      3  O   UNL     1      15.579  10.483  13.454  0.00  0.00    -0.387 OA
ATOM     27  H   UNL     1      15.654   9.536  13.662  0.00  0.00    +0.210 HD
ENDBRANCH  21   3
ENDBRANCH  18  21
ENDBRANCH  13  15
ENDBRANCH   4  13
TORSDOF 7
ENDMDL
MODEL 6
REMARK VINA RESULT:      -6.3      2.522      7.003
REMARK  Name = 45783771
REMARK  8 active torsions:
REMARK  status: ('A' for Active; 'I' for Inactive)
REMARK    1  A    between atoms: O_3  and  C_21
REMARK    2  A    between atoms: N_4  and  C_13
REMARK    3  A    between atoms: N_8  and  C_25
REMARK    4  A    between atoms: N_8  and  C_26
REMARK    5  A    between atoms: C_9  and  C_14
REMARK    6  A    between atoms: C_13  and  C_15
REMARK    7  A    between atoms: C_17  and  C_20
REMARK    8  A    between atoms: C_18  and  C_21
REMARK                            x       y       z     vdW  Elec       q    Type
REMARK                         _______ _______ _______ _____ _____    ______ ____
ROOT
ATOM      4  N   UNL     1      12.076  10.675  23.033  0.00  0.00    -0.284 NA
ATOM      9  C   UNL     1      13.045  11.702  22.600  0.00  0.00    +0.146 C 
ATOM     10  C   UNL     1      13.423  12.452  23.891  0.00  0.00    +0.030 C 
ATOM     11  C   UNL     1      12.570  11.819  24.982  0.00  0.00    +0.017 C 
ATOM     12  C   UNL     1      11.411  11.209  24.220  0.00  0.00    +0.085 C 
ENDROOT
BRANCH   9  14
ATOM      1  O   UNL     1      14.953  11.945  21.092  0.00  0.00    -0.336 OA
ATOM      5  N   UNL     1      14.721   9.888  21.947  0.00  0.00    -0.190 NA
ATOM      6  N   UNL     1      16.001  11.181  20.561  0.00  0.00    -0.056 NA
ATOM     14  C   UNL     1      14.248  11.108  21.897  0.00  0.00    +0.245 A 
ATOM     17  C   UNL     1      15.795   9.981  21.112  0.00  0.00    +0.204 A 
BRANCH  17  20
ATOM      7  N   UNL     1      16.965   6.714  19.773  0.00  0.00    -0.240 NA
ATOM     20  C   UNL     1      16.645   8.856  20.849  0.00  0.00    +0.041 A 
ATOM     22  C   UNL     1      17.929   8.790  21.379  0.00  0.00    +0.016 A 
ATOM     23  C   UNL     1      16.215   7.802  20.059  0.00  0.00    +0.124 A 
ATOM     24  C   UNL     1      18.732   7.687  21.107  0.00  0.00    +0.044 A 
ATOM     25  C   UNL     1      18.207   6.685  20.306  0.00  0.00    +0.118 A 
BRANCH  25   8
ATOM      8  N   UNL     1      19.037   5.569  20.038  0.00  0.00    -0.332 N 
ATOM     26  C   UNL     1      20.302   5.381  20.669  0.00  0.00    +0.127 C 
ATOM     28  H   UNL     1      18.818   5.016  19.216  0.00  0.00    +0.147 HD
ENDBRANCH  25   8
ENDBRANCH  17  20
ENDBRANCH   9  14
BRANCH   4  13
ATOM     13  C   UNL     1      11.126  10.309  21.990  0.00  0.00    +0.159 C 
BRANCH  13  15
ATOM      2  O   UNL     1      12.016   8.679  20.415  0.00  0.00    -0.461 OA
ATOM     15  C   UNL     1      11.298   8.879  21.552  0.00  0.00    +0.119 A 
ATOM     16  C   UNL     1      10.869   7.678  22.069  0.00  0.00    +0.046 A 
ATOM     18  C   UNL     1      12.047   7.338  20.205  0.00  0.00    +0.131 A 
ATOM     19  C   UNL     1      11.356   6.678  21.194  0.00  0.00    +0.047 A 
BRANCH  18  21
ATOM     21  C   UNL     1      12.781   6.882  19.016  0.00  0.00    +0.230 C 
BRANCH  21   3
ATOM      3  O   UNL     1      11.928   6.908  17.868  0.00  0.00    -0.387 OA
ATOM     27  H   UNL     1      12.293   6.273  17.229  0.00  0.00    +0.210 HD
ENDBRANCH  21   3
ENDBRANCH  18  21
ENDBRANCH  13  15
ENDBRANCH   4  13
TORSDOF 7
ENDMDL
MODEL 7
REMARK VINA RESULT:      -6.3      5.171      8.357
REMARK  Name = 45783771
REMARK  8 active torsions:
REMARK  status: ('A' for Active; 'I' for Inactive)
REMARK    1  A    between atoms: O_3  and  C_21
REMARK    2  A    between atoms: N_4  and  C_13
REMARK    3  A    between atoms: N_8  and  C_25
REMARK    4  A    between atoms: N_8  and  C_26
REMARK    5  A    between atoms: C_9  and  C_14
REMARK    6  A    between atoms: C_13  and  C_15
REMARK    7  A    between atoms: C_17  and  C_20
REMARK    8  A    between atoms: C_18  and  C_21
REMARK                            x       y       z     vdW  Elec       q    Type
REMARK                         _______ _______ _______ _____ _____    ______ ____
ROOT
ATOM      4  N   UNL     1      20.155   6.142  20.624  0.00  0.00    -0.284 NA
ATOM      9  C   UNL     1      18.898   6.608  21.245  0.00  0.00    +0.146 C 
ATOM     10  C   UNL     1      19.199   8.047  21.703  0.00  0.00    +0.030 C 
ATOM     11  C   UNL     1      20.663   8.277  21.356  0.00  0.00    +0.017 C 
ATOM     12  C   UNL     1      21.237   6.877  21.279  0.00  0.00    +0.085 C 
ENDROOT
BRANCH   9  14
ATOM      1  O   UNL     1      17.830   5.658  19.262  0.00  0.00    -0.336 OA
ATOM      5  N   UNL     1      16.588   7.191  20.323  0.00  0.00    -0.190 NA
ATOM      6  N   UNL     1      16.636   5.764  18.536  0.00  0.00    -0.056 NA
ATOM     14  C   UNL     1      17.719   6.531  20.298  0.00  0.00    +0.245 A 
ATOM     17  C   UNL     1      15.958   6.687  19.225  0.00  0.00    +0.204 A 
BRANCH  17  20
ATOM      7  N   UNL     1      12.283   7.249  19.330  0.00  0.00    -0.240 NA
ATOM     20  C   UNL     1      14.647   7.126  18.840  0.00  0.00    +0.041 A 
ATOM     22  C   UNL     1      14.445   7.828  17.656  0.00  0.00    +0.016 A 
ATOM     23  C   UNL     1      13.543   6.864  19.635  0.00  0.00    +0.124 A 
ATOM     24  C   UNL     1      13.164   8.241  17.309  0.00  0.00    +0.044 A 
ATOM     25  C   UNL     1      12.126   7.929  18.173  0.00  0.00    +0.118 A 
BRANCH  25   8
ATOM      8  N   UNL     1      10.826   8.357  17.805  0.00  0.00    -0.332 N 
ATOM     26  C   UNL     1      10.448   8.591  16.449  0.00  0.00    +0.127 C 
ATOM     28  H   UNL     1      10.231   8.714  18.544  0.00  0.00    +0.147 HD
ENDBRANCH  25   8
ENDBRANCH  17  20
ENDBRANCH   9  14
BRANCH   4  13
ATOM     13  C   UNL     1      20.339   4.699  20.715  0.00  0.00    +0.159 C 
BRANCH  13  15
ATOM      2  O   UNL     1      22.646   4.080  20.240  0.00  0.00    -0.461 OA
ATOM     15  C   UNL     1      21.719   4.339  21.200  0.00  0.00    +0.119 A 
ATOM     16  C   UNL     1      22.271   4.208  22.453  0.00  0.00    +0.046 A 
ATOM     18  C   UNL     1      23.802   3.781  20.888  0.00  0.00    +0.131 A 
ATOM     19  C   UNL     1      23.624   3.846  22.250  0.00  0.00    +0.047 A 
BRANCH  18  21
ATOM     21  C   UNL     1      24.960   3.464  20.039  0.00  0.00    +0.230 C 
BRANCH  21   3
ATOM      3  O   UNL     1      24.521   2.975  18.769  0.00  0.00    -0.387 OA
ATOM     27  H   UNL     1      24.188   2.072  18.912  0.00  0.00    +0.210 HD
ENDBRANCH  21   3
ENDBRANCH  18  21
ENDBRANCH  13  15
ENDBRANCH   4  13
TORSDOF 7
ENDMDL
MODEL 8
REMARK VINA RESULT:      -6.2     25.975     27.635
REMARK  Name = 45783771
REMARK  8 active torsions:
REMARK  status: ('A' for Active; 'I' for Inactive)
REMARK    1  A    between atoms: O_3  and  C_21
REMARK    2  A    between atoms: N_4  and  C_13
REMARK    3  A    between atoms: N_8  and  C_25
REMARK    4  A    between atoms: N_8  and  C_26
REMARK    5  A    between atoms: C_9  and  C_14
REMARK    6  A    between atoms: C_13  and  C_15
REMARK    7  A    between atoms: C_17  and  C_20
REMARK    8  A    between atoms: C_18  and  C_21
REMARK                            x       y       z     vdW  Elec       q    Type
REMARK                         _______ _______ _______ _____ _____    ______ ____
ROOT
ATOM      4  N   UNL     1      -3.401 -10.873  14.502  0.00  0.00    -0.284 NA
ATOM      9  C   UNL     1      -3.750 -11.349  15.856  0.00  0.00    +0.146 C 
ATOM     10  C   UNL     1      -2.556 -10.931  16.736  0.00  0.00    +0.030 C 
ATOM     11  C   UNL     1      -1.564 -10.286  15.779  0.00  0.00    +0.017 C 
ATOM     12  C   UNL     1      -1.941 -10.863  14.430  0.00  0.00    +0.085 C 
ENDROOT
BRANCH   9  14
ATOM      1  O   UNL     1      -5.463  -9.606  15.802  0.00  0.00    -0.336 OA
ATOM      5  N   UNL     1      -5.893 -11.266  17.244  0.00  0.00    -0.190 NA
ATOM      6  N   UNL     1      -6.686  -9.290  16.408  0.00  0.00    -0.056 NA
ATOM     14  C   UNL     1      -5.065 -10.785  16.351  0.00  0.00    +0.245 A 
ATOM     17  C   UNL     1      -6.871 -10.316  17.245  0.00  0.00    +0.204 A 
BRANCH  17  20
ATOM      7  N   UNL     1      -9.032 -11.292  20.110  0.00  0.00    -0.240 NA
ATOM     20  C   UNL     1      -8.022 -10.420  18.093  0.00  0.00    +0.041 A 
ATOM     22  C   UNL     1      -9.216  -9.786  17.762  0.00  0.00    +0.016 A 
ATOM     23  C   UNL     1      -7.983 -11.154  19.267  0.00  0.00    +0.124 A 
ATOM     24  C   UNL     1     -10.316  -9.904  18.603  0.00  0.00    +0.044 A 
ATOM     25  C   UNL     1     -10.174 -10.662  19.756  0.00  0.00    +0.118 A 
BRANCH  25   8
ATOM      8  N   UNL     1     -11.303 -10.772  20.602  0.00  0.00    -0.332 N 
ATOM     26  C   UNL     1     -12.450  -9.933  20.470  0.00  0.00    +0.127 C 
ATOM     28  H   UNL     1     -11.192 -11.310  21.454  0.00  0.00    +0.147 HD
ENDBRANCH  25   8
ENDBRANCH  17  20
ENDBRANCH   9  14
BRANCH   4  13
ATOM     13  C   UNL     1      -3.998 -11.675  13.442  0.00  0.00    +0.159 C 
BRANCH  13  15
ATOM      2  O   UNL     1      -4.624  -9.822  11.991  0.00  0.00    -0.461 OA
ATOM     15  C   UNL     1      -3.925 -10.983  12.106  0.00  0.00    +0.119 A 
ATOM     16  C   UNL     1      -3.282 -11.279  10.927  0.00  0.00    +0.046 A 
ATOM     18  C   UNL     1      -4.423  -9.373  10.724  0.00  0.00    +0.131 A 
ATOM     19  C   UNL     1      -3.605 -10.233  10.030  0.00  0.00    +0.047 A 
BRANCH  18  21
ATOM     21  C   UNL     1      -5.092  -8.113  10.368  0.00  0.00    +0.230 C 
BRANCH  21   3
ATOM      3  O   UNL     1      -5.312  -8.052   8.957  0.00  0.00    -0.387 OA
ATOM     27  H   UNL     1      -6.257  -8.231   8.810  0.00  0.00    +0.210 HD
ENDBRANCH  21   3
ENDBRANCH  18  21
ENDBRANCH  13  15
ENDBRANCH   4  13
TORSDOF 7
ENDMDL
MODEL 9
REMARK VINA RESULT:      -6.1     15.706     19.862
REMARK  Name = 45783771
REMARK  8 active torsions:
REMARK  status: ('A' for Active; 'I' for Inactive)
REMARK    1  A    between atoms: O_3  and  C_21
REMARK    2  A    between atoms: N_4  and  C_13
REMARK    3  A    between atoms: N_8  and  C_25
REMARK    4  A    between atoms: N_8  and  C_26
REMARK    5  A    between atoms: C_9  and  C_14
REMARK    6  A    between atoms: C_13  and  C_15
REMARK    7  A    between atoms: C_17  and  C_20
REMARK    8  A    between atoms: C_18  and  C_21
REMARK                            x       y       z     vdW  Elec       q    Type
REMARK                         _______ _______ _______ _____ _____    ______ ____
ROOT
ATOM      4  N   UNL     1      13.367   6.988   4.200  0.00  0.00    -0.284 NA
ATOM      9  C   UNL     1      13.950   7.217   2.862  0.00  0.00    +0.146 C 
ATOM     10  C   UNL     1      15.448   7.462   3.126  0.00  0.00    +0.030 C 
ATOM     11  C   UNL     1      15.597   7.415   4.640  0.00  0.00    +0.017 C 
ATOM     12  C   UNL     1      14.203   7.724   5.147  0.00  0.00    +0.085 C 
ENDROOT
BRANCH   9  14
ATOM      1  O   UNL     1      14.633   5.065   1.925  0.00  0.00    -0.336 OA
ATOM      5  N   UNL     1      12.724   5.868   1.073  0.00  0.00    -0.190 NA
ATOM      6  N   UNL     1      14.199   4.123   0.982  0.00  0.00    -0.056 NA
ATOM     14  C   UNL     1      13.707   6.060   1.915  0.00  0.00    +0.245 A 
ATOM     17  C   UNL     1      13.069   4.669   0.524  0.00  0.00    +0.204 A 
BRANCH  17  20
ATOM      7  N   UNL     1      10.176   3.951  -1.701  0.00  0.00    -0.240 NA
ATOM     20  C   UNL     1      12.262   4.040  -0.481  0.00  0.00    +0.041 A 
ATOM     22  C   UNL     1      12.737   2.948  -1.201  0.00  0.00    +0.016 A 
ATOM     23  C   UNL     1      10.987   4.499  -0.767  0.00  0.00    +0.124 A 
ATOM     24  C   UNL     1      11.933   2.357  -2.169  0.00  0.00    +0.044 A 
ATOM     25  C   UNL     1      10.671   2.892  -2.380  0.00  0.00    +0.118 A 
BRANCH  25   8
ATOM      8  N   UNL     1       9.865   2.280  -3.370  0.00  0.00    -0.332 N 
ATOM     26  C   UNL     1       9.777   2.774  -4.705  0.00  0.00    +0.127 C 
ATOM     28  H   UNL     1       9.169   1.614  -3.053  0.00  0.00    +0.147 HD
ENDBRANCH  25   8
ENDBRANCH  17  20
ENDBRANCH   9  14
BRANCH   4  13
ATOM     13  C   UNL     1      11.965   7.378   4.287  0.00  0.00    +0.159 C 
BRANCH  13  15
ATOM      2  O   UNL     1      10.918   6.268   6.185  0.00  0.00    -0.461 OA
ATOM     15  C   UNL     1      11.108   6.270   4.839  0.00  0.00    +0.119 A 
ATOM     16  C   UNL     1      10.448   5.213   4.256  0.00  0.00    +0.046 A 
ATOM     18  C   UNL     1      10.128   5.199   6.463  0.00  0.00    +0.131 A 
ATOM     19  C   UNL     1       9.811   4.518   5.312  0.00  0.00    +0.047 A 
BRANCH  18  21
ATOM     21  C   UNL     1       9.784   4.995   7.879  0.00  0.00    +0.230 C 
BRANCH  21   3
ATOM      3  O   UNL     1      10.450   3.836   8.387  0.00  0.00    -0.387 OA
ATOM     27  H   UNL     1      11.343   4.115   8.653  0.00  0.00    +0.210 HD
ENDBRANCH  21   3
ENDBRANCH  18  21
ENDBRANCH  13  15
ENDBRANCH   4  13
TORSDOF 7
ENDMDL
MODEL 10
REMARK VINA RESULT:      -6.0      3.928      8.123
REMARK  Name = 45783771
REMARK  8 active torsions:
REMARK  status: ('A' for Active; 'I' for Inactive)
REMARK    1  A    between atoms: O_3  and  C_21
REMARK    2  A    between atoms: N_4  and  C_13
REMARK    3  A    between atoms: N_8  and  C_25
REMARK    4  A    between atoms: N_8  and  C_26
REMARK    5  A    between atoms: C_9  and  C_14
REMARK    6  A    between atoms: C_13  and  C_15
REMARK    7  A    between atoms: C_17  and  C_20
REMARK    8  A    between atoms: C_18  and  C_21
REMARK                            x       y       z     vdW  Elec       q    Type
REMARK                         _______ _______ _______ _____ _____    ______ ____
ROOT
ATOM      4  N   UNL     1      15.001   8.666  21.938  0.00  0.00    -0.284 NA
ATOM      9  C   UNL     1      15.718   8.753  20.649  0.00  0.00    +0.146 C 
ATOM     10  C   UNL     1      16.214  10.209  20.576  0.00  0.00    +0.030 C 
ATOM     11  C   UNL     1      15.674  10.877  21.833  0.00  0.00    +0.017 C 
ATOM     12  C   UNL     1      14.495  10.008  22.220  0.00  0.00    +0.085 C 
ENDROOT
BRANCH   9  14
ATOM      1  O   UNL     1      16.807   6.908  19.472  0.00  0.00    -0.336 OA
ATOM      5  N   UNL     1      17.869   7.557  21.335  0.00  0.00    -0.190 NA
ATOM      6  N   UNL     1      17.934   6.083  19.588  0.00  0.00    -0.056 NA
ATOM     14  C   UNL     1      16.845   7.747  20.541  0.00  0.00    +0.245 A 
ATOM     17  C   UNL     1      18.507   6.527  20.710  0.00  0.00    +0.204 A 
BRANCH  17  20
ATOM      7  N   UNL     1      21.304   5.793  23.048  0.00  0.00    -0.240 NA
ATOM     20  C   UNL     1      19.718   5.964  21.231  0.00  0.00    +0.041 A 
ATOM     22  C   UNL     1      20.476   5.072  20.478  0.00  0.00    +0.016 A 
ATOM     23  C   UNL     1      20.172   6.288  22.499  0.00  0.00    +0.124 A 
ATOM     24  C   UNL     1      21.646   4.541  21.008  0.00  0.00    +0.044 A 
ATOM     25  C   UNL     1      22.013   4.930  22.287  0.00  0.00    +0.118 A 
BRANCH  25   8
ATOM      8  N   UNL     1      23.208   4.381  22.814  0.00  0.00    -0.332 N 
ATOM     26  C   UNL     1      24.250   3.868  21.985  0.00  0.00    +0.127 C 
ATOM     28  H   UNL     1      23.214   4.148  23.801  0.00  0.00    +0.147 HD
ENDBRANCH  25   8
ENDBRANCH  17  20
ENDBRANCH   9  14
BRANCH   4  13
ATOM     13  C   UNL     1      13.939   7.668  21.936  0.00  0.00    +0.159 C 
BRANCH  13  15
ATOM      2  O   UNL     1      13.057   8.014  19.692  0.00  0.00    -0.461 OA
ATOM     15  C   UNL     1      12.804   8.060  21.027  0.00  0.00    +0.119 A 
ATOM     16  C   UNL     1      11.512   8.473  21.259  0.00  0.00    +0.046 A 
ATOM     18  C   UNL     1      11.915   8.401  19.067  0.00  0.00    +0.131 A 
ATOM     19  C   UNL     1      10.935   8.694  19.986  0.00  0.00    +0.047 A 
BRANCH  18  21
ATOM     21  C   UNL     1      11.955   8.427  17.597  0.00  0.00    +0.230 C 
BRANCH  21   3
ATOM      3  O   UNL     1      11.347   7.247  17.065  0.00  0.00    -0.387 OA
ATOM     27  H   UNL     1      11.586   7.204  16.124  0.00  0.00    +0.210 HD
ENDBRANCH  21   3
ENDBRANCH  18  21
ENDBRANCH  13  15
ENDBRANCH   4  13
TORSDOF 7
ENDMDL
