MODEL 1
REMARK VINA RESULT:      -6.2      0.000      0.000
REMARK  Name = 11883291
REMARK  7 active torsions:
REMARK  status: ('A' for Active; 'I' for Inactive)
REMARK    1  A    between atoms: S_1  and  N_8
REMARK    2  A    between atoms: S_1  and  C_18
REMARK    3  A    between atoms: O_4  and  C_14
REMARK    4  A    between atoms: O_4  and  C_17
REMARK    5  A    between atoms: N_8  and  C_13
REMARK    6  A    between atoms: C_17  and  C_19
REMARK    7  A    between atoms: C_20  and  C_25
REMARK                            x       y       z     vdW  Elec       q    Type
REMARK                         _______ _______ _______ _____ _____    ______ ____
ROOT
ATOM      2  O   UNL     1      10.790   5.391   5.784  0.00  0.00    -0.370 OA
ATOM      3  O   UNL     1       8.216   6.943   5.169  0.00  0.00    -0.370 OA
ATOM     11  C   UNL     1       9.515   6.958   4.541  0.00  0.00    +0.170 C 
ATOM     12  C   UNL     1      10.539   6.801   5.646  0.00  0.00    +0.179 C 
ATOM     13  C   UNL     1       9.699   5.720   3.696  0.00  0.00    +0.133 C 
ATOM     14  C   UNL     1       9.813   7.359   6.846  0.00  0.00    +0.176 C 
ATOM     15  C   UNL     1      10.119   4.687   4.728  0.00  0.00    +0.183 C 
ATOM     16  C   UNL     1       8.390   6.916   6.593  0.00  0.00    +0.194 C 
ENDROOT
BRANCH  13   8
ATOM      8  N   UNL     1      10.724   5.912   2.700  0.00  0.00    -0.182 NA
ATOM     26  H   UNL     1      11.406   6.667   2.841  0.00  0.00    +0.148 HD
BRANCH   8   1
ATOM      1  S   UNL     1      10.575   5.171   1.179  0.00  0.00    +0.060 S 
ATOM      5  O   UNL     1      10.197   6.165   0.192  0.00  0.00    -0.153 OA
ATOM      6  O   UNL     1       9.797   3.955   1.326  0.00  0.00    -0.153 OA
BRANCH   1  18
ATOM     18  C   UNL     1      12.241   4.680   0.847  0.00  0.00    +0.123 A 
ATOM     20  C   UNL     1      12.567   3.960  -0.293  0.00  0.00    +0.078 A 
ATOM     21  C   UNL     1      13.214   5.038   1.769  0.00  0.00    +0.030 A 
ATOM     22  C   UNL     1      13.893   3.591  -0.517  0.00  0.00    +0.021 A 
ATOM     23  C   UNL     1      14.540   4.669   1.546  0.00  0.00    +0.002 A 
ATOM     24  C   UNL     1      14.880   3.946   0.403  0.00  0.00    +0.001 A 
BRANCH  20  25
ATOM     10  N   UNL     1      10.780   3.268  -2.038  0.00  0.00    -0.191 NA
ATOM     25  C   UNL     1      11.579   3.578  -1.258  0.00  0.00    +0.101 C 
ENDBRANCH  20  25
ENDBRANCH   1  18
ENDBRANCH   8   1
ENDBRANCH  13   8
BRANCH  14   4
ATOM      4  O   UNL     1      10.308   6.880   8.076  0.00  0.00    -0.362 OA
BRANCH   4  17
ATOM     17  C   UNL     1       9.319   6.155   8.804  0.00  0.00    +0.255 C 
BRANCH  17  19
ATOM      7  O   UNL     1      10.168   4.703  10.540  0.00  0.00    -0.274 OA
ATOM      9  N   UNL     1      10.168   3.953   8.364  0.00  0.00    -0.327 N 
ATOM     19  C   UNL     1       9.924   4.884   9.350  0.00  0.00    +0.236 C 
ATOM     27  H   UNL     1      10.573   3.051   8.588  0.00  0.00    +0.145 HD
ATOM     28  H   UNL     1       9.956   4.129   7.387  0.00  0.00    +0.145 HD
ENDBRANCH  17  19
ENDBRANCH   4  17
ENDBRANCH  14   4
TORSDOF 7
ENDMDL
MODEL 2
REMARK VINA RESULT:      -5.9     11.849     16.535
REMARK  Name = 11883291
REMARK  7 active torsions:
REMARK  status: ('A' for Active; 'I' for Inactive)
REMARK    1  A    between atoms: S_1  and  N_8
REMARK    2  A    between atoms: S_1  and  C_18
REMARK    3  A    between atoms: O_4  and  C_14
REMARK    4  A    between atoms: O_4  and  C_17
REMARK    5  A    between atoms: N_8  and  C_13
REMARK    6  A    between atoms: C_17  and  C_19
REMARK    7  A    between atoms: C_20  and  C_25
REMARK                            x       y       z     vdW  Elec       q    Type
REMARK                         _______ _______ _______ _____ _____    ______ ____
ROOT
ATOM      2  O   UNL     1      13.367   9.869  15.040  0.00  0.00    -0.370 OA
ATOM      3  O   UNL     1      15.831  11.241  16.244  0.00  0.00    -0.370 OA
ATOM     11  C   UNL     1      14.463  11.166  16.695  0.00  0.00    +0.170 C 
ATOM     12  C   UNL     1      13.588  11.227  15.460  0.00  0.00    +0.179 C 
ATOM     13  C   UNL     1      14.181   9.799  17.273  0.00  0.00    +0.133 C 
ATOM     14  C   UNL     1      14.458  11.979  14.481  0.00  0.00    +0.176 C 
ATOM     15  C   UNL     1      13.902   8.975  16.027  0.00  0.00    +0.183 C 
ATOM     16  C   UNL     1      15.840  11.474  14.828  0.00  0.00    +0.194 C 
ENDROOT
BRANCH  13   8
ATOM      8  N   UNL     1      13.036   9.826  18.150  0.00  0.00    -0.182 NA
ATOM     26  H   UNL     1      12.636  10.738  18.401  0.00  0.00    +0.148 HD
BRANCH   8   1
ATOM      1  S   UNL     1      12.610   8.436  19.027  0.00  0.00    +0.060 S 
ATOM      5  O   UNL     1      13.809   7.697  19.373  0.00  0.00    -0.153 OA
ATOM      6  O   UNL     1      11.514   7.772  18.348  0.00  0.00    -0.153 OA
BRANCH   1  18
ATOM     18  C   UNL     1      11.950   9.130  20.514  0.00  0.00    +0.123 A 
ATOM     20  C   UNL     1      11.357   8.331  21.480  0.00  0.00    +0.078 A 
ATOM     21  C   UNL     1      12.045  10.504  20.680  0.00  0.00    +0.030 A 
ATOM     22  C   UNL     1      10.848   8.919  22.639  0.00  0.00    +0.021 A 
ATOM     23  C   UNL     1      11.535  11.092  21.838  0.00  0.00    +0.002 A 
ATOM     24  C   UNL     1      10.937  10.300  22.817  0.00  0.00    +0.001 A 
BRANCH  20  25
ATOM     10  N   UNL     1      11.158   5.762  21.209  0.00  0.00    -0.191 NA
ATOM     25  C   UNL     1      11.247   6.912  21.330  0.00  0.00    +0.101 C 
ENDBRANCH  20  25
ENDBRANCH   1  18
ENDBRANCH   8   1
ENDBRANCH  13   8
BRANCH  14   4
ATOM      4  O   UNL     1      14.127  11.737  13.132  0.00  0.00    -0.362 OA
BRANCH   4  17
ATOM     17  C   UNL     1      13.293  12.761  12.595  0.00  0.00    +0.255 C 
BRANCH  17  19
ATOM      7  O   UNL     1      11.769  11.730  11.028  0.00  0.00    -0.274 OA
ATOM      9  N   UNL     1      11.041  12.159  13.169  0.00  0.00    -0.327 N 
ATOM     19  C   UNL     1      11.977  12.164  12.158  0.00  0.00    +0.236 C 
ATOM     27  H   UNL     1      10.110  11.786  13.016  0.00  0.00    +0.145 HD
ATOM     28  H   UNL     1      11.240  12.525  14.095  0.00  0.00    +0.145 HD
ENDBRANCH  17  19
ENDBRANCH   4  17
ENDBRANCH  14   4
TORSDOF 7
ENDMDL
MODEL 3
REMARK VINA RESULT:      -5.8     16.378     18.930
REMARK  Name = 11883291
REMARK  7 active torsions:
REMARK  status: ('A' for Active; 'I' for Inactive)
REMARK    1  A    between atoms: S_1  and  N_8
REMARK    2  A    between atoms: S_1  and  C_18
REMARK    3  A    between atoms: O_4  and  C_14
REMARK    4  A    between atoms: O_4  and  C_17
REMARK    5  A    between atoms: N_8  and  C_13
REMARK    6  A    between atoms: C_17  and  C_19
REMARK    7  A    between atoms: C_20  and  C_25
REMARK                            x       y       z     vdW  Elec       q    Type
REMARK                         _______ _______ _______ _____ _____    ______ ____
ROOT
ATOM      2  O   UNL     1      16.204   8.314  20.917  0.00  0.00    -0.370 OA
ATOM      3  O   UNL     1      16.605   6.103  18.830  0.00  0.00    -0.370 OA
ATOM     11  C   UNL     1      15.505   6.392  19.717  0.00  0.00    +0.170 C 
ATOM     12  C   UNL     1      16.106   6.883  21.018  0.00  0.00    +0.179 C 
ATOM     13  C   UNL     1      14.724   7.580  19.206  0.00  0.00    +0.133 C 
ATOM     14  C   UNL     1      17.466   6.229  21.016  0.00  0.00    +0.176 C 
ATOM     15  C   UNL     1      15.549   8.750  19.716  0.00  0.00    +0.183 C 
ATOM     16  C   UNL     1      17.835   6.264  19.551  0.00  0.00    +0.194 C 
ENDROOT
BRANCH  13   8
ATOM      8  N   UNL     1      13.389   7.604  19.752  0.00  0.00    -0.182 NA
ATOM     26  H   UNL     1      13.062   6.784  20.276  0.00  0.00    +0.148 HD
BRANCH   8   1
ATOM      1  S   UNL     1      12.280   8.776  19.223  0.00  0.00    +0.060 S 
ATOM      5  O   UNL     1      11.147   8.122  18.597  0.00  0.00    -0.153 OA
ATOM      6  O   UNL     1      13.002   9.818  18.518  0.00  0.00    -0.153 OA
BRANCH   1  18
ATOM     18  C   UNL     1      11.730   9.474  20.752  0.00  0.00    +0.123 A 
ATOM     20  C   UNL     1      11.182   8.682  21.750  0.00  0.00    +0.078 A 
ATOM     21  C   UNL     1      11.864  10.845  20.918  0.00  0.00    +0.030 A 
ATOM     22  C   UNL     1      10.759   9.273  22.941  0.00  0.00    +0.021 A 
ATOM     23  C   UNL     1      11.441  11.436  22.109  0.00  0.00    +0.002 A 
ATOM     24  C   UNL     1      10.888  10.650  23.120  0.00  0.00    +0.001 A 
BRANCH  20  25
ATOM     10  N   UNL     1      10.912   6.119  21.476  0.00  0.00    -0.191 NA
ATOM     25  C   UNL     1      11.032   7.266  21.599  0.00  0.00    +0.101 C 
ENDBRANCH  20  25
ENDBRANCH   1  18
ENDBRANCH   8   1
ENDBRANCH  13   8
BRANCH  14   4
ATOM      4  O   UNL     1      18.413   6.897  21.819  0.00  0.00    -0.362 OA
BRANCH   4  17
ATOM     17  C   UNL     1      19.751   6.607  21.421  0.00  0.00    +0.255 C 
BRANCH  17  19
ATOM      7  O   UNL     1      20.275   6.255  23.754  0.00  0.00    -0.274 OA
ATOM      9  N   UNL     1      21.930   7.010  22.345  0.00  0.00    -0.327 N 
ATOM     19  C   UNL     1      20.648   6.596  22.636  0.00  0.00    +0.236 C 
ATOM     27  H   UNL     1      22.641   7.052  23.067  0.00  0.00    +0.145 HD
ATOM     28  H   UNL     1      22.212   7.286  21.409  0.00  0.00    +0.145 HD
ENDBRANCH  17  19
ENDBRANCH   4  17
ENDBRANCH  14   4
TORSDOF 7
ENDMDL
MODEL 4
REMARK VINA RESULT:      -5.6      2.026      2.599
REMARK  Name = 11883291
REMARK  7 active torsions:
REMARK  status: ('A' for Active; 'I' for Inactive)
REMARK    1  A    between atoms: S_1  and  N_8
REMARK    2  A    between atoms: S_1  and  C_18
REMARK    3  A    between atoms: O_4  and  C_14
REMARK    4  A    between atoms: O_4  and  C_17
REMARK    5  A    between atoms: N_8  and  C_13
REMARK    6  A    between atoms: C_17  and  C_19
REMARK    7  A    between atoms: C_20  and  C_25
REMARK                            x       y       z     vdW  Elec       q    Type
REMARK                         _______ _______ _______ _____ _____    ______ ____
ROOT
ATOM      2  O   UNL     1      10.355   4.690   5.370  0.00  0.00    -0.370 OA
ATOM      3  O   UNL     1       9.175   7.270   4.204  0.00  0.00    -0.370 OA
ATOM     11  C   UNL     1      10.540   6.839   4.386  0.00  0.00    +0.170 C 
ATOM     12  C   UNL     1      10.590   6.072   5.691  0.00  0.00    +0.179 C 
ATOM     13  C   UNL     1      10.903   5.807   3.343  0.00  0.00    +0.133 C 
ATOM     14  C   UNL     1       9.438   6.668   6.464  0.00  0.00    +0.176 C 
ATOM     15  C   UNL     1      10.334   4.532   3.943  0.00  0.00    +0.183 C 
ATOM     16  C   UNL     1       8.421   6.925   5.375  0.00  0.00    +0.194 C 
ENDROOT
BRANCH  13   8
ATOM      8  N   UNL     1      12.332   5.715   3.173  0.00  0.00    -0.182 NA
ATOM     26  H   UNL     1      12.905   5.460   3.986  0.00  0.00    +0.148 HD
BRANCH   8   1
ATOM      1  S   UNL     1      13.062   6.369   1.786  0.00  0.00    +0.060 S 
ATOM      5  O   UNL     1      14.504   6.277   1.910  0.00  0.00    -0.153 OA
ATOM      6  O   UNL     1      12.435   7.642   1.484  0.00  0.00    -0.153 OA
BRANCH   1  18
ATOM     18  C   UNL     1      12.549   5.232   0.532  0.00  0.00    +0.123 A 
ATOM     20  C   UNL     1      13.144   3.986   0.403  0.00  0.00    +0.078 A 
ATOM     21  C   UNL     1      11.530   5.631  -0.320  0.00  0.00    +0.030 A 
ATOM     22  C   UNL     1      12.711   3.119  -0.601  0.00  0.00    +0.021 A 
ATOM     23  C   UNL     1      11.096   4.764  -1.323  0.00  0.00    +0.002 A 
ATOM     24  C   UNL     1      11.687   3.509  -1.464  0.00  0.00    +0.001 A 
BRANCH  20  25
ATOM     10  N   UNL     1      15.053   3.203   1.972  0.00  0.00    -0.191 NA
ATOM     25  C   UNL     1      14.199   3.554   1.270  0.00  0.00    +0.101 C 
ENDBRANCH  20  25
ENDBRANCH   1  18
ENDBRANCH   8   1
ENDBRANCH  13   8
BRANCH  14   4
ATOM      4  O   UNL     1       8.936   5.819   7.471  0.00  0.00    -0.362 OA
BRANCH   4  17
ATOM     17  C   UNL     1       9.736   5.857   8.650  0.00  0.00    +0.255 C 
BRANCH  17  19
ATOM      7  O   UNL     1       9.313   3.483   8.817  0.00  0.00    -0.274 OA
ATOM      9  N   UNL     1       9.976   4.629  10.699  0.00  0.00    -0.327 N 
ATOM     19  C   UNL     1       9.645   4.530   9.366  0.00  0.00    +0.236 C 
ATOM     27  H   UNL     1       9.959   3.815  11.303  0.00  0.00    +0.145 HD
ATOM     28  H   UNL     1      10.247   5.509  11.127  0.00  0.00    +0.145 HD
ENDBRANCH  17  19
ENDBRANCH   4  17
ENDBRANCH  14   4
TORSDOF 7
ENDMDL
MODEL 5
REMARK VINA RESULT:      -5.6     30.416     33.518
REMARK  Name = 11883291
REMARK  7 active torsions:
REMARK  status: ('A' for Active; 'I' for Inactive)
REMARK    1  A    between atoms: S_1  and  N_8
REMARK    2  A    between atoms: S_1  and  C_18
REMARK    3  A    between atoms: O_4  and  C_14
REMARK    4  A    between atoms: O_4  and  C_17
REMARK    5  A    between atoms: N_8  and  C_13
REMARK    6  A    between atoms: C_17  and  C_19
REMARK    7  A    between atoms: C_20  and  C_25
REMARK                            x       y       z     vdW  Elec       q    Type
REMARK                         _______ _______ _______ _____ _____    ______ ____
ROOT
ATOM      2  O   UNL     1     -16.350   1.956  25.034  0.00  0.00    -0.370 OA
ATOM      3  O   UNL     1     -17.792   4.497  25.966  0.00  0.00    -0.370 OA
ATOM     11  C   UNL     1     -16.667   4.306  25.085  0.00  0.00    +0.170 C 
ATOM     12  C   UNL     1     -15.855   3.158  25.650  0.00  0.00    +0.179 C 
ATOM     13  C   UNL     1     -17.137   3.792  23.744  0.00  0.00    +0.133 C 
ATOM     14  C   UNL     1     -16.194   3.212  27.120  0.00  0.00    +0.176 C 
ATOM     15  C   UNL     1     -17.290   2.303  24.007  0.00  0.00    +0.183 C 
ATOM     16  C   UNL     1     -17.648   3.627  27.098  0.00  0.00    +0.194 C 
ENDROOT
BRANCH  13   8
ATOM      8  N   UNL     1     -16.160   4.045  22.713  0.00  0.00    -0.182 NA
ATOM     26  H   UNL     1     -15.230   3.622  22.809  0.00  0.00    +0.148 HD
BRANCH   8   1
ATOM      1  S   UNL     1     -16.419   5.293  21.592  0.00  0.00    +0.060 S 
ATOM      5  O   UNL     1     -17.178   6.358  22.220  0.00  0.00    -0.153 OA
ATOM      6  O   UNL     1     -16.874   4.713  20.342  0.00  0.00    -0.153 OA
BRANCH   1  18
ATOM     18  C   UNL     1     -14.775   5.884  21.317  0.00  0.00    +0.123 A 
ATOM     20  C   UNL     1     -14.525   6.947  20.462  0.00  0.00    +0.078 A 
ATOM     21  C   UNL     1     -13.742   5.246  21.987  0.00  0.00    +0.030 A 
ATOM     22  C   UNL     1     -13.213   7.382  20.272  0.00  0.00    +0.021 A 
ATOM     23  C   UNL     1     -12.430   5.681  21.798  0.00  0.00    +0.002 A 
ATOM     24  C   UNL     1     -12.166   6.748  20.940  0.00  0.00    +0.001 A 
BRANCH  20  25
ATOM     10  N   UNL     1     -16.427   8.163  19.190  0.00  0.00    -0.191 NA
ATOM     25  C   UNL     1     -15.576   7.619  19.758  0.00  0.00    +0.101 C 
ENDBRANCH  20  25
ENDBRANCH   1  18
ENDBRANCH   8   1
ENDBRANCH  13   8
BRANCH  14   4
ATOM      4  O   UNL     1     -16.002   1.985  27.788  0.00  0.00    -0.362 OA
BRANCH   4  17
ATOM     17  C   UNL     1     -15.537   2.171  29.123  0.00  0.00    +0.255 C 
BRANCH  17  19
ATOM      7  O   UNL     1     -15.112  -0.165  29.579  0.00  0.00    -0.274 OA
ATOM      9  N   UNL     1     -13.399   1.349  29.842  0.00  0.00    -0.327 N 
ATOM     19  C   UNL     1     -14.692   0.988  29.532  0.00  0.00    +0.236 C 
ATOM     27  H   UNL     1     -12.719   0.656  30.133  0.00  0.00    +0.145 HD
ATOM     28  H   UNL     1     -13.078   2.311  29.794  0.00  0.00    +0.145 HD
ENDBRANCH  17  19
ENDBRANCH   4  17
ENDBRANCH  14   4
TORSDOF 7
ENDMDL
MODEL 6
REMARK VINA RESULT:      -5.5     16.658     19.001
REMARK  Name = 11883291
REMARK  7 active torsions:
REMARK  status: ('A' for Active; 'I' for Inactive)
REMARK    1  A    between atoms: S_1  and  N_8
REMARK    2  A    between atoms: S_1  and  C_18
REMARK    3  A    between atoms: O_4  and  C_14
REMARK    4  A    between atoms: O_4  and  C_17
REMARK    5  A    between atoms: N_8  and  C_13
REMARK    6  A    between atoms: C_17  and  C_19
REMARK    7  A    between atoms: C_20  and  C_25
REMARK                            x       y       z     vdW  Elec       q    Type
REMARK                         _______ _______ _______ _____ _____    ______ ____
ROOT
ATOM      2  O   UNL     1      16.939   8.149  20.882  0.00  0.00    -0.370 OA
ATOM      3  O   UNL     1      16.249   5.823  19.006  0.00  0.00    -0.370 OA
ATOM     11  C   UNL     1      15.702   6.217  20.281  0.00  0.00    +0.170 C 
ATOM     12  C   UNL     1      16.857   6.732  21.115  0.00  0.00    +0.179 C 
ATOM     13  C   UNL     1      14.809   7.424  20.113  0.00  0.00    +0.133 C 
ATOM     14  C   UNL     1      18.038   6.000  20.524  0.00  0.00    +0.176 C 
ATOM     15  C   UNL     1      15.812   8.566  20.097  0.00  0.00    +0.183 C 
ATOM     16  C   UNL     1      17.677   5.944  19.057  0.00  0.00    +0.194 C 
ENDROOT
BRANCH  13   8
ATOM      8  N   UNL     1      13.887   7.552  21.215  0.00  0.00    -0.182 NA
ATOM     26  H   UNL     1      14.237   7.384  22.165  0.00  0.00    +0.148 HD
BRANCH   8   1
ATOM      1  S   UNL     1      12.216   7.604  20.917  0.00  0.00    +0.060 S 
ATOM      5  O   UNL     1      11.547   6.618  21.744  0.00  0.00    -0.153 OA
ATOM      6  O   UNL     1      11.997   7.623  19.483  0.00  0.00    -0.153 OA
BRANCH   1  18
ATOM     18  C   UNL     1      11.786   9.208  21.525  0.00  0.00    +0.123 A 
ATOM     20  C   UNL     1      12.059  10.353  20.792  0.00  0.00    +0.078 A 
ATOM     21  C   UNL     1      11.165   9.281  22.763  0.00  0.00    +0.030 A 
ATOM     22  C   UNL     1      11.703  11.599  21.309  0.00  0.00    +0.021 A 
ATOM     23  C   UNL     1      10.810  10.527  23.280  0.00  0.00    +0.002 A 
ATOM     24  C   UNL     1      11.079  11.686  22.553  0.00  0.00    +0.001 A 
BRANCH  20  25
ATOM     10  N   UNL     1      13.220  10.260  18.477  0.00  0.00    -0.191 NA
ATOM     25  C   UNL     1      12.700  10.302  19.513  0.00  0.00    +0.101 C 
ENDBRANCH  20  25
ENDBRANCH   1  18
ENDBRANCH   8   1
ENDBRANCH  13   8
BRANCH  14   4
ATOM      4  O   UNL     1      19.270   6.648  20.745  0.00  0.00    -0.362 OA
BRANCH   4  17
ATOM     17  C   UNL     1      20.292   5.734  21.137  0.00  0.00    +0.255 C 
BRANCH  17  19
ATOM      7  O   UNL     1      21.895   7.229  20.118  0.00  0.00    -0.274 OA
ATOM      9  N   UNL     1      22.361   4.977  20.183  0.00  0.00    -0.327 N 
ATOM     19  C   UNL     1      21.580   6.085  20.431  0.00  0.00    +0.236 C 
ATOM     27  H   UNL     1      23.256   5.063  19.714  0.00  0.00    +0.145 HD
ATOM     28  H   UNL     1      22.076   4.041  20.453  0.00  0.00    +0.145 HD
ENDBRANCH  17  19
ENDBRANCH   4  17
ENDBRANCH  14   4
TORSDOF 7
ENDMDL
MODEL 7
REMARK VINA RESULT:      -5.4     22.958     25.737
REMARK  Name = 11883291
REMARK  7 active torsions:
REMARK  status: ('A' for Active; 'I' for Inactive)
REMARK    1  A    between atoms: S_1  and  N_8
REMARK    2  A    between atoms: S_1  and  C_18
REMARK    3  A    between atoms: O_4  and  C_14
REMARK    4  A    between atoms: O_4  and  C_17
REMARK    5  A    between atoms: N_8  and  C_13
REMARK    6  A    between atoms: C_17  and  C_19
REMARK    7  A    between atoms: C_20  and  C_25
REMARK                            x       y       z     vdW  Elec       q    Type
REMARK                         _______ _______ _______ _____ _____    ______ ____
ROOT
ATOM      2  O   UNL     1      -5.773 -10.456  12.145  0.00  0.00    -0.370 OA
ATOM      3  O   UNL     1      -3.057 -11.435  11.111  0.00  0.00    -0.370 OA
ATOM     11  C   UNL     1      -3.403 -10.518  12.169  0.00  0.00    +0.170 C 
ATOM     12  C   UNL     1      -4.612  -9.736  11.698  0.00  0.00    +0.179 C 
ATOM     13  C   UNL     1      -3.910 -11.280  13.372  0.00  0.00    +0.133 C 
ATOM     14  C   UNL     1      -4.467  -9.788  10.195  0.00  0.00    +0.176 C 
ATOM     15  C   UNL     1      -5.362 -11.531  13.003  0.00  0.00    +0.183 C 
ATOM     16  C   UNL     1      -3.897 -11.170   9.977  0.00  0.00    +0.194 C 
ENDROOT
BRANCH  13   8
ATOM      8  N   UNL     1      -3.803 -10.492  14.575  0.00  0.00    -0.182 NA
ATOM     26  H   UNL     1      -3.621  -9.486  14.484  0.00  0.00    +0.148 HD
BRANCH   8   1
ATOM      1  S   UNL     1      -3.610 -11.263  16.075  0.00  0.00    +0.060 S 
ATOM      5  O   UNL     1      -2.437 -10.732  16.743  0.00  0.00    -0.153 OA
ATOM      6  O   UNL     1      -3.758 -12.694  15.889  0.00  0.00    -0.153 OA
BRANCH   1  18
ATOM     18  C   UNL     1      -5.038 -10.708  16.959  0.00  0.00    +0.123 A 
ATOM     20  C   UNL     1      -5.192 -10.965  18.313  0.00  0.00    +0.078 A 
ATOM     21  C   UNL     1      -6.000 -10.006  16.249  0.00  0.00    +0.030 A 
ATOM     22  C   UNL     1      -6.334 -10.510  18.972  0.00  0.00    +0.021 A 
ATOM     23  C   UNL     1      -7.143  -9.551  16.908  0.00  0.00    +0.002 A 
ATOM     24  C   UNL     1      -7.310  -9.803  18.269  0.00  0.00    +0.001 A 
BRANCH  20  25
ATOM     10  N   UNL     1      -3.418 -12.274  19.674  0.00  0.00    -0.191 NA
ATOM     25  C   UNL     1      -4.212 -11.688  19.065  0.00  0.00    +0.101 C 
ENDBRANCH  20  25
ENDBRANCH   1  18
ENDBRANCH   8   1
ENDBRANCH  13   8
BRANCH  14   4
ATOM      4  O   UNL     1      -5.683  -9.600   9.506  0.00  0.00    -0.362 OA
BRANCH   4  17
ATOM     17  C   UNL     1      -5.963  -8.220   9.284  0.00  0.00    +0.255 C 
BRANCH  17  19
ATOM      7  O   UNL     1      -8.087  -9.005   8.438  0.00  0.00    -0.274 OA
ATOM      9  N   UNL     1      -7.503  -6.805   8.105  0.00  0.00    -0.327 N 
ATOM     19  C   UNL     1      -7.290  -8.082   8.576  0.00  0.00    +0.236 C 
ATOM     27  H   UNL     1      -8.354  -6.567   7.608  0.00  0.00    +0.145 HD
ATOM     28  H   UNL     1      -6.826  -6.059   8.233  0.00  0.00    +0.145 HD
ENDBRANCH  17  19
ENDBRANCH   4  17
ENDBRANCH  14   4
TORSDOF 7
ENDMDL
MODEL 8
REMARK VINA RESULT:      -5.3      2.641      8.087
REMARK  Name = 11883291
REMARK  7 active torsions:
REMARK  status: ('A' for Active; 'I' for Inactive)
REMARK    1  A    between atoms: S_1  and  N_8
REMARK    2  A    between atoms: S_1  and  C_18
REMARK    3  A    between atoms: O_4  and  C_14
REMARK    4  A    between atoms: O_4  and  C_17
REMARK    5  A    between atoms: N_8  and  C_13
REMARK    6  A    between atoms: C_17  and  C_19
REMARK    7  A    between atoms: C_20  and  C_25
REMARK                            x       y       z     vdW  Elec       q    Type
REMARK                         _______ _______ _______ _____ _____    ______ ____
ROOT
ATOM      2  O   UNL     1      10.275   3.704   1.077  0.00  0.00    -0.370 OA
ATOM      3  O   UNL     1      12.083   6.143   0.635  0.00  0.00    -0.370 OA
ATOM     11  C   UNL     1      10.955   5.934   1.511  0.00  0.00    +0.170 C 
ATOM     12  C   UNL     1       9.965   5.071   0.756  0.00  0.00    +0.179 C 
ATOM     13  C   UNL     1      11.361   5.077   2.687  0.00  0.00    +0.133 C 
ATOM     14  C   UNL     1      10.284   5.393  -0.685  0.00  0.00    +0.176 C 
ATOM     15  C   UNL     1      11.276   3.675   2.107  0.00  0.00    +0.183 C 
ATOM     16  C   UNL     1      11.785   5.571  -0.647  0.00  0.00    +0.194 C 
ENDROOT
BRANCH  13   8
ATOM      8  N   UNL     1      10.453   5.243   3.795  0.00  0.00    -0.182 NA
ATOM     26  H   UNL     1       9.589   4.688   3.804  0.00  0.00    +0.148 HD
BRANCH   8   1
ATOM      1  S   UNL     1      10.627   6.571   4.838  0.00  0.00    +0.060 S 
ATOM      5  O   UNL     1       9.619   7.566   4.524  0.00  0.00    -0.153 OA
ATOM      6  O   UNL     1      12.028   6.943   4.893  0.00  0.00    -0.153 OA
BRANCH   1  18
ATOM     18  C   UNL     1      10.220   5.860   6.406  0.00  0.00    +0.123 A 
ATOM     20  C   UNL     1      10.167   6.634   7.556  0.00  0.00    +0.078 A 
ATOM     21  C   UNL     1       9.958   4.499   6.446  0.00  0.00    +0.030 A 
ATOM     22  C   UNL     1       9.843   6.033   8.773  0.00  0.00    +0.021 A 
ATOM     23  C   UNL     1       9.634   3.898   7.663  0.00  0.00    +0.002 A 
ATOM     24  C   UNL     1       9.578   4.665   8.826  0.00  0.00    +0.001 A 
BRANCH  20  25
ATOM     10  N   UNL     1      10.654   9.179   7.524  0.00  0.00    -0.191 NA
ATOM     25  C   UNL     1      10.436   8.040   7.538  0.00  0.00    +0.101 C 
ENDBRANCH  20  25
ENDBRANCH   1  18
ENDBRANCH   8   1
ENDBRANCH  13   8
BRANCH  14   4
ATOM      4  O   UNL     1       9.892   4.384  -1.587  0.00  0.00    -0.362 OA
BRANCH   4  17
ATOM     17  C   UNL     1      10.948   4.017  -2.471  0.00  0.00    +0.255 C 
BRANCH  17  19
ATOM      7  O   UNL     1      12.061   1.881  -2.265  0.00  0.00    -0.274 OA
ATOM      9  N   UNL     1       9.868   1.929  -2.959  0.00  0.00    -0.327 N 
ATOM     19  C   UNL     1      11.046   2.512  -2.545  0.00  0.00    +0.236 C 
ATOM     27  H   UNL     1       9.789   0.923  -3.055  0.00  0.00    +0.145 HD
ATOM     28  H   UNL     1       9.042   2.476  -3.185  0.00  0.00    +0.145 HD
ENDBRANCH  17  19
ENDBRANCH   4  17
ENDBRANCH  14   4
TORSDOF 7
ENDMDL
MODEL 9
REMARK VINA RESULT:      -5.3      2.723      7.987
REMARK  Name = 11883291
REMARK  7 active torsions:
REMARK  status: ('A' for Active; 'I' for Inactive)
REMARK    1  A    between atoms: S_1  and  N_8
REMARK    2  A    between atoms: S_1  and  C_18
REMARK    3  A    between atoms: O_4  and  C_14
REMARK    4  A    between atoms: O_4  and  C_17
REMARK    5  A    between atoms: N_8  and  C_13
REMARK    6  A    between atoms: C_17  and  C_19
REMARK    7  A    between atoms: C_20  and  C_25
REMARK                            x       y       z     vdW  Elec       q    Type
REMARK                         _______ _______ _______ _____ _____    ______ ____
ROOT
ATOM      2  O   UNL     1      13.078   5.260   2.150  0.00  0.00    -0.370 OA
ATOM      3  O   UNL     1      10.609   4.272   0.622  0.00  0.00    -0.370 OA
ATOM     11  C   UNL     1      10.961   4.201   2.019  0.00  0.00    +0.170 C 
ATOM     12  C   UNL     1      12.456   3.965   2.085  0.00  0.00    +0.179 C 
ATOM     13  C   UNL     1      10.777   5.551   2.671  0.00  0.00    +0.133 C 
ATOM     14  C   UNL     1      12.736   3.276   0.772  0.00  0.00    +0.176 C 
ATOM     15  C   UNL     1      12.064   6.266   2.299  0.00  0.00    +0.183 C 
ATOM     16  C   UNL     1      11.770   3.967  -0.164  0.00  0.00    +0.194 C 
ENDROOT
BRANCH  13   8
ATOM      8  N   UNL     1      10.640   5.428   4.102  0.00  0.00    -0.182 NA
ATOM     26  H   UNL     1      10.706   4.492   4.519  0.00  0.00    +0.148 HD
BRANCH   8   1
ATOM      1  S   UNL     1      10.018   6.724   5.006  0.00  0.00    +0.060 S 
ATOM      5  O   UNL     1       8.727   7.111   4.470  0.00  0.00    -0.153 OA
ATOM      6  O   UNL     1      11.062   7.716   5.181  0.00  0.00    -0.153 OA
BRANCH   1  18
ATOM     18  C   UNL     1       9.750   5.974   6.584  0.00  0.00    +0.123 A 
ATOM     20  C   UNL     1       9.404   6.732   7.693  0.00  0.00    +0.078 A 
ATOM     21  C   UNL     1       9.900   4.598   6.676  0.00  0.00    +0.030 A 
ATOM     22  C   UNL     1       9.203   6.100   8.921  0.00  0.00    +0.021 A 
ATOM     23  C   UNL     1       9.698   3.966   7.904  0.00  0.00    +0.002 A 
ATOM     24  C   UNL     1       9.350   4.718   9.025  0.00  0.00    +0.001 A 
BRANCH  20  25
ATOM     10  N   UNL     1       9.119   9.304   7.565  0.00  0.00    -0.191 NA
ATOM     25  C   UNL     1       9.246   8.153   7.622  0.00  0.00    +0.101 C 
ENDBRANCH  20  25
ENDBRANCH   1  18
ENDBRANCH   8   1
ENDBRANCH  13   8
BRANCH  14   4
ATOM      4  O   UNL     1      14.073   3.402   0.344  0.00  0.00    -0.362 OA
BRANCH   4  17
ATOM     17  C   UNL     1      14.195   4.276  -0.776  0.00  0.00    +0.255 C 
BRANCH  17  19
ATOM      7  O   UNL     1      16.090   5.569  -1.540  0.00  0.00    -0.274 OA
ATOM      9  N   UNL     1      15.683   5.423   0.720  0.00  0.00    -0.327 N 
ATOM     19  C   UNL     1      15.415   5.150  -0.603  0.00  0.00    +0.236 C 
ATOM     27  H   UNL     1      16.474   6.000   0.985  0.00  0.00    +0.145 HD
ATOM     28  H   UNL     1      15.107   5.063   1.476  0.00  0.00    +0.145 HD
ENDBRANCH  17  19
ENDBRANCH   4  17
ENDBRANCH  14   4
TORSDOF 7
ENDMDL
MODEL 10
REMARK VINA RESULT:      -5.3      2.202      8.192
REMARK  Name = 11883291
REMARK  7 active torsions:
REMARK  status: ('A' for Active; 'I' for Inactive)
REMARK    1  A    between atoms: S_1  and  N_8
REMARK    2  A    between atoms: S_1  and  C_18
REMARK    3  A    between atoms: O_4  and  C_14
REMARK    4  A    between atoms: O_4  and  C_17
REMARK    5  A    between atoms: N_8  and  C_13
REMARK    6  A    between atoms: C_17  and  C_19
REMARK    7  A    between atoms: C_20  and  C_25
REMARK                            x       y       z     vdW  Elec       q    Type
REMARK                         _______ _______ _______ _____ _____    ______ ____
ROOT
ATOM      2  O   UNL     1      11.130   5.092   0.371  0.00  0.00    -0.370 OA
ATOM      3  O   UNL     1      13.181   3.067   1.421  0.00  0.00    -0.370 OA
ATOM     11  C   UNL     1      12.909   4.433   1.795  0.00  0.00    +0.170 C 
ATOM     12  C   UNL     1      12.558   5.177   0.523  0.00  0.00    +0.179 C 
ATOM     13  C   UNL     1      11.643   4.505   2.618  0.00  0.00    +0.133 C 
ATOM     14  C   UNL     1      13.280   4.375  -0.533  0.00  0.00    +0.176 C 
ATOM     15  C   UNL     1      10.564   4.495   1.548  0.00  0.00    +0.183 C 
ATOM     16  C   UNL     1      13.145   2.963  -0.009  0.00  0.00    +0.194 C 
ENDROOT
BRANCH  13   8
ATOM      8  N   UNL     1      11.595   5.715   3.401  0.00  0.00    -0.182 NA
ATOM     26  H   UNL     1      12.240   6.476   3.163  0.00  0.00    +0.148 HD
BRANCH   8   1
ATOM      1  S   UNL     1      10.771   5.727   4.886  0.00  0.00    +0.060 S 
ATOM      5  O   UNL     1      11.656   6.221   5.925  0.00  0.00    -0.153 OA
ATOM      6  O   UNL     1      10.088   4.458   5.053  0.00  0.00    -0.153 OA
BRANCH   1  18
ATOM     18  C   UNL     1       9.526   6.950   4.604  0.00  0.00    +0.123 A 
ATOM     20  C   UNL     1       8.760   7.453   5.645  0.00  0.00    +0.078 A 
ATOM     21  C   UNL     1       9.340   7.390   3.301  0.00  0.00    +0.030 A 
ATOM     22  C   UNL     1       7.787   8.417   5.379  0.00  0.00    +0.021 A 
ATOM     23  C   UNL     1       8.367   8.353   3.035  0.00  0.00    +0.002 A 
ATOM     24  C   UNL     1       7.591   8.866   4.073  0.00  0.00    +0.001 A 
BRANCH  20  25
ATOM     10  N   UNL     1       9.076   6.657   8.091  0.00  0.00    -0.191 NA
ATOM     25  C   UNL     1       8.934   7.013   6.997  0.00  0.00    +0.101 C 
ENDBRANCH  20  25
ENDBRANCH   1  18
ENDBRANCH   8   1
ENDBRANCH  13   8
BRANCH  14   4
ATOM      4  O   UNL     1      12.730   4.518  -1.823  0.00  0.00    -0.362 OA
BRANCH   4  17
ATOM     17  C   UNL     1      12.388   3.261  -2.400  0.00  0.00    +0.255 C 
BRANCH  17  19
ATOM      7  O   UNL     1      10.805   3.038  -4.213  0.00  0.00    -0.274 OA
ATOM      9  N   UNL     1      10.067   3.838  -2.186  0.00  0.00    -0.327 N 
ATOM     19  C   UNL     1      11.027   3.356  -3.049  0.00  0.00    +0.236 C 
ATOM     27  H   UNL     1       9.106   3.955  -2.487  0.00  0.00    +0.145 HD
ATOM     28  H   UNL     1      10.279   4.094  -1.226  0.00  0.00    +0.145 HD
ENDBRANCH  17  19
ENDBRANCH   4  17
ENDBRANCH  14   4
TORSDOF 7
ENDMDL
