MODEL 1
REMARK VINA RESULT:      -6.4      0.000      0.000
REMARK  Name = 75366956
REMARK  10 active torsions:
REMARK  status: ('A' for Active; 'I' for Inactive)
REMARK    1  A    between atoms: O_2  and  C_11
REMARK    2  A    between atoms: O_5  and  C_20
REMARK    3  A    between atoms: O_5  and  C_23
REMARK    4  A    between atoms: N_6  and  C_15
REMARK    5  A    between atoms: N_8  and  C_21
REMARK    6  A    between atoms: C_9  and  C_14
REMARK    7  A    between atoms: C_10  and  C_15
REMARK    8  A    between atoms: C_14  and  C_16
REMARK    9  A    between atoms: C_19  and  C_20
REMARK   10  A    between atoms: C_21  and  C_22
REMARK                            x       y       z     vdW  Elec       q    Type
REMARK                         _______ _______ _______ _____ _____    ______ ____
ROOT
ATOM      1  O   UNL     1      10.967   8.400  19.328  0.00  0.00    -0.369 OA
ATOM      9  C   UNL     1      12.270   8.141  18.798  0.00  0.00    +0.125 C 
ATOM     10  C   UNL     1      10.913   8.577  20.750  0.00  0.00    +0.164 C 
ATOM     11  C   UNL     1      11.519   7.376  21.487  0.00  0.00    +0.145 C 
ATOM     12  C   UNL     1      12.865   6.880  19.422  0.00  0.00    +0.034 C 
ATOM     13  C   UNL     1      12.893   6.993  20.943  0.00  0.00    +0.036 C 
ENDROOT
BRANCH  11   2
ATOM      2  O   UNL     1      10.654   6.249  21.319  0.00  0.00    -0.389 OA
ATOM     24  H   UNL     1      10.510   6.130  20.365  0.00  0.00    +0.210 HD
ENDBRANCH  11   2
BRANCH   9  14
ATOM     14  C   UNL     1      12.127   7.985  17.289  0.00  0.00    +0.090 C 
BRANCH  14  16
ATOM      3  O   UNL     1      13.649  10.205  14.893  0.00  0.00    -0.357 OA
ATOM      7  N   UNL     1      12.697   9.264  15.267  0.00  0.00    -0.083 NA
ATOM     16  C   UNL     1      12.971   8.981  16.543  0.00  0.00    +0.086 A 
ATOM     17  C   UNL     1      14.077   9.705  17.023  0.00  0.00    +0.073 A 
ATOM     19  C   UNL     1      14.465  10.458  15.947  0.00  0.00    +0.163 A 
BRANCH  19  20
ATOM     20  C   UNL     1      15.537  11.437  15.725  0.00  0.00    +0.236 C 
BRANCH  20   5
ATOM      5  O   UNL     1      14.985  12.744  15.541  0.00  0.00    -0.375 OA
ATOM     23  C   UNL     1      15.928  13.620  14.945  0.00  0.00    +0.194 C 
ENDBRANCH  20   5
ENDBRANCH  19  20
ENDBRANCH  14  16
ENDBRANCH   9  14
BRANCH  10  15
ATOM     15  C   UNL     1      11.538   9.908  21.163  0.00  0.00    +0.140 C 
BRANCH  15   6
ATOM      4  O   UNL     1      11.595  12.661  22.025  0.00  0.00    -0.253 OA
ATOM      6  N   UNL     1      10.846  10.477  22.278  0.00  0.00    -0.297 N 
ATOM      8  N   UNL     1      10.153  12.111  23.758  0.00  0.00    -0.300 N 
ATOM     18  C   UNL     1      10.925  11.828  22.634  0.00  0.00    +0.300 C 
ATOM     25  H   UNL     1      10.302   9.857  22.871  0.00  0.00    +0.150 HD
ATOM     26  H   UNL     1       9.637  11.356  24.198  0.00  0.00    +0.150 HD
BRANCH   8  21
ATOM     21  C   UNL     1      10.062  13.433  24.331  0.00  0.00    +0.102 C 
ATOM     22  C   UNL     1      10.755  13.505  25.675  0.00  0.00    +0.024 C 
ENDBRANCH   8  21
ENDBRANCH  15   6
ENDBRANCH  10  15
TORSDOF 8
ENDMDL
MODEL 2
REMARK VINA RESULT:      -6.1      3.948      4.704
REMARK  Name = 75366956
REMARK  10 active torsions:
REMARK  status: ('A' for Active; 'I' for Inactive)
REMARK    1  A    between atoms: O_2  and  C_11
REMARK    2  A    between atoms: O_5  and  C_20
REMARK    3  A    between atoms: O_5  and  C_23
REMARK    4  A    between atoms: N_6  and  C_15
REMARK    5  A    between atoms: N_8  and  C_21
REMARK    6  A    between atoms: C_9  and  C_14
REMARK    7  A    between atoms: C_10  and  C_15
REMARK    8  A    between atoms: C_14  and  C_16
REMARK    9  A    between atoms: C_19  and  C_20
REMARK   10  A    between atoms: C_21  and  C_22
REMARK                            x       y       z     vdW  Elec       q    Type
REMARK                         _______ _______ _______ _____ _____    ______ ____
ROOT
ATOM      1  O   UNL     1      13.436   8.737  19.624  0.00  0.00    -0.369 OA
ATOM      9  C   UNL     1      13.828   7.383  19.865  0.00  0.00    +0.125 C 
ATOM     10  C   UNL     1      12.545   9.296  20.597  0.00  0.00    +0.164 C 
ATOM     11  C   UNL     1      11.285   8.436  20.761  0.00  0.00    +0.145 C 
ATOM     12  C   UNL     1      12.604   6.470  19.917  0.00  0.00    +0.034 C 
ATOM     13  C   UNL     1      11.610   6.960  20.966  0.00  0.00    +0.036 C 
ENDROOT
BRANCH  11   2
ATOM      2  O   UNL     1      10.496   8.548  19.573  0.00  0.00    -0.389 OA
ATOM     24  H   UNL     1      10.980   9.119  18.952  0.00  0.00    +0.210 HD
ENDBRANCH  11   2
BRANCH   9  14
ATOM     14  C   UNL     1      14.766   6.970  18.737  0.00  0.00    +0.090 C 
BRANCH  14  16
ATOM      3  O   UNL     1      18.031   5.575  19.353  0.00  0.00    -0.357 OA
ATOM      7  N   UNL     1      16.847   5.662  18.631  0.00  0.00    -0.083 NA
ATOM     16  C   UNL     1      16.130   6.602  19.254  0.00  0.00    +0.086 A 
ATOM     17  C   UNL     1      16.804   7.138  20.366  0.00  0.00    +0.073 A 
ATOM     19  C   UNL     1      17.993   6.458  20.383  0.00  0.00    +0.163 A 
BRANCH  19  20
ATOM     20  C   UNL     1      19.174   6.498  21.256  0.00  0.00    +0.236 C 
BRANCH  20   5
ATOM      5  O   UNL     1      19.667   7.836  21.362  0.00  0.00    -0.375 OA
ATOM     23  C   UNL     1      19.811   8.224  22.719  0.00  0.00    +0.194 C 
ENDBRANCH  20   5
ENDBRANCH  19  20
ENDBRANCH  14  16
ENDBRANCH   9  14
BRANCH  10  15
ATOM     15  C   UNL     1      13.266   9.554  21.919  0.00  0.00    +0.140 C 
BRANCH  15   6
ATOM      4  O   UNL     1      13.019  12.046  23.353  0.00  0.00    -0.253 OA
ATOM      6  N   UNL     1      12.334   9.861  22.961  0.00  0.00    -0.297 N 
ATOM      8  N   UNL     1      11.279  11.126  24.582  0.00  0.00    -0.300 N 
ATOM     18  C   UNL     1      12.278  11.100  23.611  0.00  0.00    +0.300 C 
ATOM     25  H   UNL     1      11.709   9.125  23.277  0.00  0.00    +0.150 HD
ATOM     26  H   UNL     1      10.719  10.292  24.729  0.00  0.00    +0.150 HD
BRANCH   8  21
ATOM     21  C   UNL     1      11.012  12.288  25.396  0.00  0.00    +0.102 C 
ATOM     22  C   UNL     1      10.250  13.344  24.624  0.00  0.00    +0.024 C 
ENDBRANCH   8  21
ENDBRANCH  15   6
ENDBRANCH  10  15
TORSDOF 8
ENDMDL
MODEL 3
REMARK VINA RESULT:      -5.8     23.725     26.035
REMARK  Name = 75366956
REMARK  10 active torsions:
REMARK  status: ('A' for Active; 'I' for Inactive)
REMARK    1  A    between atoms: O_2  and  C_11
REMARK    2  A    between atoms: O_5  and  C_20
REMARK    3  A    between atoms: O_5  and  C_23
REMARK    4  A    between atoms: N_6  and  C_15
REMARK    5  A    between atoms: N_8  and  C_21
REMARK    6  A    between atoms: C_9  and  C_14
REMARK    7  A    between atoms: C_10  and  C_15
REMARK    8  A    between atoms: C_14  and  C_16
REMARK    9  A    between atoms: C_19  and  C_20
REMARK   10  A    between atoms: C_21  and  C_22
REMARK                            x       y       z     vdW  Elec       q    Type
REMARK                         _______ _______ _______ _____ _____    ______ ____
ROOT
ATOM      1  O   UNL     1     -10.892   8.857  20.182  0.00  0.00    -0.369 OA
ATOM      9  C   UNL     1     -11.859   7.868  19.818  0.00  0.00    +0.125 C 
ATOM     10  C   UNL     1     -10.925  10.057  19.400  0.00  0.00    +0.164 C 
ATOM     11  C   UNL     1     -10.786   9.754  17.902  0.00  0.00    +0.145 C 
ATOM     12  C   UNL     1     -11.680   7.450  18.360  0.00  0.00    +0.034 C 
ATOM     13  C   UNL     1     -11.747   8.664  17.439  0.00  0.00    +0.036 C 
ENDROOT
BRANCH  11   2
ATOM      2  O   UNL     1      -9.454   9.299  17.647  0.00  0.00    -0.389 OA
ATOM     24  H   UNL     1      -9.098   9.831  16.915  0.00  0.00    +0.210 HD
ENDBRANCH  11   2
BRANCH   9  14
ATOM     14  C   UNL     1     -11.672   6.679  20.752  0.00  0.00    +0.090 C 
BRANCH  14  16
ATOM      3  O   UNL     1     -15.105   6.195  21.735  0.00  0.00    -0.357 OA
ATOM      7  N   UNL     1     -14.111   6.849  21.017  0.00  0.00    -0.083 NA
ATOM     16  C   UNL     1     -12.976   6.230  21.352  0.00  0.00    +0.086 A 
ATOM     17  C   UNL     1     -13.189   5.187  22.270  0.00  0.00    +0.073 A 
ATOM     19  C   UNL     1     -14.543   5.207  22.477  0.00  0.00    +0.163 A 
BRANCH  19  20
ATOM     20  C   UNL     1     -15.457   4.409  23.305  0.00  0.00    +0.236 C 
BRANCH  20   5
ATOM      5  O   UNL     1     -16.409   3.731  22.479  0.00  0.00    -0.375 OA
ATOM     23  C   UNL     1     -17.127   2.757  23.218  0.00  0.00    +0.194 C 
ENDBRANCH  20   5
ENDBRANCH  19  20
ENDBRANCH  14  16
ENDBRANCH   9  14
BRANCH  10  15
ATOM     15  C   UNL     1     -12.161  10.893  19.727  0.00  0.00    +0.140 C 
BRANCH  15   6
ATOM      4  O   UNL     1     -13.129  10.003  22.296  0.00  0.00    -0.253 OA
ATOM      6  N   UNL     1     -12.012  11.561  20.984  0.00  0.00    -0.297 N 
ATOM      8  N   UNL     1     -12.226  11.911  23.258  0.00  0.00    -0.300 N 
ATOM     18  C   UNL     1     -12.513  11.062  22.192  0.00  0.00    +0.300 C 
ATOM     25  H   UNL     1     -11.555  12.468  20.993  0.00  0.00    +0.150 HD
ATOM     26  H   UNL     1     -11.715  12.769  23.075  0.00  0.00    +0.150 HD
BRANCH   8  21
ATOM     21  C   UNL     1     -12.632  11.627  24.614  0.00  0.00    +0.102 C 
ATOM     22  C   UNL     1     -11.533  10.931  25.389  0.00  0.00    +0.024 C 
ENDBRANCH   8  21
ENDBRANCH  15   6
ENDBRANCH  10  15
TORSDOF 8
ENDMDL
MODEL 4
REMARK VINA RESULT:      -5.7     26.914     29.579
REMARK  Name = 75366956
REMARK  10 active torsions:
REMARK  status: ('A' for Active; 'I' for Inactive)
REMARK    1  A    between atoms: O_2  and  C_11
REMARK    2  A    between atoms: O_5  and  C_20
REMARK    3  A    between atoms: O_5  and  C_23
REMARK    4  A    between atoms: N_6  and  C_15
REMARK    5  A    between atoms: N_8  and  C_21
REMARK    6  A    between atoms: C_9  and  C_14
REMARK    7  A    between atoms: C_10  and  C_15
REMARK    8  A    between atoms: C_14  and  C_16
REMARK    9  A    between atoms: C_19  and  C_20
REMARK   10  A    between atoms: C_21  and  C_22
REMARK                            x       y       z     vdW  Elec       q    Type
REMARK                         _______ _______ _______ _____ _____    ______ ____
ROOT
ATOM      1  O   UNL     1      -4.998 -10.836  17.884  0.00  0.00    -0.369 OA
ATOM      9  C   UNL     1      -5.723 -12.061  17.743  0.00  0.00    +0.125 C 
ATOM     10  C   UNL     1      -4.566 -10.240  16.654  0.00  0.00    +0.164 C 
ATOM     11  C   UNL     1      -3.728 -11.219  15.821  0.00  0.00    +0.145 C 
ATOM     12  C   UNL     1      -4.877 -13.107  17.020  0.00  0.00    +0.034 C 
ATOM     13  C   UNL     1      -4.405 -12.578  15.669  0.00  0.00    +0.036 C 
ENDROOT
BRANCH  11   2
ATOM      2  O   UNL     1      -2.475 -11.427  16.480  0.00  0.00    -0.389 OA
ATOM     24  H   UNL     1      -1.793 -11.511  15.792  0.00  0.00    +0.210 HD
ENDBRANCH  11   2
BRANCH   9  14
ATOM     14  C   UNL     1      -6.096 -12.536  19.142  0.00  0.00    +0.090 C 
BRANCH  14  16
ATOM      3  O   UNL     1      -9.121 -10.789  20.027  0.00  0.00    -0.357 OA
ATOM      7  N   UNL     1      -7.772 -10.823  19.695  0.00  0.00    -0.083 NA
ATOM     16  C   UNL     1      -7.490 -12.116  19.520  0.00  0.00    +0.086 A 
ATOM     17  C   UNL     1      -8.611 -12.939  19.728  0.00  0.00    +0.073 A 
ATOM     19  C   UNL     1      -9.609 -12.056  20.044  0.00  0.00    +0.163 A 
BRANCH  19  20
ATOM     20  C   UNL     1     -11.031 -12.205  20.380  0.00  0.00    +0.236 C 
BRANCH  20   5
ATOM      5  O   UNL     1     -11.823 -11.312  19.592  0.00  0.00    -0.375 OA
ATOM     23  C   UNL     1     -12.541 -10.405  20.412  0.00  0.00    +0.194 C 
ENDBRANCH  20   5
ENDBRANCH  19  20
ENDBRANCH  14  16
ENDBRANCH   9  14
BRANCH  10  15
ATOM     15  C   UNL     1      -5.746  -9.657  15.880  0.00  0.00    +0.140 C 
BRANCH  15   6
ATOM      4  O   UNL     1      -8.604  -9.734  15.487  0.00  0.00    -0.253 OA
ATOM      6  N   UNL     1      -6.753  -9.166  16.771  0.00  0.00    -0.297 N 
ATOM      8  N   UNL     1      -8.879  -8.689  17.541  0.00  0.00    -0.300 N 
ATOM     18  C   UNL     1      -8.126  -9.240  16.507  0.00  0.00    +0.300 C 
ATOM     25  H   UNL     1      -6.453  -8.698  17.621  0.00  0.00    +0.150 HD
ATOM     26  H   UNL     1      -8.395  -8.299  18.343  0.00  0.00    +0.150 HD
BRANCH   8  21
ATOM     21  C   UNL     1     -10.322  -8.640  17.516  0.00  0.00    +0.102 C 
ATOM     22  C   UNL     1     -10.823  -7.335  16.933  0.00  0.00    +0.024 C 
ENDBRANCH   8  21
ENDBRANCH  15   6
ENDBRANCH  10  15
TORSDOF 8
ENDMDL
MODEL 5
REMARK VINA RESULT:      -5.7     16.990     20.267
REMARK  Name = 75366956
REMARK  10 active torsions:
REMARK  status: ('A' for Active; 'I' for Inactive)
REMARK    1  A    between atoms: O_2  and  C_11
REMARK    2  A    between atoms: O_5  and  C_20
REMARK    3  A    between atoms: O_5  and  C_23
REMARK    4  A    between atoms: N_6  and  C_15
REMARK    5  A    between atoms: N_8  and  C_21
REMARK    6  A    between atoms: C_9  and  C_14
REMARK    7  A    between atoms: C_10  and  C_15
REMARK    8  A    between atoms: C_14  and  C_16
REMARK    9  A    between atoms: C_19  and  C_20
REMARK   10  A    between atoms: C_21  and  C_22
REMARK                            x       y       z     vdW  Elec       q    Type
REMARK                         _______ _______ _______ _____ _____    ______ ____
ROOT
ATOM      1  O   UNL     1      12.909   2.889   0.605  0.00  0.00    -0.369 OA
ATOM      9  C   UNL     1      13.028   3.548  -0.658  0.00  0.00    +0.125 C 
ATOM     10  C   UNL     1      13.286   3.677   1.741  0.00  0.00    +0.164 C 
ATOM     11  C   UNL     1      14.714   4.220   1.597  0.00  0.00    +0.145 C 
ATOM     12  C   UNL     1      14.467   4.003  -0.895  0.00  0.00    +0.034 C 
ATOM     13  C   UNL     1      14.946   4.893   0.248  0.00  0.00    +0.036 C 
ENDROOT
BRANCH  11   2
ATOM      2  O   UNL     1      15.633   3.130   1.705  0.00  0.00    -0.389 OA
ATOM     24  H   UNL     1      15.859   3.028   2.645  0.00  0.00    +0.210 HD
ENDBRANCH  11   2
BRANCH   9  14
ATOM     14  C   UNL     1      12.585   2.562  -1.733  0.00  0.00    +0.090 C 
BRANCH  14  16
ATOM      3  O   UNL     1       9.325   2.806  -3.248  0.00  0.00    -0.357 OA
ATOM      7  N   UNL     1      10.358   2.085  -2.660  0.00  0.00    -0.083 NA
ATOM     16  C   UNL     1      11.301   2.991  -2.387  0.00  0.00    +0.086 A 
ATOM     17  C   UNL     1      10.923   4.288  -2.777  0.00  0.00    +0.073 A 
ATOM     19  C   UNL     1       9.673   4.116  -3.311  0.00  0.00    +0.163 A 
BRANCH  19  20
ATOM     20  C   UNL     1       8.689   5.027  -3.909  0.00  0.00    +0.236 C 
BRANCH  20   5
ATOM      5  O   UNL     1       8.545   6.200  -3.103  0.00  0.00    -0.375 OA
ATOM     23  C   UNL     1       7.187   6.599  -3.015  0.00  0.00    +0.194 C 
ENDBRANCH  20   5
ENDBRANCH  19  20
ENDBRANCH  14  16
ENDBRANCH   9  14
BRANCH  10  15
ATOM     15  C   UNL     1      12.257   4.772   2.017  0.00  0.00    +0.140 C 
BRANCH  15   6
ATOM      4  O   UNL     1      11.345   6.539   4.109  0.00  0.00    -0.253 OA
ATOM      6  N   UNL     1      11.432   4.431   3.136  0.00  0.00    -0.297 N 
ATOM      8  N   UNL     1      10.234   4.751   5.086  0.00  0.00    -0.300 N 
ATOM     18  C   UNL     1      11.031   5.350   4.113  0.00  0.00    +0.300 C 
ATOM     25  H   UNL     1      11.158   3.460   3.251  0.00  0.00    +0.150 HD
ATOM     26  H   UNL     1      10.031   3.760   5.009  0.00  0.00    +0.150 HD
BRANCH   8  21
ATOM     21  C   UNL     1       9.689   5.481   6.206  0.00  0.00    +0.102 C 
ATOM     22  C   UNL     1       8.390   6.169   5.843  0.00  0.00    +0.024 C 
ENDBRANCH   8  21
ENDBRANCH  15   6
ENDBRANCH  10  15
TORSDOF 8
ENDMDL
MODEL 6
REMARK VINA RESULT:      -5.7     13.081     16.270
REMARK  Name = 75366956
REMARK  10 active torsions:
REMARK  status: ('A' for Active; 'I' for Inactive)
REMARK    1  A    between atoms: O_2  and  C_11
REMARK    2  A    between atoms: O_5  and  C_20
REMARK    3  A    between atoms: O_5  and  C_23
REMARK    4  A    between atoms: N_6  and  C_15
REMARK    5  A    between atoms: N_8  and  C_21
REMARK    6  A    between atoms: C_9  and  C_14
REMARK    7  A    between atoms: C_10  and  C_15
REMARK    8  A    between atoms: C_14  and  C_16
REMARK    9  A    between atoms: C_19  and  C_20
REMARK   10  A    between atoms: C_21  and  C_22
REMARK                            x       y       z     vdW  Elec       q    Type
REMARK                         _______ _______ _______ _____ _____    ______ ____
ROOT
ATOM      1  O   UNL     1      10.687   6.842   5.713  0.00  0.00    -0.369 OA
ATOM      9  C   UNL     1      10.548   5.452   5.407  0.00  0.00    +0.125 C 
ATOM     10  C   UNL     1      11.026   7.134   7.075  0.00  0.00    +0.164 C 
ATOM     11  C   UNL     1      10.019   6.509   8.049  0.00  0.00    +0.145 C 
ATOM     12  C   UNL     1       9.467   4.814   6.276  0.00  0.00    +0.034 C 
ATOM     13  C   UNL     1       9.766   5.033   7.757  0.00  0.00    +0.036 C 
ENDROOT
BRANCH  11   2
ATOM      2  O   UNL     1       8.771   7.198   7.925  0.00  0.00    -0.389 OA
ATOM     24  H   UNL     1       8.567   7.265   6.976  0.00  0.00    +0.210 HD
ENDBRANCH  11   2
BRANCH   9  14
ATOM     14  C   UNL     1      10.192   5.342   3.929  0.00  0.00    +0.090 C 
BRANCH  14  16
ATOM      3  O   UNL     1      13.312   5.494   2.133  0.00  0.00    -0.357 OA
ATOM      7  N   UNL     1      12.348   6.040   2.972  0.00  0.00    -0.083 NA
ATOM     16  C   UNL     1      11.408   5.096   3.079  0.00  0.00    +0.086 A 
ATOM     17  C   UNL     1      11.722   3.945   2.336  0.00  0.00    +0.073 A 
ATOM     19  C   UNL     1      12.927   4.247   1.761  0.00  0.00    +0.163 A 
BRANCH  19  20
ATOM     20  C   UNL     1      13.838   3.521   0.866  0.00  0.00    +0.236 C 
BRANCH  20   5
ATOM      5  O   UNL     1      13.162   3.159  -0.342  0.00  0.00    -0.375 OA
ATOM     23  C   UNL     1      13.614   3.940  -1.436  0.00  0.00    +0.194 C 
ENDBRANCH  20   5
ENDBRANCH  19  20
ENDBRANCH  14  16
ENDBRANCH   9  14
BRANCH  10  15
ATOM     15  C   UNL     1      12.471   6.742   7.379  0.00  0.00    +0.140 C 
BRANCH  15   6
ATOM      4  O   UNL     1      14.759   8.239   6.454  0.00  0.00    -0.253 OA
ATOM      6  N   UNL     1      13.210   6.530   6.172  0.00  0.00    -0.297 N 
ATOM      8  N   UNL     1      14.843   6.880   4.574  0.00  0.00    -0.300 N 
ATOM     18  C   UNL     1      14.313   7.303   5.792  0.00  0.00    +0.300 C 
ATOM     25  H   UNL     1      12.890   5.807   5.535  0.00  0.00    +0.150 HD
ATOM     26  H   UNL     1      14.404   6.100   4.096  0.00  0.00    +0.150 HD
BRANCH   8  21
ATOM     21  C   UNL     1      15.986   7.511   3.959  0.00  0.00    +0.102 C 
ATOM     22  C   UNL     1      15.580   8.363   2.775  0.00  0.00    +0.024 C 
ENDBRANCH   8  21
ENDBRANCH  15   6
ENDBRANCH  10  15
TORSDOF 8
ENDMDL
MODEL 7
REMARK VINA RESULT:      -5.6     29.760     31.377
REMARK  Name = 75366956
REMARK  10 active torsions:
REMARK  status: ('A' for Active; 'I' for Inactive)
REMARK    1  A    between atoms: O_2  and  C_11
REMARK    2  A    between atoms: O_5  and  C_20
REMARK    3  A    between atoms: O_5  and  C_23
REMARK    4  A    between atoms: N_6  and  C_15
REMARK    5  A    between atoms: N_8  and  C_21
REMARK    6  A    between atoms: C_9  and  C_14
REMARK    7  A    between atoms: C_10  and  C_15
REMARK    8  A    between atoms: C_14  and  C_16
REMARK    9  A    between atoms: C_19  and  C_20
REMARK   10  A    between atoms: C_21  and  C_22
REMARK                            x       y       z     vdW  Elec       q    Type
REMARK                         _______ _______ _______ _____ _____    ______ ____
ROOT
ATOM      1  O   UNL     1     -14.038   2.328  31.237  0.00  0.00    -0.369 OA
ATOM      9  C   UNL     1     -14.947   1.770  32.189  0.00  0.00    +0.125 C 
ATOM     10  C   UNL     1     -14.271   1.945  29.875  0.00  0.00    +0.164 C 
ATOM     11  C   UNL     1     -14.282   0.419  29.716  0.00  0.00    +0.145 C 
ATOM     12  C   UNL     1     -14.903   0.244  32.146  0.00  0.00    +0.034 C 
ATOM     13  C   UNL     1     -15.188  -0.265  30.736  0.00  0.00    +0.036 C 
ENDROOT
BRANCH  11   2
ATOM      2  O   UNL     1     -12.954  -0.073  29.914  0.00  0.00    -0.389 OA
ATOM     24  H   UNL     1     -12.751   0.003  30.862  0.00  0.00    +0.210 HD
ENDBRANCH  11   2
BRANCH   9  14
ATOM     14  C   UNL     1     -14.544   2.287  33.565  0.00  0.00    +0.090 C 
BRANCH  14  16
ATOM      3  O   UNL     1     -14.908   5.742  34.521  0.00  0.00    -0.357 OA
ATOM      7  N   UNL     1     -14.247   4.520  34.553  0.00  0.00    -0.083 NA
ATOM     16  C   UNL     1     -14.971   3.715  33.770  0.00  0.00    +0.086 A 
ATOM     17  C   UNL     1     -16.090   4.367  33.224  0.00  0.00    +0.073 A 
ATOM     19  C   UNL     1     -16.003   5.638  33.727  0.00  0.00    +0.163 A 
BRANCH  19  20
ATOM     20  C   UNL     1     -16.824   6.848  33.581  0.00  0.00    +0.236 C 
BRANCH  20   5
ATOM      5  O   UNL     1     -15.989   7.992  33.384  0.00  0.00    -0.375 OA
ATOM     23  C   UNL     1     -16.299   8.650  32.166  0.00  0.00    +0.194 C 
ENDBRANCH  20   5
ENDBRANCH  19  20
ENDBRANCH  14  16
ENDBRANCH   9  14
BRANCH  10  15
ATOM     15  C   UNL     1     -15.531   2.611  29.325  0.00  0.00    +0.140 C 
BRANCH  15   6
ATOM      4  O   UNL     1     -17.385   2.952  27.140  0.00  0.00    -0.253 OA
ATOM      6  N   UNL     1     -15.273   3.238  28.065  0.00  0.00    -0.297 N 
ATOM      8  N   UNL     1     -15.711   4.014  25.933  0.00  0.00    -0.300 N 
ATOM     18  C   UNL     1     -16.229   3.364  27.051  0.00  0.00    +0.300 C 
ATOM     25  H   UNL     1     -14.331   3.570  27.879  0.00  0.00    +0.150 HD
ATOM     26  H   UNL     1     -14.742   4.314  25.949  0.00  0.00    +0.150 HD
BRANCH   8  21
ATOM     21  C   UNL     1     -16.493   4.271  24.747  0.00  0.00    +0.102 C 
ATOM     22  C   UNL     1     -16.294   3.190  23.705  0.00  0.00    +0.024 C 
ENDBRANCH   8  21
ENDBRANCH  15   6
ENDBRANCH  10  15
TORSDOF 8
ENDMDL
MODEL 8
REMARK VINA RESULT:      -5.6     26.600     29.178
REMARK  Name = 75366956
REMARK  10 active torsions:
REMARK  status: ('A' for Active; 'I' for Inactive)
REMARK    1  A    between atoms: O_2  and  C_11
REMARK    2  A    between atoms: O_5  and  C_20
REMARK    3  A    between atoms: O_5  and  C_23
REMARK    4  A    between atoms: N_6  and  C_15
REMARK    5  A    between atoms: N_8  and  C_21
REMARK    6  A    between atoms: C_9  and  C_14
REMARK    7  A    between atoms: C_10  and  C_15
REMARK    8  A    between atoms: C_14  and  C_16
REMARK    9  A    between atoms: C_19  and  C_20
REMARK   10  A    between atoms: C_21  and  C_22
REMARK                            x       y       z     vdW  Elec       q    Type
REMARK                         _______ _______ _______ _____ _____    ______ ____
ROOT
ATOM      1  O   UNL     1      -8.161 -11.292  19.417  0.00  0.00    -0.369 OA
ATOM      9  C   UNL     1      -8.767 -10.659  18.288  0.00  0.00    +0.125 C 
ATOM     10  C   UNL     1      -6.860 -11.846  19.180  0.00  0.00    +0.164 C 
ATOM     11  C   UNL     1      -6.878 -12.835  18.007  0.00  0.00    +0.145 C 
ATOM     12  C   UNL     1      -8.912 -11.646  17.131  0.00  0.00    +0.034 C 
ATOM     13  C   UNL     1      -7.562 -12.258  16.771  0.00  0.00    +0.036 C 
ENDROOT
BRANCH  11   2
ATOM      2  O   UNL     1      -7.604 -14.003  18.402  0.00  0.00    -0.389 OA
ATOM     24  H   UNL     1      -6.954 -14.700  18.597  0.00  0.00    +0.210 HD
ENDBRANCH  11   2
BRANCH   9  14
ATOM     14  C   UNL     1     -10.128 -10.136  18.731  0.00  0.00    +0.090 C 
BRANCH  14  16
ATOM      3  O   UNL     1     -12.029  -7.873  16.670  0.00  0.00    -0.357 OA
ATOM      7  N   UNL     1     -11.915  -8.988  17.492  0.00  0.00    -0.083 NA
ATOM     16  C   UNL     1     -10.624  -9.039  17.830  0.00  0.00    +0.086 A 
ATOM     17  C   UNL     1      -9.881  -7.993  17.256  0.00  0.00    +0.073 A 
ATOM     19  C   UNL     1     -10.811  -7.289  16.537  0.00  0.00    +0.163 A 
BRANCH  19  20
ATOM     20  C   UNL     1     -10.749  -6.088  15.695  0.00  0.00    +0.236 C 
BRANCH  20   5
ATOM      5  O   UNL     1     -12.067  -5.672  15.327  0.00  0.00    -0.375 OA
ATOM     23  C   UNL     1     -12.167  -5.465  13.927  0.00  0.00    +0.194 C 
ENDBRANCH  20   5
ENDBRANCH  19  20
ENDBRANCH  14  16
ENDBRANCH   9  14
BRANCH  10  15
ATOM     15  C   UNL     1      -5.815 -10.744  19.015  0.00  0.00    +0.140 C 
BRANCH  15   6
ATOM      4  O   UNL     1      -4.730  -9.867  16.489  0.00  0.00    -0.253 OA
ATOM      6  N   UNL     1      -4.643 -11.241  18.360  0.00  0.00    -0.297 N 
ATOM      8  N   UNL     1      -3.022 -11.420  16.723  0.00  0.00    -0.300 N 
ATOM     18  C   UNL     1      -4.180 -10.761  17.129  0.00  0.00    +0.300 C 
ATOM     25  H   UNL     1      -4.145 -12.015  18.791  0.00  0.00    +0.150 HD
ATOM     26  H   UNL     1      -2.642 -12.151  17.317  0.00  0.00    +0.150 HD
BRANCH   8  21
ATOM     21  C   UNL     1      -2.342 -11.113  15.487  0.00  0.00    +0.102 C 
ATOM     22  C   UNL     1      -1.128 -10.239  15.724  0.00  0.00    +0.024 C 
ENDBRANCH   8  21
ENDBRANCH  15   6
ENDBRANCH  10  15
TORSDOF 8
ENDMDL
MODEL 9
REMARK VINA RESULT:      -5.5     26.387     28.831
REMARK  Name = 75366956
REMARK  10 active torsions:
REMARK  status: ('A' for Active; 'I' for Inactive)
REMARK    1  A    between atoms: O_2  and  C_11
REMARK    2  A    between atoms: O_5  and  C_20
REMARK    3  A    between atoms: O_5  and  C_23
REMARK    4  A    between atoms: N_6  and  C_15
REMARK    5  A    between atoms: N_8  and  C_21
REMARK    6  A    between atoms: C_9  and  C_14
REMARK    7  A    between atoms: C_10  and  C_15
REMARK    8  A    between atoms: C_14  and  C_16
REMARK    9  A    between atoms: C_19  and  C_20
REMARK   10  A    between atoms: C_21  and  C_22
REMARK                            x       y       z     vdW  Elec       q    Type
REMARK                         _______ _______ _______ _____ _____    ______ ____
ROOT
ATOM      1  O   UNL     1      -8.335  -8.554  17.705  0.00  0.00    -0.369 OA
ATOM      9  C   UNL     1      -9.626  -8.855  17.169  0.00  0.00    +0.125 C 
ATOM     10  C   UNL     1      -7.376  -9.616  17.615  0.00  0.00    +0.164 C 
ATOM     11  C   UNL     1      -7.898 -10.900  18.270  0.00  0.00    +0.145 C 
ATOM     12  C   UNL     1     -10.236 -10.062  17.879  0.00  0.00    +0.034 C 
ATOM     13  C   UNL     1      -9.302 -11.265  17.796  0.00  0.00    +0.036 C 
ENDROOT
BRANCH  11   2
ATOM      2  O   UNL     1      -7.954 -10.703  19.686  0.00  0.00    -0.389 OA
ATOM     24  H   UNL     1      -7.389  -9.941  19.899  0.00  0.00    +0.210 HD
ENDBRANCH  11   2
BRANCH   9  14
ATOM     14  C   UNL     1     -10.498  -7.618  17.353  0.00  0.00    +0.090 C 
BRANCH  14  16
ATOM      3  O   UNL     1     -11.661  -7.237  13.964  0.00  0.00    -0.357 OA
ATOM      7  N   UNL     1     -10.993  -7.933  14.964  0.00  0.00    -0.083 NA
ATOM     16  C   UNL     1     -11.109  -7.170  16.054  0.00  0.00    +0.086 A 
ATOM     17  C   UNL     1     -11.833  -5.990  15.804  0.00  0.00    +0.073 A 
ATOM     19  C   UNL     1     -12.156  -6.082  14.477  0.00  0.00    +0.163 A 
BRANCH  19  20
ATOM     20  C   UNL     1     -12.897  -5.218  13.548  0.00  0.00    +0.236 C 
BRANCH  20   5
ATOM      5  O   UNL     1     -12.018  -4.255  12.960  0.00  0.00    -0.375 OA
ATOM     23  C   UNL     1     -12.607  -3.653  11.818  0.00  0.00    +0.194 C 
ENDBRANCH  20   5
ENDBRANCH  19  20
ENDBRANCH  14  16
ENDBRANCH   9  14
BRANCH  10  15
ATOM     15  C   UNL     1      -6.922  -9.825  16.171  0.00  0.00    +0.140 C 
BRANCH  15   6
ATOM      4  O   UNL     1      -4.758 -11.677  16.636  0.00  0.00    -0.253 OA
ATOM      6  N   UNL     1      -5.521  -9.568  16.031  0.00  0.00    -0.297 N 
ATOM      8  N   UNL     1      -3.252 -10.008  16.063  0.00  0.00    -0.300 N 
ATOM     18  C   UNL     1      -4.528 -10.524  16.277  0.00  0.00    +0.300 C 
ATOM     25  H   UNL     1      -5.229  -8.628  15.781  0.00  0.00    +0.150 HD
ATOM     26  H   UNL     1      -3.160  -9.040  15.771  0.00  0.00    +0.150 HD
BRANCH   8  21
ATOM     21  C   UNL     1      -2.053 -10.790  16.247  0.00  0.00    +0.102 C 
ATOM     22  C   UNL     1      -0.850 -10.120  15.615  0.00  0.00    +0.024 C 
ENDBRANCH   8  21
ENDBRANCH  15   6
ENDBRANCH  10  15
TORSDOF 8
ENDMDL
MODEL 10
REMARK VINA RESULT:      -5.5     27.816     29.241
REMARK  Name = 75366956
REMARK  10 active torsions:
REMARK  status: ('A' for Active; 'I' for Inactive)
REMARK    1  A    between atoms: O_2  and  C_11
REMARK    2  A    between atoms: O_5  and  C_20
REMARK    3  A    between atoms: O_5  and  C_23
REMARK    4  A    between atoms: N_6  and  C_15
REMARK    5  A    between atoms: N_8  and  C_21
REMARK    6  A    between atoms: C_9  and  C_14
REMARK    7  A    between atoms: C_10  and  C_15
REMARK    8  A    between atoms: C_14  and  C_16
REMARK    9  A    between atoms: C_19  and  C_20
REMARK   10  A    between atoms: C_21  and  C_22
REMARK                            x       y       z     vdW  Elec       q    Type
REMARK                         _______ _______ _______ _____ _____    ______ ____
ROOT
ATOM      1  O   UNL     1      -6.903 -11.865  17.335  0.00  0.00    -0.369 OA
ATOM      9  C   UNL     1      -6.298 -10.667  16.840  0.00  0.00    +0.125 C 
ATOM     10  C   UNL     1      -6.333 -12.379  18.546  0.00  0.00    +0.164 C 
ATOM     11  C   UNL     1      -4.824 -12.610  18.400  0.00  0.00    +0.145 C 
ATOM     12  C   UNL     1      -4.811 -10.888  16.568  0.00  0.00    +0.034 C 
ATOM     13  C   UNL     1      -4.103 -11.396  17.821  0.00  0.00    +0.036 C 
ENDROOT
BRANCH  11   2
ATOM      2  O   UNL     1      -4.611 -13.709  17.510  0.00  0.00    -0.389 OA
ATOM     24  H   UNL     1      -3.815 -14.180  17.810  0.00  0.00    +0.210 HD
ENDBRANCH  11   2
BRANCH   9  14
ATOM     14  C   UNL     1      -7.032 -10.278  15.562  0.00  0.00    +0.090 C 
BRANCH  14  16
ATOM      3  O   UNL     1      -9.488  -8.042  16.960  0.00  0.00    -0.357 OA
ATOM      7  N   UNL     1      -8.316  -8.786  17.037  0.00  0.00    -0.083 NA
ATOM     16  C   UNL     1      -8.205  -9.380  15.846  0.00  0.00    +0.086 A 
ATOM     17  C   UNL     1      -9.267  -9.053  14.985  0.00  0.00    +0.073 A 
ATOM     19  C   UNL     1     -10.045  -8.210  15.734  0.00  0.00    +0.163 A 
BRANCH  19  20
ATOM     20  C   UNL     1     -11.300  -7.490  15.480  0.00  0.00    +0.236 C 
BRANCH  20   5
ATOM      5  O   UNL     1     -11.037  -6.104  15.247  0.00  0.00    -0.375 OA
ATOM     23  C   UNL     1     -11.986  -5.545  14.353  0.00  0.00    +0.194 C 
ENDBRANCH  20   5
ENDBRANCH  19  20
ENDBRANCH  14  16
ENDBRANCH   9  14
BRANCH  10  15
ATOM     15  C   UNL     1      -6.689 -11.496  19.740  0.00  0.00    +0.140 C 
BRANCH  15   6
ATOM      4  O   UNL     1      -9.453 -12.031  20.375  0.00  0.00    -0.253 OA
ATOM      6  N   UNL     1      -7.818 -10.666  19.447  0.00  0.00    -0.297 N 
ATOM      8  N   UNL     1     -10.034 -10.014  19.387  0.00  0.00    -0.300 N 
ATOM     18  C   UNL     1      -9.134 -10.998  19.790  0.00  0.00    +0.300 C 
ATOM     25  H   UNL     1      -7.661  -9.811  18.923  0.00  0.00    +0.150 HD
ATOM     26  H   UNL     1      -9.678  -9.195  18.904  0.00  0.00    +0.150 HD
BRANCH   8  21
ATOM     21  C   UNL     1     -11.456 -10.113  19.620  0.00  0.00    +0.102 C 
ATOM     22  C   UNL     1     -12.250  -9.572  18.450  0.00  0.00    +0.024 C 
ENDBRANCH   8  21
ENDBRANCH  15   6
ENDBRANCH  10  15
TORSDOF 8
ENDMDL
