MODEL 1
REMARK VINA RESULT:      -7.8      0.000      0.000
REMARK  Name = 45783907
REMARK  9 active torsions:
REMARK  status: ('A' for Active; 'I' for Inactive)
REMARK    1  A    between atoms: N_2  and  C_13
REMARK    2  A    between atoms: C_8  and  C_12
REMARK    3  A    between atoms: C_9  and  C_13
REMARK    4  A    between atoms: C_11  and  C_16
REMARK    5  A    between atoms: C_12  and  C_17
REMARK    6  A    between atoms: C_12  and  C_18
REMARK    7  A    between atoms: C_15  and  C_21
REMARK    8  A    between atoms: C_16  and  C_24
REMARK    9  A    between atoms: C_26  and  C_27
REMARK                            x       y       z     vdW  Elec       q    Type
REMARK                         _______ _______ _______ _____ _____    ______ ____
ROOT
ATOM      8  C   UNL     1      -5.411 -10.494  10.777  0.00  0.00    +0.000 C 
ATOM      9  C   UNL     1      -4.645 -10.138   9.482  0.00  0.00    +0.029 C 
ATOM     10  C   UNL     1      -4.483 -11.205  11.771  0.00  0.00    +0.012 C 
ATOM     11  C   UNL     1      -3.225 -10.385  12.129  0.00  0.00    +0.024 C 
ATOM     14  C   UNL     1      -3.279  -9.562   9.756  0.00  0.00    -0.023 C 
ATOM     15  C   UNL     1      -2.633  -9.652  10.934  0.00  0.00    -0.073 C 
ATOM     21  C   UNL     1      -1.309  -8.966  11.126  0.00  0.00    +0.039 C 
ENDROOT
BRANCH   8  12
ATOM     12  C   UNL     1      -6.052  -9.251  11.408  0.00  0.00    -0.013 C 
ATOM     17  C   UNL     1      -7.195  -8.741  10.534  0.00  0.00    +0.007 C 
ATOM     18  C   UNL     1      -6.547  -9.564  12.816  0.00  0.00    +0.007 C 
ENDBRANCH   8  12
BRANCH   9  13
ATOM     13  C   UNL     1      -4.505 -11.350   8.555  0.00  0.00    +0.092 C 
BRANCH  13   2
ATOM      2  N   UNL     1      -4.859 -10.993   7.182  0.00  0.00    -0.299 NA
ATOM      3  N   UNL     1      -6.510 -10.918   4.852  0.00  0.00    -0.297 N 
ATOM      6  N   UNL     1      -7.254 -11.946   2.891  0.00  0.00    -0.223 NA
ATOM      7  N   UNL     1      -7.791  -9.646   3.370  0.00  0.00    -0.223 NA
ATOM     19  C   UNL     1      -6.079 -10.176   7.160  0.00  0.00    +0.103 C 
ATOM     20  C   UNL     1      -5.054 -12.202   6.371  0.00  0.00    +0.103 C 
ATOM     22  C   UNL     1      -6.430  -9.749   5.733  0.00  0.00    +0.123 C 
ATOM     23  C   UNL     1      -5.370 -11.842   4.917  0.00  0.00    +0.123 C 
ATOM     25  C   UNL     1      -7.218 -10.833   3.648  0.00  0.00    +0.218 A 
ATOM     28  C   UNL     1      -7.945 -11.828   1.738  0.00  0.00    +0.116 A 
ATOM     29  C   UNL     1      -8.465  -9.599   2.203  0.00  0.00    +0.116 A 
ATOM     30  C   UNL     1      -8.577 -10.668   1.338  0.00  0.00    +0.039 A 
ENDBRANCH  13   2
ENDBRANCH   9  13
BRANCH  11  16
ATOM     16  C   UNL     1      -2.216 -11.310  12.819  0.00  0.00    +0.105 C 
BRANCH  16  24
ATOM      1  O   UNL     1      -3.429 -11.169  14.932  0.00  0.00    -0.420 OA
ATOM      4  N   UNL     1      -1.218 -10.893  15.125  0.00  0.00    -0.112 NA
ATOM      5  N   UNL     1      -1.772 -10.790  16.387  0.00  0.00    -0.107 NA
ATOM     24  C   UNL     1      -2.221 -11.115  14.308  0.00  0.00    +0.218 A 
ATOM     26  C   UNL     1      -3.064 -10.957  16.226  0.00  0.00    +0.248 A 
BRANCH  26  27
ATOM     27  C   UNL     1      -4.131 -10.951  17.186  0.00  0.00    +0.038 A 
ATOM     31  C   UNL     1      -5.291 -10.220  16.934  0.00  0.00    +0.013 A 
ATOM     32  C   UNL     1      -4.007 -11.678  18.370  0.00  0.00    +0.013 A 
ATOM     33  C   UNL     1      -6.329 -10.215  17.868  0.00  0.00    +0.001 A 
ATOM     34  C   UNL     1      -5.044 -11.672  19.303  0.00  0.00    +0.001 A 
ATOM     35  C   UNL     1      -6.204 -10.941  19.051  0.00  0.00    +0.000 A 
ENDBRANCH  26  27
ENDBRANCH  16  24
ENDBRANCH  11  16
TORSDOF 6
ENDMDL
MODEL 2
REMARK VINA RESULT:      -7.4      4.854      9.593
REMARK  Name = 45783907
REMARK  9 active torsions:
REMARK  status: ('A' for Active; 'I' for Inactive)
REMARK    1  A    between atoms: N_2  and  C_13
REMARK    2  A    between atoms: C_8  and  C_12
REMARK    3  A    between atoms: C_9  and  C_13
REMARK    4  A    between atoms: C_11  and  C_16
REMARK    5  A    between atoms: C_12  and  C_17
REMARK    6  A    between atoms: C_12  and  C_18
REMARK    7  A    between atoms: C_15  and  C_21
REMARK    8  A    between atoms: C_16  and  C_24
REMARK    9  A    between atoms: C_26  and  C_27
REMARK                            x       y       z     vdW  Elec       q    Type
REMARK                         _______ _______ _______ _____ _____    ______ ____
ROOT
ATOM      8  C   UNL     1      -7.084 -12.186  17.038  0.00  0.00    +0.000 C 
ATOM      9  C   UNL     1      -7.196 -11.832  18.539  0.00  0.00    +0.029 C 
ATOM     10  C   UNL     1      -5.824 -11.555  16.429  0.00  0.00    +0.012 C 
ATOM     11  C   UNL     1      -4.524 -11.968  17.151  0.00  0.00    +0.024 C 
ATOM     14  C   UNL     1      -5.881 -11.965  19.265  0.00  0.00    -0.023 C 
ATOM     15  C   UNL     1      -4.679 -12.039  18.663  0.00  0.00    -0.073 C 
ATOM     21  C   UNL     1      -3.435 -12.257  19.480  0.00  0.00    +0.039 C 
ENDROOT
BRANCH   8  12
ATOM     12  C   UNL     1      -7.107 -13.705  16.818  0.00  0.00    -0.013 C 
ATOM     17  C   UNL     1      -8.298 -14.329  17.540  0.00  0.00    +0.007 C 
ATOM     18  C   UNL     1      -7.149 -14.026  15.328  0.00  0.00    +0.007 C 
ENDBRANCH   8  12
BRANCH   9  13
ATOM     13  C   UNL     1      -7.747 -10.418  18.749  0.00  0.00    +0.092 C 
BRANCH  13   2
ATOM      2  N   UNL     1      -8.779 -10.114  17.759  0.00  0.00    -0.299 NA
ATOM      3  N   UNL     1     -10.891  -8.597  16.576  0.00  0.00    -0.297 N 
ATOM      6  N   UNL     1     -13.160  -8.048  16.496  0.00  0.00    -0.223 NA
ATOM      7  N   UNL     1     -11.639  -7.305  14.781  0.00  0.00    -0.223 NA
ATOM     19  C   UNL     1      -8.495  -8.837  17.093  0.00  0.00    +0.103 C 
ATOM     20  C   UNL     1     -10.101 -10.061  18.396  0.00  0.00    +0.103 C 
ATOM     22  C   UNL     1      -9.539  -8.535  16.015  0.00  0.00    +0.123 C 
ATOM     23  C   UNL     1     -11.199  -9.800  17.361  0.00  0.00    +0.123 C 
ATOM     25  C   UNL     1     -11.946  -7.953  15.921  0.00  0.00    +0.218 A 
ATOM     28  C   UNL     1     -14.153  -7.416  15.837  0.00  0.00    +0.116 A 
ATOM     29  C   UNL     1     -12.679  -6.696  14.174  0.00  0.00    +0.116 A 
ATOM     30  C   UNL     1     -13.970  -6.718  14.660  0.00  0.00    +0.039 A 
ENDBRANCH  13   2
ENDBRANCH   9  13
BRANCH  11  16
ATOM     16  C   UNL     1      -3.398 -11.024  16.712  0.00  0.00    +0.105 C 
BRANCH  16  24
ATOM      1  O   UNL     1      -3.736 -10.377  14.383  0.00  0.00    -0.420 OA
ATOM      4  N   UNL     1      -2.247 -12.021  14.670  0.00  0.00    -0.112 NA
ATOM      5  N   UNL     1      -2.337 -11.759  13.316  0.00  0.00    -0.107 NA
ATOM     24  C   UNL     1      -3.080 -11.191  15.254  0.00  0.00    +0.218 A 
ATOM     26  C   UNL     1      -3.218 -10.794  13.195  0.00  0.00    +0.248 A 
BRANCH  26  27
ATOM     27  C   UNL     1      -3.709 -10.122  12.026  0.00  0.00    +0.038 A 
ATOM     31  C   UNL     1      -2.860  -9.895  10.944  0.00  0.00    +0.013 A 
ATOM     32  C   UNL     1      -5.037  -9.696  11.974  0.00  0.00    +0.013 A 
ATOM     33  C   UNL     1      -3.338  -9.241   9.808  0.00  0.00    +0.001 A 
ATOM     34  C   UNL     1      -5.514  -9.042  10.837  0.00  0.00    +0.001 A 
ATOM     35  C   UNL     1      -4.665  -8.815   9.755  0.00  0.00    +0.000 A 
ENDBRANCH  26  27
ENDBRANCH  16  24
ENDBRANCH  11  16
TORSDOF 6
ENDMDL
MODEL 3
REMARK VINA RESULT:      -7.2      3.087      6.092
REMARK  Name = 45783907
REMARK  9 active torsions:
REMARK  status: ('A' for Active; 'I' for Inactive)
REMARK    1  A    between atoms: N_2  and  C_13
REMARK    2  A    between atoms: C_8  and  C_12
REMARK    3  A    between atoms: C_9  and  C_13
REMARK    4  A    between atoms: C_11  and  C_16
REMARK    5  A    between atoms: C_12  and  C_17
REMARK    6  A    between atoms: C_12  and  C_18
REMARK    7  A    between atoms: C_15  and  C_21
REMARK    8  A    between atoms: C_16  and  C_24
REMARK    9  A    between atoms: C_26  and  C_27
REMARK                            x       y       z     vdW  Elec       q    Type
REMARK                         _______ _______ _______ _____ _____    ______ ____
ROOT
ATOM      8  C   UNL     1      -3.628 -10.443  15.450  0.00  0.00    +0.000 C 
ATOM      9  C   UNL     1      -4.746 -11.167  14.664  0.00  0.00    +0.029 C 
ATOM     10  C   UNL     1      -4.045 -10.237  16.912  0.00  0.00    +0.012 C 
ATOM     11  C   UNL     1      -4.412 -11.551  17.635  0.00  0.00    +0.024 C 
ATOM     14  C   UNL     1      -5.340 -12.321  15.432  0.00  0.00    -0.023 C 
ATOM     15  C   UNL     1      -5.192 -12.516  16.755  0.00  0.00    -0.073 C 
ATOM     21  C   UNL     1      -5.754 -13.750  17.407  0.00  0.00    +0.039 C 
ENDROOT
BRANCH   8  12
ATOM     12  C   UNL     1      -2.297 -11.202  15.353  0.00  0.00    -0.013 C 
ATOM     17  C   UNL     1      -2.102 -11.758  13.946  0.00  0.00    +0.007 C 
ATOM     18  C   UNL     1      -1.137 -10.291  15.740  0.00  0.00    +0.007 C 
ENDBRANCH   8  12
BRANCH   9  13
ATOM     13  C   UNL     1      -5.867 -10.204  14.257  0.00  0.00    +0.092 C 
BRANCH  13   2
ATOM      2  N   UNL     1      -6.248 -10.416  12.861  0.00  0.00    -0.299 NA
ATOM      3  N   UNL     1      -6.391  -9.801  10.076  0.00  0.00    -0.297 N 
ATOM      6  N   UNL     1      -7.434  -8.652   8.330  0.00  0.00    -0.223 NA
ATOM      7  N   UNL     1      -5.792 -10.360   7.889  0.00  0.00    -0.223 NA
ATOM     19  C   UNL     1      -5.055 -10.528  12.013  0.00  0.00    +0.103 C 
ATOM     20  C   UNL     1      -7.096  -9.315  12.387  0.00  0.00    +0.103 C 
ATOM     22  C   UNL     1      -5.440 -10.807  10.558  0.00  0.00    +0.123 C 
ATOM     23  C   UNL     1      -7.549  -9.554  10.945  0.00  0.00    +0.123 C 
ATOM     25  C   UNL     1      -6.546  -9.594   8.700  0.00  0.00    +0.218 A 
ATOM     28  C   UNL     1      -7.558  -8.479   6.997  0.00  0.00    +0.116 A 
ATOM     29  C   UNL     1      -5.966 -10.135   6.570  0.00  0.00    +0.116 A 
ATOM     30  C   UNL     1      -6.843  -9.199   6.062  0.00  0.00    +0.039 A 
ENDBRANCH  13   2
ENDBRANCH   9  13
BRANCH  11  16
ATOM     16  C   UNL     1      -5.145 -11.206  18.937  0.00  0.00    +0.105 C 
BRANCH  16  24
ATOM      1  O   UNL     1      -6.987 -10.091  17.788  0.00  0.00    -0.420 OA
ATOM      4  N   UNL     1      -7.633 -11.640  19.266  0.00  0.00    -0.112 NA
ATOM      5  N   UNL     1      -8.768 -11.095  18.696  0.00  0.00    -0.107 NA
ATOM     24  C   UNL     1      -6.618 -11.024  18.706  0.00  0.00    +0.218 A 
ATOM     26  C   UNL     1      -8.343 -10.195  17.840  0.00  0.00    +0.248 A 
BRANCH  26  27
ATOM     27  C   UNL     1      -9.073  -9.322  16.967  0.00  0.00    +0.038 A 
ATOM     31  C   UNL     1      -9.201  -9.636  15.614  0.00  0.00    +0.013 A 
ATOM     32  C   UNL     1      -9.655  -8.159  17.471  0.00  0.00    +0.013 A 
ATOM     33  C   UNL     1      -9.912  -8.787  14.765  0.00  0.00    +0.001 A 
ATOM     34  C   UNL     1     -10.365  -7.310  16.622  0.00  0.00    +0.001 A 
ATOM     35  C   UNL     1     -10.493  -7.624  15.270  0.00  0.00    +0.000 A 
ENDBRANCH  26  27
ENDBRANCH  16  24
ENDBRANCH  11  16
TORSDOF 6
ENDMDL
MODEL 4
REMARK VINA RESULT:      -7.2      4.147     10.543
REMARK  Name = 45783907
REMARK  9 active torsions:
REMARK  status: ('A' for Active; 'I' for Inactive)
REMARK    1  A    between atoms: N_2  and  C_13
REMARK    2  A    between atoms: C_8  and  C_12
REMARK    3  A    between atoms: C_9  and  C_13
REMARK    4  A    between atoms: C_11  and  C_16
REMARK    5  A    between atoms: C_12  and  C_17
REMARK    6  A    between atoms: C_12  and  C_18
REMARK    7  A    between atoms: C_15  and  C_21
REMARK    8  A    between atoms: C_16  and  C_24
REMARK    9  A    between atoms: C_26  and  C_27
REMARK                            x       y       z     vdW  Elec       q    Type
REMARK                         _______ _______ _______ _____ _____    ______ ____
ROOT
ATOM      8  C   UNL     1      -5.139 -12.027  15.524  0.00  0.00    +0.000 C 
ATOM      9  C   UNL     1      -4.779 -11.074  16.688  0.00  0.00    +0.029 C 
ATOM     10  C   UNL     1      -4.564 -11.501  14.202  0.00  0.00    +0.012 C 
ATOM     11  C   UNL     1      -3.035 -11.291  14.239  0.00  0.00    +0.024 C 
ATOM     14  C   UNL     1      -3.344 -10.615  16.639  0.00  0.00    -0.023 C 
ATOM     15  C   UNL     1      -2.546 -10.714  15.559  0.00  0.00    -0.073 C 
ATOM     21  C   UNL     1      -1.101 -10.304  15.645  0.00  0.00    +0.039 C 
ENDROOT
BRANCH   8  12
ATOM     12  C   UNL     1      -4.663 -13.458  15.806  0.00  0.00    -0.013 C 
ATOM     17  C   UNL     1      -5.164 -13.927  17.169  0.00  0.00    +0.007 C 
ATOM     18  C   UNL     1      -5.134 -14.402  14.704  0.00  0.00    +0.007 C 
ENDBRANCH   8  12
BRANCH   9  13
ATOM     13  C   UNL     1      -5.699  -9.849  16.722  0.00  0.00    +0.092 C 
BRANCH  13   2
ATOM      2  N   UNL     1      -7.067 -10.240  17.061  0.00  0.00    -0.299 NA
ATOM      3  N   UNL     1      -9.656  -9.924  18.225  0.00  0.00    -0.297 N 
ATOM      6  N   UNL     1     -11.042 -10.078  20.099  0.00  0.00    -0.223 NA
ATOM      7  N   UNL     1     -11.956  -9.677  17.906  0.00  0.00    -0.223 NA
ATOM     19  C   UNL     1      -8.031  -9.294  16.485  0.00  0.00    +0.103 C 
ATOM     20  C   UNL     1      -7.238 -10.302  18.518  0.00  0.00    +0.103 C 
ATOM     22  C   UNL     1      -9.469  -9.723  16.785  0.00  0.00    +0.123 C 
ATOM     23  C   UNL     1      -8.650 -10.765  18.885  0.00  0.00    +0.123 C 
ATOM     25  C   UNL     1     -10.945  -9.891  18.769  0.00  0.00    +0.218 A 
ATOM     28  C   UNL     1     -12.298 -10.041  20.589  0.00  0.00    +0.116 A 
ATOM     29  C   UNL     1     -13.185  -9.652  18.463  0.00  0.00    +0.116 A 
ATOM     30  C   UNL     1     -13.418  -9.830  19.811  0.00  0.00    +0.039 A 
ENDBRANCH  13   2
ENDBRANCH   9  13
BRANCH  11  16
ATOM     16  C   UNL     1      -2.627 -10.442  13.030  0.00  0.00    +0.105 C 
BRANCH  16  24
ATOM      1  O   UNL     1      -3.888 -10.242  10.950  0.00  0.00    -0.420 OA
ATOM      4  N   UNL     1      -2.936 -12.243  11.256  0.00  0.00    -0.112 NA
ATOM      5  N   UNL     1      -3.611 -12.272  10.050  0.00  0.00    -0.107 NA
ATOM     24  C   UNL     1      -3.125 -11.040  11.746  0.00  0.00    +0.218 A 
ATOM     26  C   UNL     1      -4.152 -11.083   9.913  0.00  0.00    +0.248 A 
BRANCH  26  27
ATOM     27  C   UNL     1      -4.961 -10.544   8.858  0.00  0.00    +0.038 A 
ATOM     31  C   UNL     1      -4.805 -11.008   7.553  0.00  0.00    +0.013 A 
ATOM     32  C   UNL     1      -5.904  -9.555   9.140  0.00  0.00    +0.013 A 
ATOM     33  C   UNL     1      -5.594 -10.483   6.528  0.00  0.00    +0.001 A 
ATOM     34  C   UNL     1      -6.692  -9.031   8.115  0.00  0.00    +0.001 A 
ATOM     35  C   UNL     1      -6.536  -9.495   6.809  0.00  0.00    +0.000 A 
ENDBRANCH  26  27
ENDBRANCH  16  24
ENDBRANCH  11  16
TORSDOF 6
ENDMDL
MODEL 5
REMARK VINA RESULT:      -7.1      2.902     10.584
REMARK  Name = 45783907
REMARK  9 active torsions:
REMARK  status: ('A' for Active; 'I' for Inactive)
REMARK    1  A    between atoms: N_2  and  C_13
REMARK    2  A    between atoms: C_8  and  C_12
REMARK    3  A    between atoms: C_9  and  C_13
REMARK    4  A    between atoms: C_11  and  C_16
REMARK    5  A    between atoms: C_12  and  C_17
REMARK    6  A    between atoms: C_12  and  C_18
REMARK    7  A    between atoms: C_15  and  C_21
REMARK    8  A    between atoms: C_16  and  C_24
REMARK    9  A    between atoms: C_26  and  C_27
REMARK                            x       y       z     vdW  Elec       q    Type
REMARK                         _______ _______ _______ _____ _____    ______ ____
ROOT
ATOM      8  C   UNL     1      -4.199 -11.780  12.914  0.00  0.00    +0.000 C 
ATOM      9  C   UNL     1      -3.022 -11.324  13.808  0.00  0.00    +0.029 C 
ATOM     10  C   UNL     1      -4.632 -10.645  11.976  0.00  0.00    +0.012 C 
ATOM     11  C   UNL     1      -3.487 -10.116  11.086  0.00  0.00    +0.024 C 
ATOM     14  C   UNL     1      -1.973 -10.562  13.040  0.00  0.00    -0.023 C 
ATOM     15  C   UNL     1      -2.157 -10.025  11.818  0.00  0.00    -0.073 C 
ATOM     21  C   UNL     1      -1.015  -9.358  11.103  0.00  0.00    +0.039 C 
ENDROOT
BRANCH   8  12
ATOM     12  C   UNL     1      -3.844 -13.047  12.126  0.00  0.00    -0.013 C 
ATOM     17  C   UNL     1      -3.273 -14.111  13.058  0.00  0.00    +0.007 C 
ATOM     18  C   UNL     1      -5.070 -13.576  11.389  0.00  0.00    +0.007 C 
ENDBRANCH   8  12
BRANCH   9  13
ATOM     13  C   UNL     1      -3.503 -10.471  14.987  0.00  0.00    +0.092 C 
BRANCH  13   2
ATOM      2  N   UNL     1      -4.779 -10.969  15.498  0.00  0.00    -0.299 NA
ATOM      3  N   UNL     1      -6.755 -11.519  17.486  0.00  0.00    -0.297 N 
ATOM      6  N   UNL     1      -7.563 -12.917  19.173  0.00  0.00    -0.223 NA
ATOM      7  N   UNL     1      -8.889 -11.089  18.333  0.00  0.00    -0.223 NA
ATOM     19  C   UNL     1      -5.556  -9.876  16.097  0.00  0.00    +0.103 C 
ATOM     20  C   UNL     1      -4.557 -12.026  16.492  0.00  0.00    +0.103 C 
ATOM     22  C   UNL     1      -6.918 -10.374  16.585  0.00  0.00    +0.123 C 
ATOM     23  C   UNL     1      -5.886 -12.596  16.993  0.00  0.00    +0.123 C 
ATOM     25  C   UNL     1      -7.783 -11.858  18.372  0.00  0.00    +0.218 A 
ATOM     28  C   UNL     1      -8.574 -13.216  20.014  0.00  0.00    +0.116 A 
ATOM     29  C   UNL     1      -9.860 -11.444  19.199  0.00  0.00    +0.116 A 
ATOM     30  C   UNL     1      -9.758 -12.507  20.072  0.00  0.00    +0.039 A 
ENDBRANCH  13   2
ENDBRANCH   9  13
BRANCH  11  16
ATOM     16  C   UNL     1      -3.922  -8.781  10.471  0.00  0.00    +0.105 C 
BRANCH  16  24
ATOM      1  O   UNL     1      -4.596  -9.780   8.349  0.00  0.00    -0.420 OA
ATOM      4  N   UNL     1      -6.162  -8.492   9.293  0.00  0.00    -0.112 NA
ATOM      5  N   UNL     1      -6.675  -8.988   8.109  0.00  0.00    -0.107 NA
ATOM     24  C   UNL     1      -4.947  -8.980   9.392  0.00  0.00    +0.218 A 
ATOM     26  C   UNL     1      -5.727  -9.734   7.592  0.00  0.00    +0.248 A 
BRANCH  26  27
ATOM     27  C   UNL     1      -5.699 -10.494   6.376  0.00  0.00    +0.038 A 
ATOM     31  C   UNL     1      -6.698 -10.317   5.420  0.00  0.00    +0.013 A 
ATOM     32  C   UNL     1      -4.671 -11.411   6.150  0.00  0.00    +0.013 A 
ATOM     33  C   UNL     1      -6.670 -11.057   4.237  0.00  0.00    +0.001 A 
ATOM     34  C   UNL     1      -4.644 -12.150   4.968  0.00  0.00    +0.001 A 
ATOM     35  C   UNL     1      -5.644 -11.973   4.012  0.00  0.00    +0.000 A 
ENDBRANCH  26  27
ENDBRANCH  16  24
ENDBRANCH  11  16
TORSDOF 6
ENDMDL
MODEL 6
REMARK VINA RESULT:      -7.0      5.505     11.914
REMARK  Name = 45783907
REMARK  9 active torsions:
REMARK  status: ('A' for Active; 'I' for Inactive)
REMARK    1  A    between atoms: N_2  and  C_13
REMARK    2  A    between atoms: C_8  and  C_12
REMARK    3  A    between atoms: C_9  and  C_13
REMARK    4  A    between atoms: C_11  and  C_16
REMARK    5  A    between atoms: C_12  and  C_17
REMARK    6  A    between atoms: C_12  and  C_18
REMARK    7  A    between atoms: C_15  and  C_21
REMARK    8  A    between atoms: C_16  and  C_24
REMARK    9  A    between atoms: C_26  and  C_27
REMARK                            x       y       z     vdW  Elec       q    Type
REMARK                         _______ _______ _______ _____ _____    ______ ____
ROOT
ATOM      8  C   UNL     1      -7.364 -12.494  17.108  0.00  0.00    +0.000 C 
ATOM      9  C   UNL     1      -7.484 -12.170  18.616  0.00  0.00    +0.029 C 
ATOM     10  C   UNL     1      -6.200 -11.714  16.483  0.00  0.00    +0.012 C 
ATOM     11  C   UNL     1      -4.845 -11.977  17.173  0.00  0.00    +0.024 C 
ATOM     14  C   UNL     1      -6.148 -12.154  19.313  0.00  0.00    -0.023 C 
ATOM     15  C   UNL     1      -4.958 -12.080  18.687  0.00  0.00    -0.073 C 
ATOM     21  C   UNL     1      -3.680 -12.158  19.475  0.00  0.00    +0.039 C 
ENDROOT
BRANCH   8  12
ATOM     12  C   UNL     1      -7.213 -14.002  16.871  0.00  0.00    -0.013 C 
ATOM     17  C   UNL     1      -8.355 -14.763  17.538  0.00  0.00    +0.007 C 
ATOM     18  C   UNL     1      -7.164 -14.303  15.377  0.00  0.00    +0.007 C 
ENDBRANCH   8  12
BRANCH   9  13
ATOM     13  C   UNL     1      -8.193 -10.832  18.853  0.00  0.00    +0.092 C 
BRANCH  13   2
ATOM      2  N   UNL     1      -9.327 -11.003  19.760  0.00  0.00    -0.299 NA
ATOM      3  N   UNL     1     -12.016 -11.648  20.479  0.00  0.00    -0.297 N 
ATOM      6  N   UNL     1     -14.251 -10.997  20.661  0.00  0.00    -0.223 NA
ATOM      7  N   UNL     1     -13.475 -13.061  21.632  0.00  0.00    -0.223 NA
ATOM     19  C   UNL     1      -9.784 -12.399  19.757  0.00  0.00    +0.103 C 
ATOM     20  C   UNL     1     -10.432 -10.116  19.373  0.00  0.00    +0.103 C 
ATOM     22  C   UNL     1     -10.935 -12.603  20.745  0.00  0.00    +0.123 C 
ATOM     23  C   UNL     1     -11.605 -10.244  20.348  0.00  0.00    +0.123 C 
ATOM     25  C   UNL     1     -13.308 -11.914  20.945  0.00  0.00    +0.218 A 
ATOM     28  C   UNL     1     -15.485 -11.285  21.125  0.00  0.00    +0.116 A 
ATOM     29  C   UNL     1     -14.732 -13.286  22.067  0.00  0.00    +0.116 A 
ATOM     30  C   UNL     1     -15.786 -12.425  21.842  0.00  0.00    +0.039 A 
ENDBRANCH  13   2
ENDBRANCH   9  13
BRANCH  11  16
ATOM     16  C   UNL     1      -3.848 -10.903  16.722  0.00  0.00    +0.105 C 
BRANCH  16  24
ATOM      1  O   UNL     1      -4.022 -10.365  14.348  0.00  0.00    -0.420 OA
ATOM      4  N   UNL     1      -2.512 -11.946  14.821  0.00  0.00    -0.112 NA
ATOM      5  N   UNL     1      -2.504 -11.744  13.453  0.00  0.00    -0.107 NA
ATOM     24  C   UNL     1      -3.412 -11.120  15.302  0.00  0.00    +0.218 A 
ATOM     26  C   UNL     1      -3.401 -10.813  13.223  0.00  0.00    +0.248 A 
BRANCH  26  27
ATOM     27  C   UNL     1      -3.819 -10.206  11.992  0.00  0.00    +0.038 A 
ATOM     31  C   UNL     1      -2.868  -9.808  11.053  0.00  0.00    +0.013 A 
ATOM     32  C   UNL     1      -5.177 -10.016  11.735  0.00  0.00    +0.013 A 
ATOM     33  C   UNL     1      -3.275  -9.218   9.856  0.00  0.00    +0.001 A 
ATOM     34  C   UNL     1      -5.583  -9.425  10.537  0.00  0.00    +0.001 A 
ATOM     35  C   UNL     1      -4.632  -9.027   9.599  0.00  0.00    +0.000 A 
ENDBRANCH  26  27
ENDBRANCH  16  24
ENDBRANCH  11  16
TORSDOF 6
ENDMDL
MODEL 7
REMARK VINA RESULT:      -6.9      3.117     10.258
REMARK  Name = 45783907
REMARK  9 active torsions:
REMARK  status: ('A' for Active; 'I' for Inactive)
REMARK    1  A    between atoms: N_2  and  C_13
REMARK    2  A    between atoms: C_8  and  C_12
REMARK    3  A    between atoms: C_9  and  C_13
REMARK    4  A    between atoms: C_11  and  C_16
REMARK    5  A    between atoms: C_12  and  C_17
REMARK    6  A    between atoms: C_12  and  C_18
REMARK    7  A    between atoms: C_15  and  C_21
REMARK    8  A    between atoms: C_16  and  C_24
REMARK    9  A    between atoms: C_26  and  C_27
REMARK                            x       y       z     vdW  Elec       q    Type
REMARK                         _______ _______ _______ _____ _____    ______ ____
ROOT
ATOM      8  C   UNL     1      -3.709 -11.869  12.805  0.00  0.00    +0.000 C 
ATOM      9  C   UNL     1      -2.598 -11.320  13.730  0.00  0.00    +0.029 C 
ATOM     10  C   UNL     1      -4.218 -10.768  11.865  0.00  0.00    +0.012 C 
ATOM     11  C   UNL     1      -3.103 -10.133  11.006  0.00  0.00    +0.024 C 
ATOM     14  C   UNL     1      -1.602 -10.462  12.993  0.00  0.00    -0.023 C 
ATOM     15  C   UNL     1      -1.804  -9.932  11.771  0.00  0.00    -0.073 C 
ATOM     21  C   UNL     1      -0.707  -9.161  11.089  0.00  0.00    +0.039 C 
ENDROOT
BRANCH   8  12
ATOM     12  C   UNL     1      -3.226 -13.093  12.016  0.00  0.00    -0.013 C 
ATOM     17  C   UNL     1      -2.597 -14.117  12.957  0.00  0.00    +0.007 C 
ATOM     18  C   UNL     1      -4.380 -13.713  11.236  0.00  0.00    +0.007 C 
ENDBRANCH   8  12
BRANCH   9  13
ATOM     13  C   UNL     1      -3.179 -10.523  14.903  0.00  0.00    +0.092 C 
BRANCH  13   2
ATOM      2  N   UNL     1      -4.369 -11.184  15.437  0.00  0.00    -0.299 NA
ATOM      3  N   UNL     1      -6.483 -11.636  17.304  0.00  0.00    -0.297 N 
ATOM      6  N   UNL     1      -7.224 -12.613  19.292  0.00  0.00    -0.223 NA
ATOM      7  N   UNL     1      -8.775 -11.601  17.750  0.00  0.00    -0.223 NA
ATOM     19  C   UNL     1      -5.482 -10.233  15.544  0.00  0.00    +0.103 C 
ATOM     20  C   UNL     1      -4.084 -11.769  16.753  0.00  0.00    +0.103 C 
ATOM     22  C   UNL     1      -6.750 -10.926  16.049  0.00  0.00    +0.123 C 
ATOM     23  C   UNL     1      -5.305 -12.514  17.299  0.00  0.00    +0.123 C 
ATOM     25  C   UNL     1      -7.543 -11.965  18.155  0.00  0.00    +0.218 A 
ATOM     28  C   UNL     1      -8.270 -12.914  20.089  0.00  0.00    +0.116 A 
ATOM     29  C   UNL     1      -9.774 -11.933  18.594  0.00  0.00    +0.116 A 
ATOM     30  C   UNL     1      -9.579 -12.597  19.787  0.00  0.00    +0.039 A 
ENDBRANCH  13   2
ENDBRANCH   9  13
BRANCH  11  16
ATOM     16  C   UNL     1      -3.638  -8.835  10.390  0.00  0.00    +0.105 C 
BRANCH  16  24
ATOM      1  O   UNL     1      -5.710  -8.241   9.245  0.00  0.00    -0.420 OA
ATOM      4  N   UNL     1      -4.727 -10.090   8.459  0.00  0.00    -0.112 NA
ATOM      5  N   UNL     1      -5.878  -9.874   7.725  0.00  0.00    -0.107 NA
ATOM     24  C   UNL     1      -4.669  -9.112   9.334  0.00  0.00    +0.218 A 
ATOM     26  C   UNL     1      -6.419  -8.785   8.219  0.00  0.00    +0.248 A 
BRANCH  26  27
ATOM     27  C   UNL     1      -7.621  -8.093   7.850  0.00  0.00    +0.038 A 
ATOM     31  C   UNL     1      -7.970  -7.970   6.506  0.00  0.00    +0.013 A 
ATOM     32  C   UNL     1      -8.439  -7.542   8.837  0.00  0.00    +0.013 A 
ATOM     33  C   UNL     1      -9.139  -7.296   6.148  0.00  0.00    +0.001 A 
ATOM     34  C   UNL     1      -9.607  -6.868   8.479  0.00  0.00    +0.001 A 
ATOM     35  C   UNL     1      -9.956  -6.746   7.135  0.00  0.00    +0.000 A 
ENDBRANCH  26  27
ENDBRANCH  16  24
ENDBRANCH  11  16
TORSDOF 6
ENDMDL
MODEL 8
REMARK VINA RESULT:      -6.9      1.478      2.745
REMARK  Name = 45783907
REMARK  9 active torsions:
REMARK  status: ('A' for Active; 'I' for Inactive)
REMARK    1  A    between atoms: N_2  and  C_13
REMARK    2  A    between atoms: C_8  and  C_12
REMARK    3  A    between atoms: C_9  and  C_13
REMARK    4  A    between atoms: C_11  and  C_16
REMARK    5  A    between atoms: C_12  and  C_17
REMARK    6  A    between atoms: C_12  and  C_18
REMARK    7  A    between atoms: C_15  and  C_21
REMARK    8  A    between atoms: C_16  and  C_24
REMARK    9  A    between atoms: C_26  and  C_27
REMARK                            x       y       z     vdW  Elec       q    Type
REMARK                         _______ _______ _______ _____ _____    ______ ____
ROOT
ATOM      8  C   UNL     1      -4.379 -12.774   9.925  0.00  0.00    +0.000 C 
ATOM      9  C   UNL     1      -5.412 -11.780   9.345  0.00  0.00    +0.029 C 
ATOM     10  C   UNL     1      -3.365 -12.038  10.810  0.00  0.00    +0.012 C 
ATOM     11  C   UNL     1      -4.018 -11.246  11.963  0.00  0.00    +0.024 C 
ATOM     14  C   UNL     1      -5.908 -10.794  10.372  0.00  0.00    -0.023 C 
ATOM     15  C   UNL     1      -5.307 -10.550  11.552  0.00  0.00    -0.073 C 
ATOM     21  C   UNL     1      -5.934  -9.608  12.542  0.00  0.00    +0.039 C 
ENDROOT
BRANCH   8  12
ATOM     12  C   UNL     1      -5.068 -13.909  10.695  0.00  0.00    -0.013 C 
ATOM     17  C   UNL     1      -6.186 -14.519   9.855  0.00  0.00    +0.007 C 
ATOM     18  C   UNL     1      -4.051 -14.973  11.095  0.00  0.00    +0.007 C 
ENDBRANCH   8  12
BRANCH   9  13
ATOM     13  C   UNL     1      -4.849 -11.014   8.143  0.00  0.00    +0.092 C 
BRANCH  13   2
ATOM      2  N   UNL     1      -5.884 -10.810   7.130  0.00  0.00    -0.299 NA
ATOM      3  N   UNL     1      -7.078  -9.613   4.828  0.00  0.00    -0.297 N 
ATOM      6  N   UNL     1      -8.324  -7.871   3.896  0.00  0.00    -0.223 NA
ATOM      7  N   UNL     1      -7.810  -9.852   2.624  0.00  0.00    -0.223 NA
ATOM     19  C   UNL     1      -5.353 -11.085   5.789  0.00  0.00    +0.103 C 
ATOM     20  C   UNL     1      -6.398  -9.436   7.191  0.00  0.00    +0.103 C 
ATOM     22  C   UNL     1      -6.442 -10.930   4.724  0.00  0.00    +0.123 C 
ATOM     23  C   UNL     1      -7.522  -9.225   6.173  0.00  0.00    +0.123 C 
ATOM     25  C   UNL     1      -7.769  -9.087   3.731  0.00  0.00    +0.218 A 
ATOM     28  C   UNL     1      -8.983  -7.395   2.819  0.00  0.00    +0.116 A 
ATOM     29  C   UNL     1      -8.486  -9.316   1.586  0.00  0.00    +0.116 A 
ATOM     30  C   UNL     1      -9.098  -8.081   1.626  0.00  0.00    +0.039 A 
ENDBRANCH  13   2
ENDBRANCH   9  13
BRANCH  11  16
ATOM     16  C   UNL     1      -2.979 -10.281  12.546  0.00  0.00    +0.105 C 
BRANCH  16  24
ATOM      1  O   UNL     1      -3.855 -10.574  14.806  0.00  0.00    -0.420 OA
ATOM      4  N   UNL     1      -1.629 -10.734  14.658  0.00  0.00    -0.112 NA
ATOM      5  N   UNL     1      -1.983 -10.918  15.981  0.00  0.00    -0.107 NA
ATOM     24  C   UNL     1      -2.753 -10.536  14.009  0.00  0.00    +0.218 A 
ATOM     26  C   UNL     1      -3.291 -10.816  16.020  0.00  0.00    +0.248 A 
BRANCH  26  27
ATOM     27  C   UNL     1      -4.201 -10.919  17.125  0.00  0.00    +0.038 A 
ATOM     31  C   UNL     1      -3.846 -11.656  18.254  0.00  0.00    +0.013 A 
ATOM     32  C   UNL     1      -5.440 -10.281  17.069  0.00  0.00    +0.013 A 
ATOM     33  C   UNL     1      -4.732 -11.756  19.328  0.00  0.00    +0.001 A 
ATOM     34  C   UNL     1      -6.325 -10.381  18.143  0.00  0.00    +0.001 A 
ATOM     35  C   UNL     1      -5.970 -11.119  19.271  0.00  0.00    +0.000 A 
ENDBRANCH  26  27
ENDBRANCH  16  24
ENDBRANCH  11  16
TORSDOF 6
ENDMDL
MODEL 9
REMARK VINA RESULT:      -6.9     21.604     23.453
REMARK  Name = 45783907
REMARK  9 active torsions:
REMARK  status: ('A' for Active; 'I' for Inactive)
REMARK    1  A    between atoms: N_2  and  C_13
REMARK    2  A    between atoms: C_8  and  C_12
REMARK    3  A    between atoms: C_9  and  C_13
REMARK    4  A    between atoms: C_11  and  C_16
REMARK    5  A    between atoms: C_12  and  C_17
REMARK    6  A    between atoms: C_12  and  C_18
REMARK    7  A    between atoms: C_15  and  C_21
REMARK    8  A    between atoms: C_16  and  C_24
REMARK    9  A    between atoms: C_26  and  C_27
REMARK                            x       y       z     vdW  Elec       q    Type
REMARK                         _______ _______ _______ _____ _____    ______ ____
ROOT
ATOM      8  C   UNL     1     -13.586   8.819  20.502  0.00  0.00    +0.000 C 
ATOM      9  C   UNL     1     -12.374   8.065  19.907  0.00  0.00    +0.029 C 
ATOM     10  C   UNL     1     -14.720   7.838  20.831  0.00  0.00    +0.012 C 
ATOM     11  C   UNL     1     -14.293   6.710  21.795  0.00  0.00    +0.024 C 
ATOM     14  C   UNL     1     -12.057   6.796  20.655  0.00  0.00    -0.023 C 
ATOM     15  C   UNL     1     -12.895   6.182  21.511  0.00  0.00    -0.073 C 
ATOM     21  C   UNL     1     -12.444   4.965  22.272  0.00  0.00    +0.039 C 
ENDROOT
BRANCH   8  12
ATOM     12  C   UNL     1     -13.185   9.637  21.736  0.00  0.00    -0.013 C 
ATOM     17  C   UNL     1     -12.182  10.721  21.352  0.00  0.00    +0.007 C 
ATOM     18  C   UNL     1     -14.417  10.249  22.393  0.00  0.00    +0.007 C 
ENDBRANCH   8  12
BRANCH   9  13
ATOM     13  C   UNL     1     -12.583   7.737  18.424  0.00  0.00    +0.092 C 
BRANCH  13   2
ATOM      2  N   UNL     1     -11.810   8.647  17.581  0.00  0.00    -0.299 NA
ATOM      3  N   UNL     1     -10.699  11.157  16.788  0.00  0.00    -0.297 N 
ATOM      6  N   UNL     1     -10.955  13.203  15.690  0.00  0.00    -0.223 NA
ATOM      7  N   UNL     1      -8.794  12.467  16.460  0.00  0.00    -0.223 NA
ATOM     19  C   UNL     1     -10.710   9.249  18.345  0.00  0.00    +0.103 C 
ATOM     20  C   UNL     1     -12.674   9.702  17.036  0.00  0.00    +0.103 C 
ATOM     22  C   UNL     1      -9.858  10.161  17.458  0.00  0.00    +0.123 C 
ATOM     23  C   UNL     1     -11.888  10.629  16.105  0.00  0.00    +0.123 C 
ATOM     25  C   UNL     1     -10.123  12.331  16.290  0.00  0.00    +0.218 A 
ATOM     28  C   UNL     1     -10.366  14.323  15.222  0.00  0.00    +0.116 A 
ATOM     29  C   UNL     1      -8.271  13.609  15.968  0.00  0.00    +0.116 A 
ATOM     30  C   UNL     1      -9.015  14.582  15.334  0.00  0.00    +0.039 A 
ENDBRANCH  13   2
ENDBRANCH   9  13
BRANCH  11  16
ATOM     16  C   UNL     1     -15.362   5.611  21.768  0.00  0.00    +0.105 C 
BRANCH  16  24
ATOM      1  O   UNL     1     -15.806   4.211  23.717  0.00  0.00    -0.420 OA
ATOM      4  N   UNL     1     -16.701   6.257  23.837  0.00  0.00    -0.112 NA
ATOM      5  N   UNL     1     -17.028   5.580  24.996  0.00  0.00    -0.107 NA
ATOM     24  C   UNL     1     -15.987   5.420  23.120  0.00  0.00    +0.218 A 
ATOM     26  C   UNL     1     -16.485   4.390  24.882  0.00  0.00    +0.248 A 
BRANCH  26  27
ATOM     27  C   UNL     1     -16.496   3.271  25.780  0.00  0.00    +0.038 A 
ATOM     31  C   UNL     1     -16.256   3.466  27.140  0.00  0.00    +0.013 A 
ATOM     32  C   UNL     1     -16.748   1.988  25.292  0.00  0.00    +0.013 A 
ATOM     33  C   UNL     1     -16.267   2.377  28.013  0.00  0.00    +0.001 A 
ATOM     34  C   UNL     1     -16.759   0.900  26.165  0.00  0.00    +0.001 A 
ATOM     35  C   UNL     1     -16.518   1.095  27.525  0.00  0.00    +0.000 A 
ENDBRANCH  26  27
ENDBRANCH  16  24
ENDBRANCH  11  16
TORSDOF 6
ENDMDL
MODEL 10
REMARK VINA RESULT:      -6.8      4.357      6.376
REMARK  Name = 45783907
REMARK  9 active torsions:
REMARK  status: ('A' for Active; 'I' for Inactive)
REMARK    1  A    between atoms: N_2  and  C_13
REMARK    2  A    between atoms: C_8  and  C_12
REMARK    3  A    between atoms: C_9  and  C_13
REMARK    4  A    between atoms: C_11  and  C_16
REMARK    5  A    between atoms: C_12  and  C_17
REMARK    6  A    between atoms: C_12  and  C_18
REMARK    7  A    between atoms: C_15  and  C_21
REMARK    8  A    between atoms: C_16  and  C_24
REMARK    9  A    between atoms: C_26  and  C_27
REMARK                            x       y       z     vdW  Elec       q    Type
REMARK                         _______ _______ _______ _____ _____    ______ ____
ROOT
ATOM      8  C   UNL     1      -4.579 -10.438  11.834  0.00  0.00    +0.000 C 
ATOM      9  C   UNL     1      -5.668 -11.499  12.117  0.00  0.00    +0.029 C 
ATOM     10  C   UNL     1      -3.295 -10.766  12.609  0.00  0.00    +0.012 C 
ATOM     11  C   UNL     1      -2.735 -12.171  12.299  0.00  0.00    +0.024 C 
ATOM     14  C   UNL     1      -5.127 -12.906  12.087  0.00  0.00    -0.023 C 
ATOM     15  C   UNL     1      -3.821 -13.226  12.155  0.00  0.00    -0.073 C 
ATOM     21  C   UNL     1      -3.384 -14.660  12.029  0.00  0.00    +0.039 C 
ENDROOT
BRANCH   8  12
ATOM     12  C   UNL     1      -4.302 -10.308  10.330  0.00  0.00    -0.013 C 
ATOM     17  C   UNL     1      -5.596 -10.016   9.575  0.00  0.00    +0.007 C 
ATOM     18  C   UNL     1      -3.268  -9.218  10.072  0.00  0.00    +0.007 C 
ENDBRANCH   8  12
BRANCH   9  13
ATOM     13  C   UNL     1      -6.361 -11.255  13.462  0.00  0.00    +0.092 C 
BRANCH  13   2
ATOM      2  N   UNL     1      -7.471 -10.315  13.307  0.00  0.00    -0.299 NA
ATOM      3  N   UNL     1     -10.207  -9.496  13.268  0.00  0.00    -0.297 N 
ATOM      6  N   UNL     1     -12.227  -9.316  12.109  0.00  0.00    -0.223 NA
ATOM      7  N   UNL     1     -11.906  -8.213  14.227  0.00  0.00    -0.223 NA
ATOM     19  C   UNL     1      -8.233 -10.207  14.557  0.00  0.00    +0.103 C 
ATOM     20  C   UNL     1      -8.358 -10.743  12.217  0.00  0.00    +0.103 C 
ATOM     22  C   UNL     1      -9.363  -9.183  14.425  0.00  0.00    +0.123 C 
ATOM     23  C   UNL     1      -9.493  -9.737  12.007  0.00  0.00    +0.123 C 
ATOM     25  C   UNL     1     -11.508  -8.985  13.198  0.00  0.00    +0.218 A 
ATOM     28  C   UNL     1     -13.476  -8.807  12.075  0.00  0.00    +0.116 A 
ATOM     29  C   UNL     1     -13.164  -7.737  14.128  0.00  0.00    +0.116 A 
ATOM     30  C   UNL     1     -14.003  -8.003  13.065  0.00  0.00    +0.039 A 
ENDBRANCH  13   2
ENDBRANCH   9  13
BRANCH  11  16
ATOM     16  C   UNL     1      -1.693 -12.529  13.365  0.00  0.00    +0.105 C 
BRANCH  16  24
ATOM      1  O   UNL     1      -3.106 -11.915  15.258  0.00  0.00    -0.420 OA
ATOM      4  N   UNL     1      -1.108 -10.909  15.242  0.00  0.00    -0.112 NA
ATOM      5  N   UNL     1      -1.797 -10.473  16.358  0.00  0.00    -0.107 NA
ATOM     24  C   UNL     1      -1.911 -11.749  14.630  0.00  0.00    +0.218 A 
ATOM     26  C   UNL     1      -2.957 -11.085  16.326  0.00  0.00    +0.248 A 
BRANCH  26  27
ATOM     27  C   UNL     1      -4.071 -11.017  17.228  0.00  0.00    +0.038 A 
ATOM     31  C   UNL     1      -4.039 -11.722  18.430  0.00  0.00    +0.013 A 
ATOM     32  C   UNL     1      -5.186 -10.246  16.900  0.00  0.00    +0.013 A 
ATOM     33  C   UNL     1      -5.123 -11.656  19.307  0.00  0.00    +0.001 A 
ATOM     34  C   UNL     1      -6.270 -10.180  17.777  0.00  0.00    +0.001 A 
ATOM     35  C   UNL     1      -6.238 -10.885  18.979  0.00  0.00    +0.000 A 
ENDBRANCH  26  27
ENDBRANCH  16  24
ENDBRANCH  11  16
TORSDOF 6
ENDMDL
