MODEL 1
REMARK VINA RESULT:      -7.0      0.000      0.000
REMARK  Name = 45783662
REMARK  7 active torsions:
REMARK  status: ('A' for Active; 'I' for Inactive)
REMARK    1  A    between atoms: O_3  and  C_22
REMARK    2  A    between atoms: N_4  and  C_14
REMARK    3  A    between atoms: N_8  and  C_26
REMARK    4  A    between atoms: C_10  and  C_15
REMARK    5  A    between atoms: C_14  and  C_16
REMARK    6  A    between atoms: C_18  and  C_21
REMARK    7  A    between atoms: C_19  and  C_22
REMARK                            x       y       z     vdW  Elec       q    Type
REMARK                         _______ _______ _______ _____ _____    ______ ____
ROOT
ATOM      1  O   UNL     1      21.506   5.989  21.424  0.00  0.00    -0.336 OA
ATOM      5  N   UNL     1      19.643   6.519  22.547  0.00  0.00    -0.190 NA
ATOM      6  N   UNL     1      20.484   6.061  20.470  0.00  0.00    -0.056 NA
ATOM     15  C   UNL     1      20.926   6.270  22.620  0.00  0.00    +0.245 A 
ATOM     18  C   UNL     1      19.417   6.378  21.210  0.00  0.00    +0.204 A 
ENDROOT
BRANCH  18  21
ATOM      7  N   UNL     1      15.911   7.549  20.798  0.00  0.00    -0.237 NA
ATOM     21  C   UNL     1      18.111   6.558  20.643  0.00  0.00    +0.041 A 
ATOM     23  C   UNL     1      17.762   5.952  19.441  0.00  0.00    +0.017 A 
ATOM     24  C   UNL     1      17.159   7.340  21.277  0.00  0.00    +0.124 A 
ATOM     25  C   UNL     1      16.488   6.144  18.917  0.00  0.00    +0.047 A 
ATOM     26  C   UNL     1      15.608   6.943  19.628  0.00  0.00    +0.139 A 
BRANCH  26   8
ATOM      8  N   UNL     1      14.337   7.138  19.109  0.00  0.00    -0.290 N 
ATOM      9  N   UNL     1      12.119   7.162  18.991  0.00  0.00    -0.244 NA
ATOM     27  C   UNL     1      14.034   7.627  17.869  0.00  0.00    +0.114 A 
ATOM     28  C   UNL     1      13.156   6.873  19.746  0.00  0.00    +0.205 A 
ATOM     29  C   UNL     1      12.660   7.633  17.820  0.00  0.00    +0.130 A 
ENDBRANCH  26   8
ENDBRANCH  18  21
BRANCH  15  10
ATOM      4  N   UNL     1      23.086   5.512  23.594  0.00  0.00    -0.284 NA
ATOM     10  C   UNL     1      21.834   6.258  23.831  0.00  0.00    +0.146 C 
ATOM     11  C   UNL     1      22.292   7.668  24.247  0.00  0.00    +0.030 C 
ATOM     12  C   UNL     1      23.812   7.601  24.273  0.00  0.00    +0.017 C 
ATOM     13  C   UNL     1      24.101   6.124  24.451  0.00  0.00    +0.085 C 
BRANCH   4  14
ATOM     14  C   UNL     1      22.957   4.080  23.836  0.00  0.00    +0.159 C 
BRANCH  14  16
ATOM      2  O   UNL     1      24.037   3.968  21.657  0.00  0.00    -0.461 OA
ATOM     16  C   UNL     1      23.548   3.267  22.714  0.00  0.00    +0.119 A 
ATOM     17  C   UNL     1      23.708   1.916  22.514  0.00  0.00    +0.046 A 
ATOM     19  C   UNL     1      24.515   3.053  20.772  0.00  0.00    +0.131 A 
ATOM     20  C   UNL     1      24.337   1.778  21.253  0.00  0.00    +0.047 A 
BRANCH  19  22
ATOM     22  C   UNL     1      25.102   3.590  19.537  0.00  0.00    +0.230 C 
BRANCH  22   3
ATOM      3  O   UNL     1      24.647   2.840  18.407  0.00  0.00    -0.387 OA
ATOM     30  H   UNL     1      24.715   1.899  18.645  0.00  0.00    +0.210 HD
ENDBRANCH  22   3
ENDBRANCH  19  22
ENDBRANCH  14  16
ENDBRANCH   4  14
ENDBRANCH  15  10
TORSDOF 7
ENDMDL
MODEL 2
REMARK VINA RESULT:      -6.9      3.562     10.390
REMARK  Name = 45783662
REMARK  7 active torsions:
REMARK  status: ('A' for Active; 'I' for Inactive)
REMARK    1  A    between atoms: O_3  and  C_22
REMARK    2  A    between atoms: N_4  and  C_14
REMARK    3  A    between atoms: N_8  and  C_26
REMARK    4  A    between atoms: C_10  and  C_15
REMARK    5  A    between atoms: C_14  and  C_16
REMARK    6  A    between atoms: C_18  and  C_21
REMARK    7  A    between atoms: C_19  and  C_22
REMARK                            x       y       z     vdW  Elec       q    Type
REMARK                         _______ _______ _______ _____ _____    ______ ____
ROOT
ATOM      1  O   UNL     1      15.520   8.319  19.847  0.00  0.00    -0.336 OA
ATOM      5  N   UNL     1      16.371   6.357  19.184  0.00  0.00    -0.190 NA
ATOM      6  N   UNL     1      16.728   8.165  20.539  0.00  0.00    -0.056 NA
ATOM     15  C   UNL     1      15.385   7.211  19.073  0.00  0.00    +0.245 A 
ATOM     18  C   UNL     1      17.170   6.984  20.094  0.00  0.00    +0.204 A 
ENDROOT
BRANCH  18  21
ATOM      7  N   UNL     1      20.129   4.737  20.244  0.00  0.00    -0.237 NA
ATOM     21  C   UNL     1      18.404   6.405  20.541  0.00  0.00    +0.041 A 
ATOM     23  C   UNL     1      19.066   6.902  21.658  0.00  0.00    +0.017 A 
ATOM     24  C   UNL     1      18.971   5.330  19.875  0.00  0.00    +0.124 A 
ATOM     25  C   UNL     1      20.259   6.317  22.069  0.00  0.00    +0.047 A 
ATOM     26  C   UNL     1      20.744   5.247  21.335  0.00  0.00    +0.139 A 
BRANCH  26   8
ATOM      8  N   UNL     1      21.933   4.661  21.740  0.00  0.00    -0.290 N 
ATOM      9  N   UNL     1      23.569   3.167  21.898  0.00  0.00    -0.244 NA
ATOM     27  C   UNL     1      22.837   5.189  22.618  0.00  0.00    +0.114 A 
ATOM     28  C   UNL     1      22.415   3.447  21.335  0.00  0.00    +0.205 A 
ATOM     29  C   UNL     1      23.838   4.250  22.699  0.00  0.00    +0.130 A 
ENDBRANCH  26   8
ENDBRANCH  18  21
BRANCH  15  10
ATOM      4  N   UNL     1      12.968   7.761  18.856  0.00  0.00    -0.284 NA
ATOM     10  C   UNL     1      14.141   7.135  18.213  0.00  0.00    +0.146 C 
ATOM     11  C   UNL     1      14.296   7.878  16.874  0.00  0.00    +0.030 C 
ATOM     12  C   UNL     1      13.134   8.858  16.826  0.00  0.00    +0.017 C 
ATOM     13  C   UNL     1      12.117   8.253  17.773  0.00  0.00    +0.085 C 
BRANCH   4  14
ATOM     14  C   UNL     1      12.252   6.858  19.749  0.00  0.00    +0.159 C 
BRANCH  14  16
ATOM      2  O   UNL     1      12.078   8.856  21.127  0.00  0.00    -0.461 OA
ATOM     16  C   UNL     1      11.629   7.593  20.906  0.00  0.00    +0.119 A 
ATOM     17  C   UNL     1      10.666   7.253  21.828  0.00  0.00    +0.046 A 
ATOM     19  C   UNL     1      11.393   9.328  22.203  0.00  0.00    +0.131 A 
ATOM     20  C   UNL     1      10.513   8.381  22.669  0.00  0.00    +0.047 A 
BRANCH  19  22
ATOM     22  C   UNL     1      11.717  10.697  22.629  0.00  0.00    +0.230 C 
BRANCH  22   3
ATOM      3  O   UNL     1      12.397  10.675  23.887  0.00  0.00    -0.387 OA
ATOM     30  H   UNL     1      12.429   9.747  24.176  0.00  0.00    +0.210 HD
ENDBRANCH  22   3
ENDBRANCH  19  22
ENDBRANCH  14  16
ENDBRANCH   4  14
ENDBRANCH  15  10
TORSDOF 7
ENDMDL
MODEL 3
REMARK VINA RESULT:      -6.9      4.470     10.705
REMARK  Name = 45783662
REMARK  7 active torsions:
REMARK  status: ('A' for Active; 'I' for Inactive)
REMARK    1  A    between atoms: O_3  and  C_22
REMARK    2  A    between atoms: N_4  and  C_14
REMARK    3  A    between atoms: N_8  and  C_26
REMARK    4  A    between atoms: C_10  and  C_15
REMARK    5  A    between atoms: C_14  and  C_16
REMARK    6  A    between atoms: C_18  and  C_21
REMARK    7  A    between atoms: C_19  and  C_22
REMARK                            x       y       z     vdW  Elec       q    Type
REMARK                         _______ _______ _______ _____ _____    ______ ____
ROOT
ATOM      1  O   UNL     1      14.901   8.849  19.841  0.00  0.00    -0.336 OA
ATOM      5  N   UNL     1      15.332   6.670  20.130  0.00  0.00    -0.190 NA
ATOM      6  N   UNL     1      16.274   8.755  20.098  0.00  0.00    -0.056 NA
ATOM     15  C   UNL     1      14.422   7.578  19.880  0.00  0.00    +0.245 A 
ATOM     18  C   UNL     1      16.452   7.439  20.257  0.00  0.00    +0.204 A 
ENDROOT
BRANCH  18  21
ATOM      7  N   UNL     1      19.729   6.843  21.910  0.00  0.00    -0.237 NA
ATOM     21  C   UNL     1      17.733   6.863  20.546  0.00  0.00    +0.041 A 
ATOM     23  C   UNL     1      18.233   5.810  19.787  0.00  0.00    +0.017 A 
ATOM     24  C   UNL     1      18.513   7.340  21.587  0.00  0.00    +0.124 A 
ATOM     25  C   UNL     1      19.479   5.274  20.089  0.00  0.00    +0.047 A 
ATOM     26  C   UNL     1      20.182   5.821  21.150  0.00  0.00    +0.139 A 
BRANCH  26   8
ATOM      8  N   UNL     1      21.425   5.289  21.455  0.00  0.00    -0.290 N 
ATOM      9  N   UNL     1      23.178   4.656  22.664  0.00  0.00    -0.244 NA
ATOM     27  C   UNL     1      22.313   4.747  20.570  0.00  0.00    +0.114 A 
ATOM     28  C   UNL     1      21.988   5.212  22.700  0.00  0.00    +0.205 A 
ATOM     29  C   UNL     1      23.386   4.363  21.339  0.00  0.00    +0.130 A 
ENDBRANCH  26   8
ENDBRANCH  18  21
BRANCH  15  10
ATOM      4  N   UNL     1      12.142   8.540  20.138  0.00  0.00    -0.284 NA
ATOM     10  C   UNL     1      12.939   7.406  19.628  0.00  0.00    +0.146 C 
ATOM     11  C   UNL     1      12.595   7.328  18.130  0.00  0.00    +0.030 C 
ATOM     12  C   UNL     1      11.554   8.416  17.904  0.00  0.00    +0.017 C 
ATOM     13  C   UNL     1      10.961   8.633  19.281  0.00  0.00    +0.085 C 
BRANCH   4  14
ATOM     14  C   UNL     1      11.789   8.408  21.547  0.00  0.00    +0.159 C 
BRANCH  14  16
ATOM      2  O   UNL     1      11.204  10.069  23.227  0.00  0.00    -0.461 OA
ATOM     16  C   UNL     1      12.133   9.648  22.329  0.00  0.00    +0.119 A 
ATOM     17  C   UNL     1      13.226  10.483  22.336  0.00  0.00    +0.046 A 
ATOM     19  C   UNL     1      11.709  11.186  23.813  0.00  0.00    +0.131 A 
ATOM     20  C   UNL     1      12.950  11.482  23.300  0.00  0.00    +0.047 A 
BRANCH  19  22
ATOM     22  C   UNL     1      10.864  11.823  24.833  0.00  0.00    +0.230 C 
BRANCH  22   3
ATOM      3  O   UNL     1       9.796  12.542  24.211  0.00  0.00    -0.387 OA
ATOM     30  H   UNL     1       9.749  12.238  23.289  0.00  0.00    +0.210 HD
ENDBRANCH  22   3
ENDBRANCH  19  22
ENDBRANCH  14  16
ENDBRANCH   4  14
ENDBRANCH  15  10
TORSDOF 7
ENDMDL
MODEL 4
REMARK VINA RESULT:      -6.8      4.649      9.827
REMARK  Name = 45783662
REMARK  7 active torsions:
REMARK  status: ('A' for Active; 'I' for Inactive)
REMARK    1  A    between atoms: O_3  and  C_22
REMARK    2  A    between atoms: N_4  and  C_14
REMARK    3  A    between atoms: N_8  and  C_26
REMARK    4  A    between atoms: C_10  and  C_15
REMARK    5  A    between atoms: C_14  and  C_16
REMARK    6  A    between atoms: C_18  and  C_21
REMARK    7  A    between atoms: C_19  and  C_22
REMARK                            x       y       z     vdW  Elec       q    Type
REMARK                         _______ _______ _______ _____ _____    ______ ____
ROOT
ATOM      1  O   UNL     1      14.724  11.863  21.126  0.00  0.00    -0.336 OA
ATOM      5  N   UNL     1      14.815  10.049  22.435  0.00  0.00    -0.190 NA
ATOM      6  N   UNL     1      15.855  11.146  20.718  0.00  0.00    -0.056 NA
ATOM     15  C   UNL     1      14.170  11.149  22.141  0.00  0.00    +0.245 A 
ATOM     18  C   UNL     1      15.841  10.089  21.537  0.00  0.00    +0.204 A 
ENDROOT
BRANCH  18  21
ATOM      7  N   UNL     1      19.146   8.402  21.782  0.00  0.00    -0.237 NA
ATOM     21  C   UNL     1      16.838   9.060  21.485  0.00  0.00    +0.041 A 
ATOM     23  C   UNL     1      16.511   7.764  21.100  0.00  0.00    +0.017 A 
ATOM     24  C   UNL     1      18.158   9.325  21.812  0.00  0.00    +0.124 A 
ATOM     25  C   UNL     1      17.499   6.787  21.055  0.00  0.00    +0.047 A 
ATOM     26  C   UNL     1      18.790   7.154  21.403  0.00  0.00    +0.139 A 
BRANCH  26   8
ATOM      8  N   UNL     1      19.779   6.184  21.361  0.00  0.00    -0.290 N 
ATOM      9  N   UNL     1      20.973   4.460  20.628  0.00  0.00    -0.244 NA
ATOM     27  C   UNL     1      20.766   5.993  22.286  0.00  0.00    +0.114 A 
ATOM     28  C   UNL     1      19.944   5.240  20.384  0.00  0.00    +0.205 A 
ATOM     29  C   UNL     1      21.491   4.925  21.812  0.00  0.00    +0.130 A 
ENDBRANCH  26   8
ENDBRANCH  18  21
BRANCH  15  10
ATOM      4  N   UNL     1      11.931  10.679  23.119  0.00  0.00    -0.284 NA
ATOM     10  C   UNL     1      12.914  11.721  22.763  0.00  0.00    +0.146 C 
ATOM     11  C   UNL     1      13.190  12.466  24.082  0.00  0.00    +0.030 C 
ATOM     12  C   UNL     1      12.274  11.812  25.107  0.00  0.00    +0.017 C 
ATOM     13  C   UNL     1      11.178  11.194  24.262  0.00  0.00    +0.085 C 
BRANCH   4  14
ATOM     14  C   UNL     1      11.059  10.308  22.011  0.00  0.00    +0.159 C 
BRANCH  14  16
ATOM      2  O   UNL     1      12.028   8.716  20.445  0.00  0.00    -0.461 OA
ATOM     16  C   UNL     1      11.286   8.886  21.571  0.00  0.00    +0.119 A 
ATOM     17  C   UNL     1      10.893   7.670  22.080  0.00  0.00    +0.046 A 
ATOM     19  C   UNL     1      12.108   7.376  20.232  0.00  0.00    +0.131 A 
ATOM     20  C   UNL     1      11.427   6.690  21.209  0.00  0.00    +0.047 A 
BRANCH  19  22
ATOM     22  C   UNL     1      12.874   6.951  19.052  0.00  0.00    +0.230 C 
BRANCH  22   3
ATOM      3  O   UNL     1      12.028   6.917  17.900  0.00  0.00    -0.387 OA
ATOM     30  H   UNL     1      11.483   6.115  17.971  0.00  0.00    +0.210 HD
ENDBRANCH  22   3
ENDBRANCH  19  22
ENDBRANCH  14  16
ENDBRANCH   4  14
ENDBRANCH  15  10
TORSDOF 7
ENDMDL
MODEL 5
REMARK VINA RESULT:      -6.6     28.102     31.453
REMARK  Name = 45783662
REMARK  7 active torsions:
REMARK  status: ('A' for Active; 'I' for Inactive)
REMARK    1  A    between atoms: O_3  and  C_22
REMARK    2  A    between atoms: N_4  and  C_14
REMARK    3  A    between atoms: N_8  and  C_26
REMARK    4  A    between atoms: C_10  and  C_15
REMARK    5  A    between atoms: C_14  and  C_16
REMARK    6  A    between atoms: C_18  and  C_21
REMARK    7  A    between atoms: C_19  and  C_22
REMARK                            x       y       z     vdW  Elec       q    Type
REMARK                         _______ _______ _______ _____ _____    ______ ____
ROOT
ATOM      1  O   UNL     1      -4.885 -11.506  17.059  0.00  0.00    -0.336 OA
ATOM      5  N   UNL     1      -5.496 -10.120  15.410  0.00  0.00    -0.190 NA
ATOM      6  N   UNL     1      -6.181 -11.078  17.371  0.00  0.00    -0.056 NA
ATOM     15  C   UNL     1      -4.557 -10.894  15.891  0.00  0.00    +0.245 A 
ATOM     18  C   UNL     1      -6.472 -10.263  16.352  0.00  0.00    +0.204 A 
ENDROOT
BRANCH  18  21
ATOM      7  N   UNL     1      -9.608  -8.908  14.882  0.00  0.00    -0.237 NA
ATOM     21  C   UNL     1      -7.728  -9.577  16.247  0.00  0.00    +0.041 A 
ATOM     23  C   UNL     1      -8.284  -8.928  17.344  0.00  0.00    +0.017 A 
ATOM     24  C   UNL     1      -8.423  -9.538  15.049  0.00  0.00    +0.124 A 
ATOM     25  C   UNL     1      -9.501  -8.270  17.212  0.00  0.00    +0.047 A 
ATOM     26  C   UNL     1     -10.117  -8.289  15.971  0.00  0.00    +0.139 A 
BRANCH  26   8
ATOM      8  N   UNL     1     -11.331  -7.634  15.834  0.00  0.00    -0.290 N 
ATOM      9  N   UNL     1     -13.523  -7.281  15.890  0.00  0.00    -0.244 NA
ATOM     27  C   UNL     1     -11.516  -6.358  15.380  0.00  0.00    +0.114 A 
ATOM     28  C   UNL     1     -12.564  -8.147  16.128  0.00  0.00    +0.205 A 
ATOM     29  C   UNL     1     -12.876  -6.163  15.424  0.00  0.00    +0.130 A 
ENDBRANCH  26   8
ENDBRANCH  18  21
BRANCH  15  10
ATOM      4  N   UNL     1      -2.928 -10.513  14.049  0.00  0.00    -0.284 NA
ATOM     10  C   UNL     1      -3.183 -11.199  15.332  0.00  0.00    +0.146 C 
ATOM     11  C   UNL     1      -2.046 -10.731  16.258  0.00  0.00    +0.030 C 
ATOM     12  C   UNL     1      -1.171  -9.836  15.394  0.00  0.00    +0.017 C 
ATOM     13  C   UNL     1      -1.484 -10.288  13.982  0.00  0.00    +0.085 C 
BRANCH   4  14
ATOM     14  C   UNL     1      -3.422 -11.252  12.893  0.00  0.00    +0.159 C 
BRANCH  14  16
ATOM      2  O   UNL     1      -4.934  -9.953  11.497  0.00  0.00    -0.461 OA
ATOM     16  C   UNL     1      -3.652 -10.351  11.709  0.00  0.00    +0.119 A 
ATOM     17  C   UNL     1      -2.817  -9.818  10.756  0.00  0.00    +0.046 A 
ATOM     19  C   UNL     1      -4.916  -9.158  10.394  0.00  0.00    +0.131 A 
ATOM     20  C   UNL     1      -3.638  -9.043   9.902  0.00  0.00    +0.047 A 
BRANCH  19  22
ATOM     22  C   UNL     1      -6.211  -8.606   9.972  0.00  0.00    +0.230 C 
BRANCH  22   3
ATOM      3  O   UNL     1      -6.019  -7.622   8.953  0.00  0.00    -0.387 OA
ATOM     30  H   UNL     1      -6.050  -8.087   8.099  0.00  0.00    +0.210 HD
ENDBRANCH  22   3
ENDBRANCH  19  22
ENDBRANCH  14  16
ENDBRANCH   4  14
ENDBRANCH  15  10
TORSDOF 7
ENDMDL
MODEL 6
REMARK VINA RESULT:      -6.6      4.059     10.131
REMARK  Name = 45783662
REMARK  7 active torsions:
REMARK  status: ('A' for Active; 'I' for Inactive)
REMARK    1  A    between atoms: O_3  and  C_22
REMARK    2  A    between atoms: N_4  and  C_14
REMARK    3  A    between atoms: N_8  and  C_26
REMARK    4  A    between atoms: C_10  and  C_15
REMARK    5  A    between atoms: C_14  and  C_16
REMARK    6  A    between atoms: C_18  and  C_21
REMARK    7  A    between atoms: C_19  and  C_22
REMARK                            x       y       z     vdW  Elec       q    Type
REMARK                         _______ _______ _______ _____ _____    ______ ____
ROOT
ATOM      1  O   UNL     1      14.927   9.962  21.598  0.00  0.00    -0.336 OA
ATOM      5  N   UNL     1      15.328   8.114  20.398  0.00  0.00    -0.190 NA
ATOM      6  N   UNL     1      16.250   9.597  21.876  0.00  0.00    -0.056 NA
ATOM     15  C   UNL     1      14.457   9.037  20.721  0.00  0.00    +0.245 A 
ATOM     18  C   UNL     1      16.412   8.499  21.132  0.00  0.00    +0.204 A 
ENDROOT
BRANCH  18  21
ATOM      7  N   UNL     1      19.915   7.504  21.886  0.00  0.00    -0.237 NA
ATOM     21  C   UNL     1      17.643   7.763  21.100  0.00  0.00    +0.041 A 
ATOM     23  C   UNL     1      17.786   6.639  20.294  0.00  0.00    +0.017 A 
ATOM     24  C   UNL     1      18.728   8.152  21.870  0.00  0.00    +0.124 A 
ATOM     25  C   UNL     1      18.992   5.948  20.282  0.00  0.00    +0.047 A 
ATOM     26  C   UNL     1      20.017   6.417  21.089  0.00  0.00    +0.139 A 
BRANCH  26   8
ATOM      8  N   UNL     1      21.221   5.731  21.081  0.00  0.00    -0.290 N 
ATOM      9  N   UNL     1      22.736   4.181  21.567  0.00  0.00    -0.244 NA
ATOM     27  C   UNL     1      22.341   6.068  20.374  0.00  0.00    +0.114 A 
ATOM     28  C   UNL     1      21.506   4.591  21.783  0.00  0.00    +0.205 A 
ATOM     29  C   UNL     1      23.261   5.096  20.690  0.00  0.00    +0.130 A 
ENDBRANCH  26   8
ENDBRANCH  18  21
BRANCH  15  10
ATOM      4  N   UNL     1      12.287   7.934  20.203  0.00  0.00    -0.284 NA
ATOM     10  C   UNL     1      13.027   9.211  20.256  0.00  0.00    +0.146 C 
ATOM     11  C   UNL     1      12.199  10.103  21.199  0.00  0.00    +0.030 C 
ATOM     12  C   UNL     1      10.986   9.265  21.576  0.00  0.00    +0.017 C 
ATOM     13  C   UNL     1      10.883   8.260  20.448  0.00  0.00    +0.085 C 
BRANCH   4  14
ATOM     14  C   UNL     1      12.472   7.214  18.948  0.00  0.00    +0.159 C 
BRANCH  14  16
ATOM      2  O   UNL     1      13.318   8.722  17.235  0.00  0.00    -0.461 OA
ATOM     16  C   UNL     1      12.228   8.099  17.754  0.00  0.00    +0.119 A 
ATOM     17  C   UNL     1      11.098   8.428  17.043  0.00  0.00    +0.046 A 
ATOM     19  C   UNL     1      12.878   9.459  16.180  0.00  0.00    +0.131 A 
ATOM     20  C   UNL     1      11.521   9.311  16.021  0.00  0.00    +0.047 A 
BRANCH  19  22
ATOM     22  C   UNL     1      13.898  10.228  15.455  0.00  0.00    +0.230 C 
BRANCH  22   3
ATOM      3  O   UNL     1      13.391  11.520  15.111  0.00  0.00    -0.387 OA
ATOM     30  H   UNL     1      13.478  12.079  15.902  0.00  0.00    +0.210 HD
ENDBRANCH  22   3
ENDBRANCH  19  22
ENDBRANCH  14  16
ENDBRANCH   4  14
ENDBRANCH  15  10
TORSDOF 7
ENDMDL
MODEL 7
REMARK VINA RESULT:      -6.4     28.031     31.974
REMARK  Name = 45783662
REMARK  7 active torsions:
REMARK  status: ('A' for Active; 'I' for Inactive)
REMARK    1  A    between atoms: O_3  and  C_22
REMARK    2  A    between atoms: N_4  and  C_14
REMARK    3  A    between atoms: N_8  and  C_26
REMARK    4  A    between atoms: C_10  and  C_15
REMARK    5  A    between atoms: C_14  and  C_16
REMARK    6  A    between atoms: C_18  and  C_21
REMARK    7  A    between atoms: C_19  and  C_22
REMARK                            x       y       z     vdW  Elec       q    Type
REMARK                         _______ _______ _______ _____ _____    ______ ____
ROOT
ATOM      1  O   UNL     1      -4.997  -9.729  16.110  0.00  0.00    -0.336 OA
ATOM      5  N   UNL     1      -5.227 -11.777  16.985  0.00  0.00    -0.190 NA
ATOM      6  N   UNL     1      -6.201  -9.714  16.824  0.00  0.00    -0.056 NA
ATOM     15  C   UNL     1      -4.488 -10.980  16.255  0.00  0.00    +0.245 A 
ATOM     18  C   UNL     1      -6.267 -10.958  17.311  0.00  0.00    +0.204 A 
ENDROOT
BRANCH  18  21
ATOM      7  N   UNL     1      -9.620 -11.086  18.914  0.00  0.00    -0.237 NA
ATOM     21  C   UNL     1      -7.358 -11.411  18.124  0.00  0.00    +0.041 A 
ATOM     23  C   UNL     1      -7.247 -12.563  18.896  0.00  0.00    +0.017 A 
ATOM     24  C   UNL     1      -8.555 -10.714  18.168  0.00  0.00    +0.124 A 
ATOM     25  C   UNL     1      -8.320 -12.977  19.676  0.00  0.00    +0.047 A 
ATOM     26  C   UNL     1      -9.474 -12.210  19.651  0.00  0.00    +0.139 A 
BRANCH  26   8
ATOM      8  N   UNL     1     -10.547 -12.619  20.427  0.00  0.00    -0.290 N 
ATOM      9  N   UNL     1     -11.741 -13.832  21.854  0.00  0.00    -0.244 NA
ATOM     27  C   UNL     1     -11.768 -12.009  20.506  0.00  0.00    +0.114 A 
ATOM     28  C   UNL     1     -10.579 -13.708  21.253  0.00  0.00    +0.205 A 
ATOM     29  C   UNL     1     -12.487 -12.775  21.393  0.00  0.00    +0.130 A 
ENDBRANCH  26   8
ENDBRANCH  18  21
BRANCH  15  10
ATOM      4  N   UNL     1      -3.025 -10.518  14.296  0.00  0.00    -0.284 NA
ATOM     10  C   UNL     1      -3.169 -11.256  15.566  0.00  0.00    +0.146 C 
ATOM     11  C   UNL     1      -1.955 -10.824  16.409  0.00  0.00    +0.030 C 
ATOM     12  C   UNL     1      -1.159  -9.890  15.509  0.00  0.00    +0.017 C 
ATOM     13  C   UNL     1      -1.593 -10.285  14.112  0.00  0.00    +0.085 C 
BRANCH   4  14
ATOM     14  C   UNL     1      -3.618 -11.211  13.158  0.00  0.00    +0.159 C 
BRANCH  14  16
ATOM      2  O   UNL     1      -4.804  -9.744  11.620  0.00  0.00    -0.461 OA
ATOM     16  C   UNL     1      -3.626 -10.351  11.922  0.00  0.00    +0.119 A 
ATOM     17  C   UNL     1      -2.665 -10.031  10.992  0.00  0.00    +0.046 A 
ATOM     19  C   UNL     1      -4.592  -9.028  10.483  0.00  0.00    +0.131 A 
ATOM     20  C   UNL     1      -3.293  -9.171  10.058  0.00  0.00    +0.047 A 
BRANCH  19  22
ATOM     22  C   UNL     1      -5.744  -8.278   9.964  0.00  0.00    +0.230 C 
BRANCH  22   3
ATOM      3  O   UNL     1      -5.837  -8.435   8.546  0.00  0.00    -0.387 OA
ATOM     30  H   UNL     1      -5.125  -9.041   8.280  0.00  0.00    +0.210 HD
ENDBRANCH  22   3
ENDBRANCH  19  22
ENDBRANCH  14  16
ENDBRANCH   4  14
ENDBRANCH  15  10
TORSDOF 7
ENDMDL
MODEL 8
REMARK VINA RESULT:      -6.4     29.270     33.176
REMARK  Name = 45783662
REMARK  7 active torsions:
REMARK  status: ('A' for Active; 'I' for Inactive)
REMARK    1  A    between atoms: O_3  and  C_22
REMARK    2  A    between atoms: N_4  and  C_14
REMARK    3  A    between atoms: N_8  and  C_26
REMARK    4  A    between atoms: C_10  and  C_15
REMARK    5  A    between atoms: C_14  and  C_16
REMARK    6  A    between atoms: C_18  and  C_21
REMARK    7  A    between atoms: C_19  and  C_22
REMARK                            x       y       z     vdW  Elec       q    Type
REMARK                         _______ _______ _______ _____ _____    ______ ____
ROOT
ATOM      1  O   UNL     1      -7.179 -10.684  20.082  0.00  0.00    -0.336 OA
ATOM      5  N   UNL     1      -7.551 -11.685  18.113  0.00  0.00    -0.190 NA
ATOM      6  N   UNL     1      -6.122 -10.302  19.246  0.00  0.00    -0.056 NA
ATOM     15  C   UNL     1      -7.973 -11.497  19.338  0.00  0.00    +0.245 A 
ATOM     18  C   UNL     1      -6.413 -10.933  18.103  0.00  0.00    +0.204 A 
ENDROOT
BRANCH  18  21
ATOM      7  N   UNL     1      -5.408 -10.432  14.558  0.00  0.00    -0.237 NA
ATOM     21  C   UNL     1      -5.585 -10.834  16.936  0.00  0.00    +0.041 A 
ATOM     23  C   UNL     1      -4.211 -11.034  17.012  0.00  0.00    +0.017 A 
ATOM     24  C   UNL     1      -6.130 -10.538  15.696  0.00  0.00    +0.124 A 
ATOM     25  C   UNL     1      -3.435 -10.934  15.863  0.00  0.00    +0.047 A 
ATOM     26  C   UNL     1      -4.076 -10.634  14.671  0.00  0.00    +0.139 A 
BRANCH  26   8
ATOM      8  N   UNL     1      -3.306 -10.532  13.523  0.00  0.00    -0.290 N 
ATOM      9  N   UNL     1      -2.783 -10.504  11.364  0.00  0.00    -0.244 NA
ATOM     27  C   UNL     1      -1.961 -10.299  13.467  0.00  0.00    +0.114 A 
ATOM     28  C   UNL     1      -3.756 -10.648  12.236  0.00  0.00    +0.205 A 
ATOM     29  C   UNL     1      -1.661 -10.285  12.126  0.00  0.00    +0.130 A 
ENDBRANCH  26   8
ENDBRANCH  18  21
BRANCH  15  10
ATOM      4  N   UNL     1     -10.455 -11.674  19.337  0.00  0.00    -0.284 NA
ATOM     10  C   UNL     1      -9.204 -12.051  20.024  0.00  0.00    +0.146 C 
ATOM     11  C   UNL     1      -9.225 -13.589  20.059  0.00  0.00    +0.030 C 
ATOM     12  C   UNL     1     -10.551 -13.983  19.423  0.00  0.00    +0.017 C 
ATOM     13  C   UNL     1     -11.412 -12.749  19.599  0.00  0.00    +0.085 C 
BRANCH   4  14
ATOM     14  C   UNL     1     -10.968 -10.372  19.748  0.00  0.00    +0.159 C 
BRANCH  14  16
ATOM      2  O   UNL     1     -10.544  -8.728  18.004  0.00  0.00    -0.461 OA
ATOM     16  C   UNL     1     -11.451  -9.564  18.572  0.00  0.00    +0.119 A 
ATOM     17  C   UNL     1     -12.659  -9.482  17.920  0.00  0.00    +0.046 A 
ATOM     19  C   UNL     1     -11.180  -8.105  16.976  0.00  0.00    +0.131 A 
ATOM     20  C   UNL     1     -12.483  -8.535  16.884  0.00  0.00    +0.047 A 
BRANCH  19  22
ATOM     22  C   UNL     1     -10.381  -7.142  16.206  0.00  0.00    +0.230 C 
BRANCH  22   3
ATOM      3  O   UNL     1     -10.903  -5.821  16.373  0.00  0.00    -0.387 OA
ATOM     30  H   UNL     1     -11.413  -5.820  17.201  0.00  0.00    +0.210 HD
ENDBRANCH  22   3
ENDBRANCH  19  22
ENDBRANCH  14  16
ENDBRANCH   4  14
ENDBRANCH  15  10
TORSDOF 7
ENDMDL
MODEL 9
REMARK VINA RESULT:      -6.3      1.739      2.360
REMARK  Name = 45783662
REMARK  7 active torsions:
REMARK  status: ('A' for Active; 'I' for Inactive)
REMARK    1  A    between atoms: O_3  and  C_22
REMARK    2  A    between atoms: N_4  and  C_14
REMARK    3  A    between atoms: N_8  and  C_26
REMARK    4  A    between atoms: C_10  and  C_15
REMARK    5  A    between atoms: C_14  and  C_16
REMARK    6  A    between atoms: C_18  and  C_21
REMARK    7  A    between atoms: C_19  and  C_22
REMARK                            x       y       z     vdW  Elec       q    Type
REMARK                         _______ _______ _______ _____ _____    ______ ____
ROOT
ATOM      1  O   UNL     1      20.209   5.407  20.494  0.00  0.00    -0.336 OA
ATOM      5  N   UNL     1      19.114   6.900  21.754  0.00  0.00    -0.190 NA
ATOM      6  N   UNL     1      18.904   5.456  19.991  0.00  0.00    -0.056 NA
ATOM     15  C   UNL     1      20.248   6.285  21.530  0.00  0.00    +0.245 A 
ATOM     18  C   UNL     1      18.319   6.359  20.786  0.00  0.00    +0.204 A 
ENDROOT
BRANCH  18  21
ATOM      7  N   UNL     1      14.865   6.545  19.421  0.00  0.00    -0.237 NA
ATOM     21  C   UNL     1      16.944   6.739  20.641  0.00  0.00    +0.041 A 
ATOM     23  C   UNL     1      16.351   7.637  21.522  0.00  0.00    +0.017 A 
ATOM     24  C   UNL     1      16.165   6.227  19.615  0.00  0.00    +0.124 A 
ATOM     25  C   UNL     1      15.017   7.989  21.354  0.00  0.00    +0.047 A 
ATOM     26  C   UNL     1      14.324   7.420  20.298  0.00  0.00    +0.139 A 
BRANCH  26   8
ATOM      8  N   UNL     1      12.993   7.768  20.126  0.00  0.00    -0.290 N 
ATOM      9  N   UNL     1      10.795   7.807  20.444  0.00  0.00    -0.244 NA
ATOM     27  C   UNL     1      12.499   8.654  19.210  0.00  0.00    +0.114 A 
ATOM     28  C   UNL     1      11.933   7.285  20.844  0.00  0.00    +0.205 A 
ATOM     29  C   UNL     1      11.141   8.661  19.426  0.00  0.00    +0.130 A 
ENDBRANCH  26   8
ENDBRANCH  18  21
BRANCH  15  10
ATOM      4  N   UNL     1      22.316   7.631  21.852  0.00  0.00    -0.284 NA
ATOM     10  C   UNL     1      21.572   6.420  22.252  0.00  0.00    +0.146 C 
ATOM     11  C   UNL     1      21.408   6.547  23.777  0.00  0.00    +0.030 C 
ATOM     12  C   UNL     1      22.141   7.827  24.151  0.00  0.00    +0.017 C 
ATOM     13  C   UNL     1      23.119   8.023  23.010  0.00  0.00    +0.085 C 
BRANCH   4  14
ATOM     14  C   UNL     1      23.132   7.438  20.660  0.00  0.00    +0.159 C 
BRANCH  14  16
ATOM      2  O   UNL     1      23.746   5.113  20.278  0.00  0.00    -0.461 OA
ATOM     16  C   UNL     1      24.108   6.303  20.827  0.00  0.00    +0.119 A 
ATOM     17  C   UNL     1      25.336   6.200  21.438  0.00  0.00    +0.046 A 
ATOM     19  C   UNL     1      24.755   4.241  20.543  0.00  0.00    +0.131 A 
ATOM     20  C   UNL     1      25.755   4.860  21.253  0.00  0.00    +0.047 A 
BRANCH  19  22
ATOM     22  C   UNL     1      24.579   2.873  20.036  0.00  0.00    +0.230 C 
BRANCH  22   3
ATOM      3  O   UNL     1      24.621   2.865  18.607  0.00  0.00    -0.387 OA
ATOM     30  H   UNL     1      24.186   3.682  18.306  0.00  0.00    +0.210 HD
ENDBRANCH  22   3
ENDBRANCH  19  22
ENDBRANCH  14  16
ENDBRANCH   4  14
ENDBRANCH  15  10
TORSDOF 7
ENDMDL
MODEL 10
REMARK VINA RESULT:      -6.2     30.596     33.463
REMARK  Name = 45783662
REMARK  7 active torsions:
REMARK  status: ('A' for Active; 'I' for Inactive)
REMARK    1  A    between atoms: O_3  and  C_22
REMARK    2  A    between atoms: N_4  and  C_14
REMARK    3  A    between atoms: N_8  and  C_26
REMARK    4  A    between atoms: C_10  and  C_15
REMARK    5  A    between atoms: C_14  and  C_16
REMARK    6  A    between atoms: C_18  and  C_21
REMARK    7  A    between atoms: C_19  and  C_22
REMARK                            x       y       z     vdW  Elec       q    Type
REMARK                         _______ _______ _______ _____ _____    ______ ____
ROOT
ATOM      1  O   UNL     1      -7.743 -11.146  16.508  0.00  0.00    -0.336 OA
ATOM      5  N   UNL     1      -7.796  -8.927  16.805  0.00  0.00    -0.190 NA
ATOM      6  N   UNL     1      -8.906 -10.696  15.871  0.00  0.00    -0.056 NA
ATOM     15  C   UNL     1      -7.149 -10.042  17.032  0.00  0.00    +0.245 A 
ATOM     18  C   UNL     1      -8.867  -9.378  16.091  0.00  0.00    +0.204 A 
ENDROOT
BRANCH  18  21
ATOM      7  N   UNL     1     -11.711  -8.066  14.086  0.00  0.00    -0.237 NA
ATOM     21  C   UNL     1      -9.882  -8.486  15.611  0.00  0.00    +0.041 A 
ATOM     23  C   UNL     1     -10.040  -7.218  16.160  0.00  0.00    +0.017 A 
ATOM     24  C   UNL     1     -10.735  -8.859  14.585  0.00  0.00    +0.124 A 
ATOM     25  C   UNL     1     -11.032  -6.374  15.673  0.00  0.00    +0.047 A 
ATOM     26  C   UNL     1     -11.834  -6.841  14.644  0.00  0.00    +0.139 A 
BRANCH  26   8
ATOM      8  N   UNL     1     -12.824  -6.004  14.156  0.00  0.00    -0.290 N 
ATOM      9  N   UNL     1     -14.852  -5.262  13.635  0.00  0.00    -0.244 NA
ATOM     27  C   UNL     1     -12.637  -4.785  13.566  0.00  0.00    +0.114 A 
ATOM     28  C   UNL     1     -14.170  -6.247  14.174  0.00  0.00    +0.205 A 
ATOM     29  C   UNL     1     -13.902  -4.347  13.254  0.00  0.00    +0.130 A 
ENDBRANCH  26   8
ENDBRANCH  18  21
BRANCH  15  10
ATOM      4  N   UNL     1      -5.779 -11.601  18.406  0.00  0.00    -0.284 NA
ATOM     10  C   UNL     1      -5.852 -10.265  17.782  0.00  0.00    +0.146 C 
ATOM     11  C   UNL     1      -4.616 -10.192  16.868  0.00  0.00    +0.030 C 
ATOM     12  C   UNL     1      -3.879 -11.505  17.090  0.00  0.00    +0.017 C 
ATOM     13  C   UNL     1      -4.362 -11.958  18.453  0.00  0.00    +0.085 C 
BRANCH   4  14
ATOM     14  C   UNL     1      -6.402 -11.655  19.724  0.00  0.00    +0.159 C 
BRANCH  14  16
ATOM      2  O   UNL     1      -8.779 -11.203  19.985  0.00  0.00    -0.461 OA
ATOM     16  C   UNL     1      -7.833 -12.118  19.648  0.00  0.00    +0.119 A 
ATOM     17  C   UNL     1      -8.418 -13.312  19.298  0.00  0.00    +0.046 A 
ATOM     19  C   UNL     1      -9.983 -11.821  19.849  0.00  0.00    +0.131 A 
ATOM     20  C   UNL     1      -9.814 -13.119  19.429  0.00  0.00    +0.047 A 
BRANCH  19  22
ATOM     22  C   UNL     1     -11.168 -11.011  20.164  0.00  0.00    +0.230 C 
BRANCH  22   3
ATOM      3  O   UNL     1     -10.781  -9.812  20.840  0.00  0.00    -0.387 OA
ATOM     30  H   UNL     1     -11.086  -9.894  21.760  0.00  0.00    +0.210 HD
ENDBRANCH  22   3
ENDBRANCH  19  22
ENDBRANCH  14  16
ENDBRANCH   4  14
ENDBRANCH  15  10
TORSDOF 7
ENDMDL
