MODEL 1
REMARK VINA RESULT:      -6.1      0.000      0.000
REMARK  Name = 45783986
REMARK  18 active torsions:
REMARK  status: ('A' for Active; 'I' for Inactive)
REMARK    1  A    between atoms: O_2  and  C_25
REMARK    2  A    between atoms: O_2  and  C_29
REMARK    3  A    between atoms: O_3  and  C_26
REMARK    4  A    between atoms: O_3  and  C_30
REMARK    5  A    between atoms: N_6  and  C_16
REMARK    6  A    between atoms: N_6  and  C_22
REMARK    7  A    between atoms: N_6  and  C_23
REMARK    8  A    between atoms: N_9  and  C_35
REMARK    9  A    between atoms: C_10  and  C_14
REMARK   10  A    between atoms: C_11  and  C_16
REMARK   11  A    between atoms: C_13  and  C_18
REMARK   12  A    between atoms: C_14  and  C_19
REMARK   13  A    between atoms: C_14  and  C_20
REMARK   14  A    between atoms: C_15  and  C_21
REMARK   15  A    between atoms: C_18  and  C_24
REMARK   16  A    between atoms: C_22  and  C_25
REMARK   17  A    between atoms: C_23  and  C_26
REMARK   18  A    between atoms: C_27  and  C_28
REMARK                            x       y       z     vdW  Elec       q    Type
REMARK                         _______ _______ _______ _____ _____    ______ ____
ROOT
ATOM     10  C   UNL     1     -16.428   4.288  28.647  0.00  0.00    +0.000 C 
ATOM     11  C   UNL     1     -16.292   3.043  29.555  0.00  0.00    +0.029 C 
ATOM     12  C   UNL     1     -16.199   3.908  27.177  0.00  0.00    +0.012 C 
ATOM     13  C   UNL     1     -17.152   2.801  26.678  0.00  0.00    +0.024 C 
ATOM     15  C   UNL     1     -17.394   1.711  27.711  0.00  0.00    -0.073 C 
ATOM     17  C   UNL     1     -16.992   1.834  28.990  0.00  0.00    -0.023 C 
ATOM     21  C   UNL     1     -18.162   0.495  27.272  0.00  0.00    +0.039 C 
ENDROOT
BRANCH  10  14
ATOM     14  C   UNL     1     -17.786   4.975  28.839  0.00  0.00    -0.013 C 
ATOM     19  C   UNL     1     -17.886   6.213  27.952  0.00  0.00    +0.007 C 
ATOM     20  C   UNL     1     -17.994   5.342  30.305  0.00  0.00    +0.007 C 
ENDBRANCH  10  14
BRANCH  11  16
ATOM     16  C   UNL     1     -14.824   2.696  29.825  0.00  0.00    +0.092 C 
BRANCH  16   6
ATOM      6  N   UNL     1     -14.649   2.232  31.190  0.00  0.00    -0.297 NA
BRANCH   6  22
ATOM     22  C   UNL     1     -13.907   3.215  31.983  0.00  0.00    +0.112 C 
BRANCH  22  25
ATOM     25  C   UNL     1     -14.795   3.814  33.063  0.00  0.00    +0.174 C 
BRANCH  25   2
ATOM      2  O   UNL     1     -14.050   4.792  33.776  0.00  0.00    -0.382 OA
ATOM     29  C   UNL     1     -14.399   4.811  35.154  0.00  0.00    +0.194 C 
ENDBRANCH  25   2
ENDBRANCH  22  25
ENDBRANCH   6  22
BRANCH   6  23
ATOM     23  C   UNL     1     -13.957   0.940  31.216  0.00  0.00    +0.112 C 
BRANCH  23  26
ATOM     26  C   UNL     1     -14.957  -0.206  31.192  0.00  0.00    +0.174 C 
BRANCH  26   3
ATOM      3  O   UNL     1     -14.860  -0.870  29.940  0.00  0.00    -0.382 OA
ATOM     30  C   UNL     1     -13.544  -0.795  29.411  0.00  0.00    +0.194 C 
ENDBRANCH  26   3
ENDBRANCH  23  26
ENDBRANCH   6  23
ENDBRANCH  16   6
ENDBRANCH  11  16
BRANCH  13  18
ATOM     18  C   UNL     1     -16.613   2.254  25.350  0.00  0.00    +0.105 C 
BRANCH  18  24
ATOM      1  O   UNL     1     -15.521   3.786  23.797  0.00  0.00    -0.420 OA
ATOM      7  N   UNL     1     -17.754   3.781  23.662  0.00  0.00    -0.112 NA
ATOM      8  N   UNL     1     -17.273   4.686  22.734  0.00  0.00    -0.107 NA
ATOM     24  C   UNL     1     -16.697   3.280  24.258  0.00  0.00    +0.218 A 
ATOM     27  C   UNL     1     -15.966   4.656  22.847  0.00  0.00    +0.248 A 
BRANCH  27  28
ATOM     28  C   UNL     1     -14.953   5.383  22.140  0.00  0.00    +0.039 A 
ATOM     31  C   UNL     1     -15.316   6.352  21.204  0.00  0.00    +0.015 A 
ATOM     32  C   UNL     1     -13.605   5.124  22.389  0.00  0.00    +0.015 A 
ATOM     33  C   UNL     1     -14.331   7.060  20.515  0.00  0.00    +0.033 A 
ATOM     34  C   UNL     1     -12.619   5.832  21.700  0.00  0.00    +0.033 A 
ATOM     35  C   UNL     1     -12.982   6.800  20.764  0.00  0.00    +0.126 A 
BRANCH  35   9
ATOM      4  O   UNL     1     -11.716   8.696  20.421  0.00  0.00    -0.126 OA
ATOM      5  O   UNL     1     -11.384   6.967  19.110  0.00  0.00    -0.126 OA
ATOM      9  N   UNL     1     -11.980   7.522  20.065  0.00  0.00    +0.056 N 
ENDBRANCH  35   9
ENDBRANCH  27  28
ENDBRANCH  18  24
ENDBRANCH  13  18
TORSDOF 13
ENDMDL
MODEL 2
REMARK VINA RESULT:      -6.1     21.074     25.329
REMARK  Name = 45783986
REMARK  18 active torsions:
REMARK  status: ('A' for Active; 'I' for Inactive)
REMARK    1  A    between atoms: O_2  and  C_25
REMARK    2  A    between atoms: O_2  and  C_29
REMARK    3  A    between atoms: O_3  and  C_26
REMARK    4  A    between atoms: O_3  and  C_30
REMARK    5  A    between atoms: N_6  and  C_16
REMARK    6  A    between atoms: N_6  and  C_22
REMARK    7  A    between atoms: N_6  and  C_23
REMARK    8  A    between atoms: N_9  and  C_35
REMARK    9  A    between atoms: C_10  and  C_14
REMARK   10  A    between atoms: C_11  and  C_16
REMARK   11  A    between atoms: C_13  and  C_18
REMARK   12  A    between atoms: C_14  and  C_19
REMARK   13  A    between atoms: C_14  and  C_20
REMARK   14  A    between atoms: C_15  and  C_21
REMARK   15  A    between atoms: C_18  and  C_24
REMARK   16  A    between atoms: C_22  and  C_25
REMARK   17  A    between atoms: C_23  and  C_26
REMARK   18  A    between atoms: C_27  and  C_28
REMARK                            x       y       z     vdW  Elec       q    Type
REMARK                         _______ _______ _______ _____ _____    ______ ____
ROOT
ATOM     10  C   UNL     1      -5.842 -10.387  10.189  0.00  0.00    +0.000 C 
ATOM     11  C   UNL     1      -5.106  -9.931   8.908  0.00  0.00    +0.029 C 
ATOM     12  C   UNL     1      -4.875 -11.115  11.134  0.00  0.00    +0.012 C 
ATOM     13  C   UNL     1      -3.646 -10.266  11.523  0.00  0.00    +0.024 C 
ATOM     15  C   UNL     1      -3.097  -9.446  10.366  0.00  0.00    -0.073 C 
ATOM     17  C   UNL     1      -3.760  -9.318   9.200  0.00  0.00    -0.023 C 
ATOM     21  C   UNL     1      -1.798  -8.720  10.582  0.00  0.00    +0.039 C 
ENDROOT
BRANCH  10  14
ATOM     14  C   UNL     1      -6.524  -9.207  10.893  0.00  0.00    -0.013 C 
ATOM     19  C   UNL     1      -7.136  -9.658  12.216  0.00  0.00    +0.007 C 
ATOM     20  C   UNL     1      -7.586  -8.590   9.989  0.00  0.00    +0.007 C 
ENDBRANCH  10  14
BRANCH  11  16
ATOM     16  C   UNL     1      -4.929 -11.084   7.915  0.00  0.00    +0.092 C 
BRANCH  16   6
ATOM      6  N   UNL     1      -5.332 -10.678   6.580  0.00  0.00    -0.297 NA
BRANCH   6  22
ATOM     22  C   UNL     1      -6.584  -9.917   6.623  0.00  0.00    +0.112 C 
BRANCH  22  25
ATOM     25  C   UNL     1      -6.811  -9.183   5.309  0.00  0.00    +0.174 C 
BRANCH  25   2
ATOM      2  O   UNL     1      -8.208  -9.131   5.052  0.00  0.00    -0.382 OA
ATOM     29  C   UNL     1      -8.874 -10.278   5.561  0.00  0.00    +0.194 C 
ENDBRANCH  25   2
ENDBRANCH  22  25
ENDBRANCH   6  22
BRANCH   6  23
ATOM     23  C   UNL     1      -5.482 -11.843   5.703  0.00  0.00    +0.112 C 
BRANCH  23  26
ATOM     26  C   UNL     1      -4.177 -12.146   4.984  0.00  0.00    +0.174 C 
BRANCH  26   3
ATOM      3  O   UNL     1      -4.409 -12.110   3.582  0.00  0.00    -0.382 OA
ATOM     30  C   UNL     1      -5.771 -12.368   3.273  0.00  0.00    +0.194 C 
ENDBRANCH  26   3
ENDBRANCH  23  26
ENDBRANCH   6  23
ENDBRANCH  16   6
ENDBRANCH  11  16
BRANCH  13  18
ATOM     18  C   UNL     1      -2.594 -11.188  12.152  0.00  0.00    +0.105 C 
BRANCH  18  24
ATOM      1  O   UNL     1      -3.463 -11.115  14.430  0.00  0.00    -0.420 OA
ATOM      7  N   UNL     1      -1.343 -10.429  14.236  0.00  0.00    -0.112 NA
ATOM      8  N   UNL     1      -1.702 -10.336  15.568  0.00  0.00    -0.107 NA
ATOM     24  C   UNL     1      -2.402 -10.888  13.610  0.00  0.00    +0.218 A 
ATOM     27  C   UNL     1      -2.946 -10.746  15.635  0.00  0.00    +0.248 A 
BRANCH  27  28
ATOM     28  C   UNL     1      -3.829 -10.864  16.759  0.00  0.00    +0.039 A 
ATOM     31  C   UNL     1      -3.438 -11.600  17.877  0.00  0.00    +0.015 A 
ATOM     32  C   UNL     1      -5.077 -10.243  16.734  0.00  0.00    +0.015 A 
ATOM     33  C   UNL     1      -4.296 -11.715  18.971  0.00  0.00    +0.033 A 
ATOM     34  C   UNL     1      -5.936 -10.358  17.827  0.00  0.00    +0.033 A 
ATOM     35  C   UNL     1      -5.545 -11.094  18.946  0.00  0.00    +0.126 A 
BRANCH  35   9
ATOM      4  O   UNL     1      -7.646 -11.011  19.894  0.00  0.00    -0.126 OA
ATOM      5  O   UNL     1      -5.938 -11.506  21.180  0.00  0.00    -0.126 OA
ATOM      9  N   UNL     1      -6.418 -11.209  20.060  0.00  0.00    +0.056 N 
ENDBRANCH  35   9
ENDBRANCH  27  28
ENDBRANCH  18  24
ENDBRANCH  13  18
TORSDOF 13
ENDMDL
MODEL 3
REMARK VINA RESULT:      -6.0      6.308     10.691
REMARK  Name = 45783986
REMARK  18 active torsions:
REMARK  status: ('A' for Active; 'I' for Inactive)
REMARK    1  A    between atoms: O_2  and  C_25
REMARK    2  A    between atoms: O_2  and  C_29
REMARK    3  A    between atoms: O_3  and  C_26
REMARK    4  A    between atoms: O_3  and  C_30
REMARK    5  A    between atoms: N_6  and  C_16
REMARK    6  A    between atoms: N_6  and  C_22
REMARK    7  A    between atoms: N_6  and  C_23
REMARK    8  A    between atoms: N_9  and  C_35
REMARK    9  A    between atoms: C_10  and  C_14
REMARK   10  A    between atoms: C_11  and  C_16
REMARK   11  A    between atoms: C_13  and  C_18
REMARK   12  A    between atoms: C_14  and  C_19
REMARK   13  A    between atoms: C_14  and  C_20
REMARK   14  A    between atoms: C_15  and  C_21
REMARK   15  A    between atoms: C_18  and  C_24
REMARK   16  A    between atoms: C_22  and  C_25
REMARK   17  A    between atoms: C_23  and  C_26
REMARK   18  A    between atoms: C_27  and  C_28
REMARK                            x       y       z     vdW  Elec       q    Type
REMARK                         _______ _______ _______ _____ _____    ______ ____
ROOT
ATOM     10  C   UNL     1     -10.964   9.799  31.756  0.00  0.00    +0.000 C 
ATOM     11  C   UNL     1     -10.527  10.564  33.027  0.00  0.00    +0.029 C 
ATOM     12  C   UNL     1     -11.757   8.539  32.134  0.00  0.00    +0.012 C 
ATOM     13  C   UNL     1     -12.995   8.835  33.007  0.00  0.00    +0.024 C 
ATOM     15  C   UNL     1     -12.744   9.911  34.052  0.00  0.00    -0.073 C 
ATOM     17  C   UNL     1     -11.629  10.666  34.050  0.00  0.00    -0.023 C 
ATOM     21  C   UNL     1     -13.823  10.155  35.072  0.00  0.00    +0.039 C 
ENDROOT
BRANCH  10  14
ATOM     14  C   UNL     1     -11.770  10.699  30.810  0.00  0.00    -0.013 C 
ATOM     19  C   UNL     1     -11.871  10.062  29.427  0.00  0.00    +0.007 C 
ATOM     20  C   UNL     1     -11.134  12.083  30.723  0.00  0.00    +0.007 C 
ENDBRANCH  10  14
BRANCH  11  16
ATOM     16  C   UNL     1      -9.294   9.926  33.676  0.00  0.00    +0.092 C 
BRANCH  16   6
ATOM      6  N   UNL     1      -9.002  10.556  34.951  0.00  0.00    -0.297 NA
BRANCH   6  22
ATOM     22  C   UNL     1      -8.171  11.750  34.764  0.00  0.00    +0.112 C 
BRANCH  22  25
ATOM     25  C   UNL     1      -6.722  11.456  35.119  0.00  0.00    +0.174 C 
BRANCH  25   2
ATOM      2  O   UNL     1      -5.880  12.153  34.210  0.00  0.00    -0.382 OA
ATOM     29  C   UNL     1      -6.588  12.552  33.045  0.00  0.00    +0.194 C 
ENDBRANCH  25   2
ENDBRANCH  22  25
ENDBRANCH   6  22
BRANCH   6  23
ATOM     23  C   UNL     1      -8.334   9.616  35.857  0.00  0.00    +0.112 C 
BRANCH  23  26
ATOM     26  C   UNL     1      -9.198   9.340  37.076  0.00  0.00    +0.174 C 
BRANCH  26   3
ATOM      3  O   UNL     1      -9.715   8.020  36.980  0.00  0.00    -0.382 OA
ATOM     30  C   UNL     1     -11.130   8.023  36.849  0.00  0.00    +0.194 C 
ENDBRANCH  26   3
ENDBRANCH  23  26
ENDBRANCH   6  23
ENDBRANCH  16   6
ENDBRANCH  11  16
BRANCH  13  18
ATOM     18  C   UNL     1     -13.490   7.517  33.616  0.00  0.00    +0.105 C 
BRANCH  18  24
ATOM      1  O   UNL     1     -14.056   5.399  32.545  0.00  0.00    -0.420 OA
ATOM      7  N   UNL     1     -15.261   7.140  31.825  0.00  0.00    -0.112 NA
ATOM      8  N   UNL     1     -15.684   6.016  31.140  0.00  0.00    -0.107 NA
ATOM     24  C   UNL     1     -14.311   6.732  32.634  0.00  0.00    +0.218 A 
ATOM     27  C   UNL     1     -14.954   5.024  31.592  0.00  0.00    +0.248 A 
BRANCH  27  28
ATOM     28  C   UNL     1     -14.955   3.633  31.245  0.00  0.00    +0.039 A 
ATOM     31  C   UNL     1     -14.913   3.250  29.904  0.00  0.00    +0.015 A 
ATOM     32  C   UNL     1     -14.998   2.664  32.246  0.00  0.00    +0.015 A 
ATOM     33  C   UNL     1     -14.914   1.896  29.565  0.00  0.00    +0.033 A 
ATOM     34  C   UNL     1     -15.000   1.310  31.908  0.00  0.00    +0.033 A 
ATOM     35  C   UNL     1     -14.957   0.927  30.568  0.00  0.00    +0.126 A 
BRANCH  35   9
ATOM      4  O   UNL     1     -15.807  -1.210  30.747  0.00  0.00    -0.126 OA
ATOM      5  O   UNL     1     -14.105  -0.872  29.403  0.00  0.00    -0.126 OA
ATOM      9  N   UNL     1     -14.956  -0.451  30.223  0.00  0.00    +0.056 N 
ENDBRANCH  35   9
ENDBRANCH  27  28
ENDBRANCH  18  24
ENDBRANCH  13  18
TORSDOF 13
ENDMDL
MODEL 4
REMARK VINA RESULT:      -5.9      6.766     11.083
REMARK  Name = 45783986
REMARK  18 active torsions:
REMARK  status: ('A' for Active; 'I' for Inactive)
REMARK    1  A    between atoms: O_2  and  C_25
REMARK    2  A    between atoms: O_2  and  C_29
REMARK    3  A    between atoms: O_3  and  C_26
REMARK    4  A    between atoms: O_3  and  C_30
REMARK    5  A    between atoms: N_6  and  C_16
REMARK    6  A    between atoms: N_6  and  C_22
REMARK    7  A    between atoms: N_6  and  C_23
REMARK    8  A    between atoms: N_9  and  C_35
REMARK    9  A    between atoms: C_10  and  C_14
REMARK   10  A    between atoms: C_11  and  C_16
REMARK   11  A    between atoms: C_13  and  C_18
REMARK   12  A    between atoms: C_14  and  C_19
REMARK   13  A    between atoms: C_14  and  C_20
REMARK   14  A    between atoms: C_15  and  C_21
REMARK   15  A    between atoms: C_18  and  C_24
REMARK   16  A    between atoms: C_22  and  C_25
REMARK   17  A    between atoms: C_23  and  C_26
REMARK   18  A    between atoms: C_27  and  C_28
REMARK                            x       y       z     vdW  Elec       q    Type
REMARK                         _______ _______ _______ _____ _____    ______ ____
ROOT
ATOM     10  C   UNL     1     -10.904   9.811  31.715  0.00  0.00    +0.000 C 
ATOM     11  C   UNL     1     -10.496  10.604  32.978  0.00  0.00    +0.029 C 
ATOM     12  C   UNL     1     -11.690   8.550  32.103  0.00  0.00    +0.012 C 
ATOM     13  C   UNL     1     -12.945   8.849  32.950  0.00  0.00    +0.024 C 
ATOM     15  C   UNL     1     -12.723   9.946  33.979  0.00  0.00    -0.073 C 
ATOM     17  C   UNL     1     -11.616  10.713  33.982  0.00  0.00    -0.023 C 
ATOM     21  C   UNL     1     -13.820  10.197  34.977  0.00  0.00    +0.039 C 
ENDROOT
BRANCH  10  14
ATOM     14  C   UNL     1     -11.703  10.685  30.739  0.00  0.00    -0.013 C 
ATOM     19  C   UNL     1     -11.685  10.074  29.341  0.00  0.00    +0.007 C 
ATOM     20  C   UNL     1     -11.146  12.104  30.717  0.00  0.00    +0.007 C 
ENDBRANCH  10  14
BRANCH  11  16
ATOM     16  C   UNL     1      -9.267   9.992  33.659  0.00  0.00    +0.092 C 
BRANCH  16   6
ATOM      6  N   UNL     1      -8.287  11.018  33.966  0.00  0.00    -0.297 NA
BRANCH   6  22
ATOM     22  C   UNL     1      -8.413  11.460  35.359  0.00  0.00    +0.112 C 
BRANCH  22  25
ATOM     25  C   UNL     1      -7.094  11.291  36.097  0.00  0.00    +0.174 C 
BRANCH  25   2
ATOM      2  O   UNL     1      -6.486  10.079  35.672  0.00  0.00    -0.382 OA
ATOM     29  C   UNL     1      -5.078  10.220  35.543  0.00  0.00    +0.194 C 
ENDBRANCH  25   2
ENDBRANCH  22  25
ENDBRANCH   6  22
BRANCH   6  23
ATOM     23  C   UNL     1      -8.429  12.163  33.062  0.00  0.00    +0.112 C 
BRANCH  23  26
ATOM     26  C   UNL     1      -7.121  12.932  32.959  0.00  0.00    +0.174 C 
BRANCH  26   3
ATOM      3  O   UNL     1      -6.181  12.140  32.246  0.00  0.00    -0.382 OA
ATOM     30  C   UNL     1      -4.857  12.629  32.413  0.00  0.00    +0.194 C 
ENDBRANCH  26   3
ENDBRANCH  23  26
ENDBRANCH   6  23
ENDBRANCH  16   6
ENDBRANCH  11  16
BRANCH  13  18
ATOM     18  C   UNL     1     -13.436   7.537  33.575  0.00  0.00    +0.105 C 
BRANCH  18  24
ATOM      1  O   UNL     1     -14.017   5.414  32.521  0.00  0.00    -0.420 OA
ATOM      7  N   UNL     1     -15.237   7.151  31.817  0.00  0.00    -0.112 NA
ATOM      8  N   UNL     1     -15.670   6.024  31.143  0.00  0.00    -0.107 NA
ATOM     24  C   UNL     1     -14.273   6.748  32.610  0.00  0.00    +0.218 A 
ATOM     27  C   UNL     1     -14.930   5.035  31.585  0.00  0.00    +0.248 A 
BRANCH  27  28
ATOM     28  C   UNL     1     -14.935   3.643  31.242  0.00  0.00    +0.039 A 
ATOM     31  C   UNL     1     -14.963   3.256  29.902  0.00  0.00    +0.015 A 
ATOM     32  C   UNL     1     -14.911   2.676  32.247  0.00  0.00    +0.015 A 
ATOM     33  C   UNL     1     -14.967   1.901  29.567  0.00  0.00    +0.033 A 
ATOM     34  C   UNL     1     -14.916   1.322  31.913  0.00  0.00    +0.033 A 
ATOM     35  C   UNL     1     -14.944   0.934  30.573  0.00  0.00    +0.126 A 
BRANCH  35   9
ATOM      4  O   UNL     1     -14.054  -0.883  29.467  0.00  0.00    -0.126 OA
ATOM      5  O   UNL     1     -15.840  -1.186  30.707  0.00  0.00    -0.126 OA
ATOM      9  N   UNL     1     -14.946  -0.444  30.233  0.00  0.00    +0.056 N 
ENDBRANCH  35   9
ENDBRANCH  27  28
ENDBRANCH  18  24
ENDBRANCH  13  18
TORSDOF 13
ENDMDL
MODEL 5
REMARK VINA RESULT:      -5.7     18.004     21.283
REMARK  Name = 45783986
REMARK  18 active torsions:
REMARK  status: ('A' for Active; 'I' for Inactive)
REMARK    1  A    between atoms: O_2  and  C_25
REMARK    2  A    between atoms: O_2  and  C_29
REMARK    3  A    between atoms: O_3  and  C_26
REMARK    4  A    between atoms: O_3  and  C_30
REMARK    5  A    between atoms: N_6  and  C_16
REMARK    6  A    between atoms: N_6  and  C_22
REMARK    7  A    between atoms: N_6  and  C_23
REMARK    8  A    between atoms: N_9  and  C_35
REMARK    9  A    between atoms: C_10  and  C_14
REMARK   10  A    between atoms: C_11  and  C_16
REMARK   11  A    between atoms: C_13  and  C_18
REMARK   12  A    between atoms: C_14  and  C_19
REMARK   13  A    between atoms: C_14  and  C_20
REMARK   14  A    between atoms: C_15  and  C_21
REMARK   15  A    between atoms: C_18  and  C_24
REMARK   16  A    between atoms: C_22  and  C_25
REMARK   17  A    between atoms: C_23  and  C_26
REMARK   18  A    between atoms: C_27  and  C_28
REMARK                            x       y       z     vdW  Elec       q    Type
REMARK                         _______ _______ _______ _____ _____    ______ ____
ROOT
ATOM     10  C   UNL     1      -3.811 -10.445  15.431  0.00  0.00    +0.000 C 
ATOM     11  C   UNL     1      -4.915 -11.214  14.668  0.00  0.00    +0.029 C 
ATOM     12  C   UNL     1      -4.080 -10.476  16.942  0.00  0.00    +0.012 C 
ATOM     13  C   UNL     1      -4.199 -11.905  17.512  0.00  0.00    +0.024 C 
ATOM     15  C   UNL     1      -4.950 -12.854  16.592  0.00  0.00    -0.073 C 
ATOM     17  C   UNL     1      -5.271 -12.522  15.327  0.00  0.00    -0.023 C 
ATOM     21  C   UNL     1      -5.279 -14.223  17.123  0.00  0.00    +0.039 C 
ENDROOT
BRANCH  10  14
ATOM     14  C   UNL     1      -2.417 -10.997  15.103  0.00  0.00    -0.013 C 
ATOM     19  C   UNL     1      -1.344 -10.209  15.849  0.00  0.00    +0.007 C 
ATOM     20  C   UNL     1      -2.169 -10.959  13.599  0.00  0.00    +0.007 C 
ENDBRANCH  10  14
BRANCH  11  16
ATOM     16  C   UNL     1      -6.184 -10.370  14.506  0.00  0.00    +0.092 C 
BRANCH  16   6
ATOM      6  N   UNL     1      -6.601 -10.333  13.115  0.00  0.00    -0.297 NA
BRANCH   6  22
ATOM     22  C   UNL     1      -5.532  -9.801  12.265  0.00  0.00    +0.112 C 
BRANCH  22  25
ATOM     25  C   UNL     1      -6.101  -8.861  11.213  0.00  0.00    +0.174 C 
BRANCH  25   2
ATOM      2  O   UNL     1      -5.029  -8.145  10.614  0.00  0.00    -0.382 OA
ATOM     29  C   UNL     1      -3.986  -9.017  10.202  0.00  0.00    +0.194 C 
ENDBRANCH  25   2
ENDBRANCH  22  25
ENDBRANCH   6  22
BRANCH   6  23
ATOM     23  C   UNL     1      -7.816  -9.529  12.957  0.00  0.00    +0.112 C 
BRANCH  23  26
ATOM     26  C   UNL     1      -9.055 -10.376  13.198  0.00  0.00    +0.174 C 
BRANCH  26   3
ATOM      3  O   UNL     1     -10.177  -9.515  13.342  0.00  0.00    -0.382 OA
ATOM     30  C   UNL     1     -10.986  -9.514  12.174  0.00  0.00    +0.194 C 
ENDBRANCH  26   3
ENDBRANCH  23  26
ENDBRANCH   6  23
ENDBRANCH  16   6
ENDBRANCH  11  16
BRANCH  13  18
ATOM     18  C   UNL     1      -4.815 -11.822  18.915  0.00  0.00    +0.105 C 
BRANCH  18  24
ATOM      1  O   UNL     1      -6.836 -10.616  18.271  0.00  0.00    -0.420 OA
ATOM      7  N   UNL     1      -7.220 -12.575  19.281  0.00  0.00    -0.112 NA
ATOM      8  N   UNL     1      -8.442 -12.006  18.974  0.00  0.00    -0.107 NA
ATOM     24  C   UNL     1      -6.312 -11.730  18.852  0.00  0.00    +0.218 A 
ATOM     27  C   UNL     1      -8.170 -10.865  18.386  0.00  0.00    +0.248 A 
BRANCH  27  28
ATOM     28  C   UNL     1      -9.043  -9.859  17.856  0.00  0.00    +0.039 A 
ATOM     31  C   UNL     1     -10.376  -9.808  18.263  0.00  0.00    +0.015 A 
ATOM     32  C   UNL     1      -8.560  -8.930  16.934  0.00  0.00    +0.015 A 
ATOM     33  C   UNL     1     -11.227  -8.830  17.748  0.00  0.00    +0.033 A 
ATOM     34  C   UNL     1      -9.410  -7.951  16.418  0.00  0.00    +0.033 A 
ATOM     35  C   UNL     1     -10.743  -7.901  16.825  0.00  0.00    +0.126 A 
BRANCH  35   9
ATOM      4  O   UNL     1     -12.823  -7.173  16.147  0.00  0.00    -0.126 OA
ATOM      5  O   UNL     1     -11.133  -5.779  16.011  0.00  0.00    -0.126 OA
ATOM      9  N   UNL     1     -11.607  -6.903  16.303  0.00  0.00    +0.056 N 
ENDBRANCH  35   9
ENDBRANCH  27  28
ENDBRANCH  18  24
ENDBRANCH  13  18
TORSDOF 13
ENDMDL
MODEL 6
REMARK VINA RESULT:      -5.7     20.161     22.699
REMARK  Name = 45783986
REMARK  18 active torsions:
REMARK  status: ('A' for Active; 'I' for Inactive)
REMARK    1  A    between atoms: O_2  and  C_25
REMARK    2  A    between atoms: O_2  and  C_29
REMARK    3  A    between atoms: O_3  and  C_26
REMARK    4  A    between atoms: O_3  and  C_30
REMARK    5  A    between atoms: N_6  and  C_16
REMARK    6  A    between atoms: N_6  and  C_22
REMARK    7  A    between atoms: N_6  and  C_23
REMARK    8  A    between atoms: N_9  and  C_35
REMARK    9  A    between atoms: C_10  and  C_14
REMARK   10  A    between atoms: C_11  and  C_16
REMARK   11  A    between atoms: C_13  and  C_18
REMARK   12  A    between atoms: C_14  and  C_19
REMARK   13  A    between atoms: C_14  and  C_20
REMARK   14  A    between atoms: C_15  and  C_21
REMARK   15  A    between atoms: C_18  and  C_24
REMARK   16  A    between atoms: C_22  and  C_25
REMARK   17  A    between atoms: C_23  and  C_26
REMARK   18  A    between atoms: C_27  and  C_28
REMARK                            x       y       z     vdW  Elec       q    Type
REMARK                         _______ _______ _______ _____ _____    ______ ____
ROOT
ATOM     10  C   UNL     1      -5.191 -12.015  15.514  0.00  0.00    +0.000 C 
ATOM     11  C   UNL     1      -4.828 -11.068  16.681  0.00  0.00    +0.029 C 
ATOM     12  C   UNL     1      -4.582 -11.507  14.199  0.00  0.00    +0.012 C 
ATOM     13  C   UNL     1      -3.049 -11.334  14.263  0.00  0.00    +0.024 C 
ATOM     15  C   UNL     1      -2.568 -10.766  15.589  0.00  0.00    -0.073 C 
ATOM     17  C   UNL     1      -3.381 -10.644  16.654  0.00  0.00    -0.023 C 
ATOM     21  C   UNL     1      -1.115 -10.390  15.697  0.00  0.00    +0.039 C 
ENDROOT
BRANCH  10  14
ATOM     14  C   UNL     1      -4.756 -13.457  15.807  0.00  0.00    -0.013 C 
ATOM     19  C   UNL     1      -5.288 -14.402  14.734  0.00  0.00    +0.007 C 
ATOM     20  C   UNL     1      -5.232 -13.887  17.190  0.00  0.00    +0.007 C 
ENDBRANCH  10  14
BRANCH  11  16
ATOM     16  C   UNL     1      -5.718  -9.821  16.697  0.00  0.00    +0.092 C 
BRANCH  16   6
ATOM      6  N   UNL     1      -7.064 -10.158  17.127  0.00  0.00    -0.297 NA
BRANCH   6  22
ATOM     22  C   UNL     1      -8.028  -9.164  16.646  0.00  0.00    +0.112 C 
BRANCH  22  25
ATOM     25  C   UNL     1      -9.119  -9.830  15.822  0.00  0.00    +0.174 C 
BRANCH  25   2
ATOM      2  O   UNL     1      -8.705 -11.152  15.501  0.00  0.00    -0.382 OA
ATOM     29  C   UNL     1      -8.639 -11.350  14.095  0.00  0.00    +0.194 C 
ENDBRANCH  25   2
ENDBRANCH  22  25
ENDBRANCH   6  22
BRANCH   6  23
ATOM     23  C   UNL     1      -7.134 -10.260  18.588  0.00  0.00    +0.112 C 
BRANCH  23  26
ATOM     26  C   UNL     1      -7.737 -11.592  19.005  0.00  0.00    +0.174 C 
BRANCH  26   3
ATOM      3  O   UNL     1      -8.693 -11.360  20.030  0.00  0.00    -0.382 OA
ATOM     30  C   UNL     1      -9.852 -10.713  19.524  0.00  0.00    +0.194 C 
ENDBRANCH  26   3
ENDBRANCH  23  26
ENDBRANCH   6  23
ENDBRANCH  16   6
ENDBRANCH  11  16
BRANCH  13  18
ATOM     18  C   UNL     1      -2.601 -10.498  13.057  0.00  0.00    +0.105 C 
BRANCH  18  24
ATOM      1  O   UNL     1      -3.866 -10.262  10.985  0.00  0.00    -0.420 OA
ATOM      7  N   UNL     1      -2.933 -12.275  11.264  0.00  0.00    -0.112 NA
ATOM      8  N   UNL     1      -3.611 -12.283  10.060  0.00  0.00    -0.107 NA
ATOM     24  C   UNL     1      -3.109 -11.076  11.768  0.00  0.00    +0.218 A 
ATOM     27  C   UNL     1      -4.141 -11.088   9.938  0.00  0.00    +0.248 A 
BRANCH  27  28
ATOM     28  C   UNL     1      -4.947 -10.530   8.892  0.00  0.00    +0.039 A 
ATOM     31  C   UNL     1      -4.849 -11.029   7.594  0.00  0.00    +0.015 A 
ATOM     32  C   UNL     1      -5.831  -9.488   9.174  0.00  0.00    +0.015 A 
ATOM     33  C   UNL     1      -5.633 -10.486   6.576  0.00  0.00    +0.033 A 
ATOM     34  C   UNL     1      -6.616  -8.944   8.157  0.00  0.00    +0.033 A 
ATOM     35  C   UNL     1      -6.517  -9.443   6.858  0.00  0.00    +0.126 A 
BRANCH  35   9
ATOM      4  O   UNL     1      -7.750  -7.720   5.946  0.00  0.00    -0.126 OA
ATOM      5  O   UNL     1      -7.570  -9.591   4.812  0.00  0.00    -0.126 OA
ATOM      9  N   UNL     1      -7.317  -8.892   5.823  0.00  0.00    +0.056 N 
ENDBRANCH  35   9
ENDBRANCH  27  28
ENDBRANCH  18  24
ENDBRANCH  13  18
TORSDOF 13
ENDMDL
MODEL 7
REMARK VINA RESULT:      -5.7      6.629     11.040
REMARK  Name = 45783986
REMARK  18 active torsions:
REMARK  status: ('A' for Active; 'I' for Inactive)
REMARK    1  A    between atoms: O_2  and  C_25
REMARK    2  A    between atoms: O_2  and  C_29
REMARK    3  A    between atoms: O_3  and  C_26
REMARK    4  A    between atoms: O_3  and  C_30
REMARK    5  A    between atoms: N_6  and  C_16
REMARK    6  A    between atoms: N_6  and  C_22
REMARK    7  A    between atoms: N_6  and  C_23
REMARK    8  A    between atoms: N_9  and  C_35
REMARK    9  A    between atoms: C_10  and  C_14
REMARK   10  A    between atoms: C_11  and  C_16
REMARK   11  A    between atoms: C_13  and  C_18
REMARK   12  A    between atoms: C_14  and  C_19
REMARK   13  A    between atoms: C_14  and  C_20
REMARK   14  A    between atoms: C_15  and  C_21
REMARK   15  A    between atoms: C_18  and  C_24
REMARK   16  A    between atoms: C_22  and  C_25
REMARK   17  A    between atoms: C_23  and  C_26
REMARK   18  A    between atoms: C_27  and  C_28
REMARK                            x       y       z     vdW  Elec       q    Type
REMARK                         _______ _______ _______ _____ _____    ______ ____
ROOT
ATOM     10  C   UNL     1     -10.838  10.041  31.763  0.00  0.00    +0.000 C 
ATOM     11  C   UNL     1     -10.504  10.838  33.045  0.00  0.00    +0.029 C 
ATOM     12  C   UNL     1     -11.514   8.710  32.119  0.00  0.00    +0.012 C 
ATOM     13  C   UNL     1     -12.794   8.882  32.966  0.00  0.00    +0.024 C 
ATOM     15  C   UNL     1     -12.670   9.971  34.019  0.00  0.00    -0.073 C 
ATOM     17  C   UNL     1     -11.633  10.829  34.044  0.00  0.00    -0.023 C 
ATOM     21  C   UNL     1     -13.789  10.105  35.016  0.00  0.00    +0.039 C 
ENDROOT
BRANCH  10  14
ATOM     14  C   UNL     1     -11.705  10.865  30.802  0.00  0.00    -0.013 C 
ATOM     19  C   UNL     1     -12.004  10.066  29.537  0.00  0.00    +0.007 C 
ATOM     20  C   UNL     1     -11.016  12.182  30.459  0.00  0.00    +0.007 C 
ENDBRANCH  10  14
BRANCH  11  16
ATOM     16  C   UNL     1      -9.230  10.319  33.720  0.00  0.00    +0.092 C 
BRANCH  16   6
ATOM      6  N   UNL     1      -8.656  11.335  34.584  0.00  0.00    -0.297 NA
BRANCH   6  22
ATOM     22  C   UNL     1      -7.400  11.845  34.026  0.00  0.00    +0.112 C 
BRANCH  22  25
ATOM     25  C   UNL     1      -7.652  13.084  33.180  0.00  0.00    +0.174 C 
BRANCH  25   2
ATOM      2  O   UNL     1      -6.658  13.154  32.167  0.00  0.00    -0.382 OA
ATOM     29  C   UNL     1      -5.455  13.731  32.656  0.00  0.00    +0.194 C 
ENDBRANCH  25   2
ENDBRANCH  22  25
ENDBRANCH   6  22
BRANCH   6  23
ATOM     23  C   UNL     1      -8.428  10.805  35.932  0.00  0.00    +0.112 C 
BRANCH  23  26
ATOM     26  C   UNL     1      -8.555   9.290  35.942  0.00  0.00    +0.174 C 
BRANCH  26   3
ATOM      3  O   UNL     1      -7.611   8.759  36.862  0.00  0.00    -0.382 OA
ATOM     30  C   UNL     1      -6.736   9.766  37.350  0.00  0.00    +0.194 C 
ENDBRANCH  26   3
ENDBRANCH  23  26
ENDBRANCH   6  23
ENDBRANCH  16   6
ENDBRANCH  11  16
BRANCH  13  18
ATOM     18  C   UNL     1     -13.174   7.519  33.559  0.00  0.00    +0.105 C 
BRANCH  18  24
ATOM      1  O   UNL     1     -13.854   5.421  32.516  0.00  0.00    -0.420 OA
ATOM      7  N   UNL     1     -15.100   7.184  31.928  0.00  0.00    -0.112 NA
ATOM      8  N   UNL     1     -15.593   6.073  31.269  0.00  0.00    -0.107 NA
ATOM     24  C   UNL     1     -14.086   6.756  32.644  0.00  0.00    +0.218 A 
ATOM     27  C   UNL     1     -14.837   5.068  31.641  0.00  0.00    +0.248 A 
BRANCH  27  28
ATOM     28  C   UNL     1     -14.883   3.682  31.277  0.00  0.00    +0.039 A 
ATOM     31  C   UNL     1     -14.909   2.702  32.269  0.00  0.00    +0.015 A 
ATOM     32  C   UNL     1     -14.904   3.314  29.932  0.00  0.00    +0.015 A 
ATOM     33  C   UNL     1     -14.954   1.353  31.915  0.00  0.00    +0.033 A 
ATOM     34  C   UNL     1     -14.949   1.966  29.577  0.00  0.00    +0.033 A 
ATOM     35  C   UNL     1     -14.975   0.985  30.569  0.00  0.00    +0.126 A 
BRANCH  35   9
ATOM      4  O   UNL     1     -14.109  -0.861  29.492  0.00  0.00    -0.126 OA
ATOM      5  O   UNL     1     -15.979  -1.090  30.619  0.00  0.00    -0.126 OA
ATOM      9  N   UNL     1     -15.023  -0.388  30.209  0.00  0.00    +0.056 N 
ENDBRANCH  35   9
ENDBRANCH  27  28
ENDBRANCH  18  24
ENDBRANCH  13  18
TORSDOF 13
ENDMDL
MODEL 8
REMARK VINA RESULT:      -5.6     31.540     34.747
REMARK  Name = 45783986
REMARK  18 active torsions:
REMARK  status: ('A' for Active; 'I' for Inactive)
REMARK    1  A    between atoms: O_2  and  C_25
REMARK    2  A    between atoms: O_2  and  C_29
REMARK    3  A    between atoms: O_3  and  C_26
REMARK    4  A    between atoms: O_3  and  C_30
REMARK    5  A    between atoms: N_6  and  C_16
REMARK    6  A    between atoms: N_6  and  C_22
REMARK    7  A    between atoms: N_6  and  C_23
REMARK    8  A    between atoms: N_9  and  C_35
REMARK    9  A    between atoms: C_10  and  C_14
REMARK   10  A    between atoms: C_11  and  C_16
REMARK   11  A    between atoms: C_13  and  C_18
REMARK   12  A    between atoms: C_14  and  C_19
REMARK   13  A    between atoms: C_14  and  C_20
REMARK   14  A    between atoms: C_15  and  C_21
REMARK   15  A    between atoms: C_18  and  C_24
REMARK   16  A    between atoms: C_22  and  C_25
REMARK   17  A    between atoms: C_23  and  C_26
REMARK   18  A    between atoms: C_27  and  C_28
REMARK                            x       y       z     vdW  Elec       q    Type
REMARK                         _______ _______ _______ _____ _____    ______ ____
ROOT
ATOM     10  C   UNL     1      17.348  -2.738  24.661  0.00  0.00    +0.000 C 
ATOM     11  C   UNL     1      18.222  -3.847  24.031  0.00  0.00    +0.029 C 
ATOM     12  C   UNL     1      17.549  -2.694  26.182  0.00  0.00    +0.012 C 
ATOM     13  C   UNL     1      19.022  -2.486  26.598  0.00  0.00    +0.024 C 
ATOM     15  C   UNL     1      20.001  -3.258  25.728  0.00  0.00    -0.073 C 
ATOM     17  C   UNL     1      19.622  -3.870  24.590  0.00  0.00    -0.023 C 
ATOM     21  C   UNL     1      21.445  -3.272  26.150  0.00  0.00    +0.039 C 
ENDROOT
BRANCH  10  14
ATOM     14  C   UNL     1      17.632  -1.372  24.023  0.00  0.00    -0.013 C 
ATOM     19  C   UNL     1      16.834  -0.279  24.728  0.00  0.00    +0.007 C 
ATOM     20  C   UNL     1      17.308  -1.402  22.533  0.00  0.00    +0.007 C 
ENDBRANCH  10  14
BRANCH  11  16
ATOM     16  C   UNL     1      17.589  -5.232  24.202  0.00  0.00    +0.092 C 
BRANCH  16   6
ATOM      6  N   UNL     1      18.582  -6.276  24.017  0.00  0.00    -0.297 NA
BRANCH   6  22
ATOM     22  C   UNL     1      18.634  -6.704  22.616  0.00  0.00    +0.112 C 
BRANCH  22  25
ATOM     25  C   UNL     1      20.064  -7.015  22.202  0.00  0.00    +0.174 C 
BRANCH  25   2
ATOM      2  O   UNL     1      20.170  -6.883  20.791  0.00  0.00    -0.382 OA
ATOM     29  C   UNL     1      19.931  -5.546  20.374  0.00  0.00    +0.194 C 
ENDBRANCH  25   2
ENDBRANCH  22  25
ENDBRANCH   6  22
BRANCH   6  23
ATOM     23  C   UNL     1      18.298  -7.425  24.883  0.00  0.00    +0.112 C 
BRANCH  23  26
ATOM     26  C   UNL     1      16.897  -7.325  25.465  0.00  0.00    +0.174 C 
BRANCH  26   3
ATOM      3  O   UNL     1      16.620  -8.512  26.195  0.00  0.00    -0.382 OA
ATOM     30  C   UNL     1      16.372  -9.611  25.328  0.00  0.00    +0.194 C 
ENDBRANCH  26   3
ENDBRANCH  23  26
ENDBRANCH   6  23
ENDBRANCH  16   6
ENDBRANCH  11  16
BRANCH  13  18
ATOM     18  C   UNL     1      19.160  -2.817  28.089  0.00  0.00    +0.105 C 
BRANCH  18  24
ATOM      1  O   UNL     1      17.225  -3.818  29.185  0.00  0.00    -0.420 OA
ATOM      7  N   UNL     1      18.579  -5.294  28.189  0.00  0.00    -0.112 NA
ATOM      8  N   UNL     1      17.534  -5.994  28.763  0.00  0.00    -0.107 NA
ATOM     24  C   UNL     1      18.356  -4.029  28.460  0.00  0.00    +0.218 A 
ATOM     27  C   UNL     1      16.768  -5.093  29.333  0.00  0.00    +0.248 A 
BRANCH  27  28
ATOM     28  C   UNL     1      15.549  -5.241  30.073  0.00  0.00    +0.039 A 
ATOM     31  C   UNL     1      14.636  -6.235  29.721  0.00  0.00    +0.015 A 
ATOM     32  C   UNL     1      15.277  -4.392  31.145  0.00  0.00    +0.015 A 
ATOM     33  C   UNL     1      13.450  -6.379  30.441  0.00  0.00    +0.033 A 
ATOM     34  C   UNL     1      14.090  -4.535  31.865  0.00  0.00    +0.033 A 
ATOM     35  C   UNL     1      13.177  -5.529  31.513  0.00  0.00    +0.126 A 
BRANCH  35   9
ATOM      4  O   UNL     1      11.372  -4.650  32.648  0.00  0.00    -0.126 OA
ATOM      5  O   UNL     1      11.536  -6.832  32.475  0.00  0.00    -0.126 OA
ATOM      9  N   UNL     1      11.971  -5.678  32.247  0.00  0.00    +0.056 N 
ENDBRANCH  35   9
ENDBRANCH  27  28
ENDBRANCH  18  24
ENDBRANCH  13  18
TORSDOF 13
ENDMDL
MODEL 9
REMARK VINA RESULT:      -5.6      6.714     11.790
REMARK  Name = 45783986
REMARK  18 active torsions:
REMARK  status: ('A' for Active; 'I' for Inactive)
REMARK    1  A    between atoms: O_2  and  C_25
REMARK    2  A    between atoms: O_2  and  C_29
REMARK    3  A    between atoms: O_3  and  C_26
REMARK    4  A    between atoms: O_3  and  C_30
REMARK    5  A    between atoms: N_6  and  C_16
REMARK    6  A    between atoms: N_6  and  C_22
REMARK    7  A    between atoms: N_6  and  C_23
REMARK    8  A    between atoms: N_9  and  C_35
REMARK    9  A    between atoms: C_10  and  C_14
REMARK   10  A    between atoms: C_11  and  C_16
REMARK   11  A    between atoms: C_13  and  C_18
REMARK   12  A    between atoms: C_14  and  C_19
REMARK   13  A    between atoms: C_14  and  C_20
REMARK   14  A    between atoms: C_15  and  C_21
REMARK   15  A    between atoms: C_18  and  C_24
REMARK   16  A    between atoms: C_22  and  C_25
REMARK   17  A    between atoms: C_23  and  C_26
REMARK   18  A    between atoms: C_27  and  C_28
REMARK                            x       y       z     vdW  Elec       q    Type
REMARK                         _______ _______ _______ _____ _____    ______ ____
ROOT
ATOM     10  C   UNL     1     -11.303   9.356  36.502  0.00  0.00    +0.000 C 
ATOM     11  C   UNL     1     -11.076  10.564  35.563  0.00  0.00    +0.029 C 
ATOM     12  C   UNL     1     -12.545   8.565  36.069  0.00  0.00    +0.012 C 
ATOM     13  C   UNL     1     -12.478   8.074  34.607  0.00  0.00    +0.024 C 
ATOM     15  C   UNL     1     -11.866   9.096  33.662  0.00  0.00    -0.073 C 
ATOM     17  C   UNL     1     -11.254  10.209  34.109  0.00  0.00    -0.023 C 
ATOM     21  C   UNL     1     -11.913   8.797  32.188  0.00  0.00    +0.039 C 
ENDROOT
BRANCH  10  14
ATOM     14  C   UNL     1     -10.063   8.454  36.563  0.00  0.00    -0.013 C 
ATOM     19  C   UNL     1     -10.164   7.491  37.742  0.00  0.00    +0.007 C 
ATOM     20  C   UNL     1      -8.796   9.296  36.660  0.00  0.00    +0.007 C 
ENDBRANCH  10  14
BRANCH  11  16
ATOM     16  C   UNL     1     -12.000  11.735  35.913  0.00  0.00    +0.092 C 
BRANCH  16   6
ATOM      6  N   UNL     1     -12.180  11.835  37.351  0.00  0.00    -0.297 NA
BRANCH   6  22
ATOM     22  C   UNL     1     -13.598  11.988  37.689  0.00  0.00    +0.112 C 
BRANCH  22  25
ATOM     25  C   UNL     1     -13.758  12.745  38.999  0.00  0.00    +0.174 C 
BRANCH  25   2
ATOM      2  O   UNL     1     -14.001  11.809  40.040  0.00  0.00    -0.382 OA
ATOM     29  C   UNL     1     -15.242  11.139  39.860  0.00  0.00    +0.194 C 
ENDBRANCH  25   2
ENDBRANCH  22  25
ENDBRANCH   6  22
BRANCH   6  23
ATOM     23  C   UNL     1     -11.409  12.957  37.895  0.00  0.00    +0.112 C 
BRANCH  23  26
ATOM     26  C   UNL     1     -10.211  12.452  38.683  0.00  0.00    +0.174 C 
BRANCH  26   3
ATOM      3  O   UNL     1     -10.545  11.203  39.273  0.00  0.00    -0.382 OA
ATOM     30  C   UNL     1     -10.325  11.215  40.677  0.00  0.00    +0.194 C 
ENDBRANCH  26   3
ENDBRANCH  23  26
ENDBRANCH   6  23
ENDBRANCH  16   6
ENDBRANCH  11  16
BRANCH  13  18
ATOM     18  C   UNL     1     -13.881   7.628  34.176  0.00  0.00    +0.105 C 
BRANCH  18  24
ATOM      1  O   UNL     1     -14.040   5.431  33.127  0.00  0.00    -0.420 OA
ATOM      7  N   UNL     1     -14.194   5.395  35.359  0.00  0.00    -0.112 NA
ATOM      8  N   UNL     1     -14.298   4.094  34.902  0.00  0.00    -0.107 NA
ATOM     24  C   UNL     1     -14.044   6.140  34.288  0.00  0.00    +0.218 A 
ATOM     27  C   UNL     1     -14.204   4.162  33.596  0.00  0.00    +0.248 A 
BRANCH  27  28
ATOM     28  C   UNL     1     -14.244   3.128  32.603  0.00  0.00    +0.039 A 
ATOM     31  C   UNL     1     -14.696   1.853  32.944  0.00  0.00    +0.015 A 
ATOM     32  C   UNL     1     -13.833   3.397  31.298  0.00  0.00    +0.015 A 
ATOM     33  C   UNL     1     -14.736   0.847  31.979  0.00  0.00    +0.033 A 
ATOM     34  C   UNL     1     -13.872   2.391  30.332  0.00  0.00    +0.033 A 
ATOM     35  C   UNL     1     -14.324   1.116  30.673  0.00  0.00    +0.126 A 
BRANCH  35   9
ATOM      4  O   UNL     1     -13.496  -0.811  29.714  0.00  0.00    -0.126 OA
ATOM      5  O   UNL     1     -15.275   0.117  28.825  0.00  0.00    -0.126 OA
ATOM      9  N   UNL     1     -14.367   0.092  29.690  0.00  0.00    +0.056 N 
ENDBRANCH  35   9
ENDBRANCH  27  28
ENDBRANCH  18  24
ENDBRANCH  13  18
TORSDOF 13
ENDMDL
MODEL 10
REMARK VINA RESULT:      -5.5     18.697     21.935
REMARK  Name = 45783986
REMARK  18 active torsions:
REMARK  status: ('A' for Active; 'I' for Inactive)
REMARK    1  A    between atoms: O_2  and  C_25
REMARK    2  A    between atoms: O_2  and  C_29
REMARK    3  A    between atoms: O_3  and  C_26
REMARK    4  A    between atoms: O_3  and  C_30
REMARK    5  A    between atoms: N_6  and  C_16
REMARK    6  A    between atoms: N_6  and  C_22
REMARK    7  A    between atoms: N_6  and  C_23
REMARK    8  A    between atoms: N_9  and  C_35
REMARK    9  A    between atoms: C_10  and  C_14
REMARK   10  A    between atoms: C_11  and  C_16
REMARK   11  A    between atoms: C_13  and  C_18
REMARK   12  A    between atoms: C_14  and  C_19
REMARK   13  A    between atoms: C_14  and  C_20
REMARK   14  A    between atoms: C_15  and  C_21
REMARK   15  A    between atoms: C_18  and  C_24
REMARK   16  A    between atoms: C_22  and  C_25
REMARK   17  A    between atoms: C_23  and  C_26
REMARK   18  A    between atoms: C_27  and  C_28
REMARK                            x       y       z     vdW  Elec       q    Type
REMARK                         _______ _______ _______ _____ _____    ______ ____
ROOT
ATOM     10  C   UNL     1      -3.705 -10.519  15.070  0.00  0.00    +0.000 C 
ATOM     11  C   UNL     1      -4.810 -11.402  14.445  0.00  0.00    +0.029 C 
ATOM     12  C   UNL     1      -4.035 -10.201  16.535  0.00  0.00    +0.012 C 
ATOM     13  C   UNL     1      -4.238 -11.462  17.403  0.00  0.00    +0.024 C 
ATOM     15  C   UNL     1      -4.992 -12.568  16.681  0.00  0.00    -0.073 C 
ATOM     17  C   UNL     1      -5.248 -12.517  15.360  0.00  0.00    -0.023 C 
ATOM     21  C   UNL     1      -5.401 -13.771  17.486  0.00  0.00    +0.039 C 
ENDROOT
BRANCH  10  14
ATOM     14  C   UNL     1      -2.324 -11.176  14.941  0.00  0.00    -0.013 C 
ATOM     19  C   UNL     1      -1.255 -10.299  15.588  0.00  0.00    +0.007 C 
ATOM     20  C   UNL     1      -1.994 -11.439  13.476  0.00  0.00    +0.007 C 
ENDBRANCH  10  14
BRANCH  11  16
ATOM     16  C   UNL     1      -6.033 -10.574  14.038  0.00  0.00    +0.092 C 
BRANCH  16   6
ATOM      6  N   UNL     1      -6.337 -10.766  12.631  0.00  0.00    -0.297 NA
BRANCH   6  22
ATOM     22  C   UNL     1      -5.346 -11.641  11.998  0.00  0.00    +0.112 C 
BRANCH  22  25
ATOM     25  C   UNL     1      -6.020 -12.612  11.041  0.00  0.00    +0.174 C 
BRANCH  25   2
ATOM      2  O   UNL     1      -5.058 -13.063  10.097  0.00  0.00    -0.382 OA
ATOM     29  C   UNL     1      -3.784 -12.479  10.331  0.00  0.00    +0.194 C 
ENDBRANCH  25   2
ENDBRANCH  22  25
ENDBRANCH   6  22
BRANCH   6  23
ATOM     23  C   UNL     1      -6.393  -9.480  11.929  0.00  0.00    +0.112 C 
BRANCH  23  26
ATOM     26  C   UNL     1      -5.023  -9.104  11.388  0.00  0.00    +0.174 C 
BRANCH  26   3
ATOM      3  O   UNL     1      -5.191  -8.426  10.150  0.00  0.00    -0.382 OA
ATOM     30  C   UNL     1      -4.345  -8.963   9.143  0.00  0.00    +0.194 C 
ENDBRANCH  26   3
ENDBRANCH  23  26
ENDBRANCH   6  23
ENDBRANCH  16   6
ENDBRANCH  11  16
BRANCH  13  18
ATOM     18  C   UNL     1      -4.906 -11.046  18.720  0.00  0.00    +0.105 C 
BRANCH  18  24
ATOM      1  O   UNL     1      -6.859 -10.007  17.693  0.00  0.00    -0.420 OA
ATOM      7  N   UNL     1      -7.347 -11.616  19.168  0.00  0.00    -0.112 NA
ATOM      8  N   UNL     1      -8.537 -11.120  18.669  0.00  0.00    -0.107 NA
ATOM     24  C   UNL     1      -6.395 -10.938  18.570  0.00  0.00    +0.218 A 
ATOM     27  C   UNL     1      -8.204 -10.184  17.812  0.00  0.00    +0.248 A 
BRANCH  27  28
ATOM     28  C   UNL     1      -9.023  -9.334  16.997  0.00  0.00    +0.039 A 
ATOM     31  C   UNL     1      -9.141  -9.584  15.629  0.00  0.00    +0.015 A 
ATOM     32  C   UNL     1      -9.701  -8.259  17.570  0.00  0.00    +0.015 A 
ATOM     33  C   UNL     1      -9.937  -8.758  14.835  0.00  0.00    +0.033 A 
ATOM     34  C   UNL     1     -10.497  -7.432  16.777  0.00  0.00    +0.033 A 
ATOM     35  C   UNL     1     -10.615  -7.682  15.410  0.00  0.00    +0.126 A 
BRANCH  35   9
ATOM      4  O   UNL     1     -11.501  -5.620  14.877  0.00  0.00    -0.126 OA
ATOM      5  O   UNL     1     -12.048  -7.345  13.635  0.00  0.00    -0.126 OA
ATOM      9  N   UNL     1     -11.427  -6.842  14.602  0.00  0.00    +0.056 N 
ENDBRANCH  35   9
ENDBRANCH  27  28
ENDBRANCH  18  24
ENDBRANCH  13  18
TORSDOF 13
ENDMDL
