MODEL 1
REMARK VINA RESULT:      -7.1      0.000      0.000
REMARK  Name = 45783571
REMARK  12 active torsions:
REMARK  status: ('A' for Active; 'I' for Inactive)
REMARK    1  A    between atoms: O_2  and  C_17
REMARK    2  A    between atoms: O_3  and  C_22
REMARK    3  A    between atoms: O_3  and  C_28
REMARK    4  A    between atoms: O_4  and  C_27
REMARK    5  A    between atoms: O_4  and  C_29
REMARK    6  A    between atoms: O_5  and  C_30
REMARK    7  A    between atoms: O_5  and  C_31
REMARK    8  A    between atoms: N_6  and  C_14
REMARK    9  A    between atoms: C_10  and  C_15
REMARK   10  A    between atoms: C_14  and  C_16
REMARK   11  A    between atoms: C_19  and  C_23
REMARK   12  A    between atoms: C_29  and  C_30
REMARK                            x       y       z     vdW  Elec       q    Type
REMARK                         _______ _______ _______ _____ _____    ______ ____
ROOT
ATOM      6  N   UNL     1      12.568   8.461  18.386  0.00  0.00    -0.287 NA
ATOM     10  C   UNL     1      13.676   7.616  17.898  0.00  0.00    +0.146 C 
ATOM     11  C   UNL     1      13.967   8.135  16.478  0.00  0.00    +0.030 C 
ATOM     12  C   UNL     1      12.934   9.227  16.234  0.00  0.00    +0.017 C 
ATOM     13  C   UNL     1      11.820   8.887  17.203  0.00  0.00    +0.085 C 
ENDROOT
BRANCH  10  15
ATOM      1  O   UNL     1      15.024   8.782  19.569  0.00  0.00    -0.336 OA
ATOM      7  N   UNL     1      15.850   6.794  18.954  0.00  0.00    -0.190 NA
ATOM      8  N   UNL     1      16.203   8.607  20.305  0.00  0.00    -0.056 NA
ATOM     15  C   UNL     1      14.891   7.670  18.800  0.00  0.00    +0.245 A 
ATOM     19  C   UNL     1      16.632   7.411  19.887  0.00  0.00    +0.204 A 
BRANCH  19  23
ATOM      9  N   UNL     1      19.553   5.124  20.139  0.00  0.00    -0.221 NA
ATOM     23  C   UNL     1      17.835   6.807  20.383  0.00  0.00    +0.041 A 
ATOM     24  C   UNL     1      18.448   7.276  21.539  0.00  0.00    +0.018 A 
ATOM     25  C   UNL     1      18.421   5.738  19.725  0.00  0.00    +0.126 A 
ATOM     26  C   UNL     1      19.614   6.670  21.996  0.00  0.00    +0.068 A 
ATOM     27  C   UNL     1      20.121   5.607  21.266  0.00  0.00    +0.215 A 
BRANCH  27   4
ATOM      4  O   UNL     1      21.268   4.993  21.696  0.00  0.00    -0.474 OA
BRANCH   4  29
ATOM     29  C   UNL     1      21.530   3.694  21.181  0.00  0.00    +0.258 C 
BRANCH  29  30
ATOM     30  C   UNL     1      23.029   3.465  21.153  0.00  0.00    +0.200 C 
BRANCH  30   5
ATOM      5  O   UNL     1      23.284   2.106  20.815  0.00  0.00    -0.380 OA
ATOM     31  C   UNL     1      24.655   1.777  20.989  0.00  0.00    +0.194 C 
ENDBRANCH  30   5
ENDBRANCH  29  30
ENDBRANCH   4  29
ENDBRANCH  27   4
ENDBRANCH  19  23
ENDBRANCH  10  15
BRANCH   6  14
ATOM     14  C   UNL     1      11.718   7.787  19.360  0.00  0.00    +0.124 C 
BRANCH  14  16
ATOM     16  C   UNL     1      11.431   8.659  20.553  0.00  0.00    +0.008 A 
ATOM     17  C   UNL     1      10.642   8.191  21.604  0.00  0.00    +0.125 A 
ATOM     18  C   UNL     1      11.966   9.946  20.601  0.00  0.00    +0.012 A 
ATOM     20  C   UNL     1      10.388   9.012  22.704  0.00  0.00    +0.091 A 
ATOM     21  C   UNL     1      11.710  10.766  21.700  0.00  0.00    +0.046 A 
ATOM     22  C   UNL     1      10.921  10.300  22.751  0.00  0.00    +0.124 A 
BRANCH  17   2
ATOM      2  O   UNL     1      10.113   6.936  21.573  0.00  0.00    -0.506 OA
ATOM     32  H   UNL     1      10.811   6.298  21.352  0.00  0.00    +0.292 HD
ENDBRANCH  17   2
BRANCH  22   3
ATOM      3  O   UNL     1      10.673  11.099  23.823  0.00  0.00    -0.495 OA
ATOM     28  C   UNL     1      10.940  12.492  23.671  0.00  0.00    +0.277 C 
ENDBRANCH  22   3
ENDBRANCH  14  16
ENDBRANCH   6  14
TORSDOF 10
ENDMDL
MODEL 2
REMARK VINA RESULT:      -6.9     27.627     31.928
REMARK  Name = 45783571
REMARK  12 active torsions:
REMARK  status: ('A' for Active; 'I' for Inactive)
REMARK    1  A    between atoms: O_2  and  C_17
REMARK    2  A    between atoms: O_3  and  C_22
REMARK    3  A    between atoms: O_3  and  C_28
REMARK    4  A    between atoms: O_4  and  C_27
REMARK    5  A    between atoms: O_4  and  C_29
REMARK    6  A    between atoms: O_5  and  C_30
REMARK    7  A    between atoms: O_5  and  C_31
REMARK    8  A    between atoms: N_6  and  C_14
REMARK    9  A    between atoms: C_10  and  C_15
REMARK   10  A    between atoms: C_14  and  C_16
REMARK   11  A    between atoms: C_19  and  C_23
REMARK   12  A    between atoms: C_29  and  C_30
REMARK                            x       y       z     vdW  Elec       q    Type
REMARK                         _______ _______ _______ _____ _____    ______ ____
ROOT
ATOM      6  N   UNL     1     -16.516   5.168  20.928  0.00  0.00    -0.287 NA
ATOM     10  C   UNL     1     -17.737   4.564  21.499  0.00  0.00    +0.146 C 
ATOM     11  C   UNL     1     -18.449   3.916  20.297  0.00  0.00    +0.030 C 
ATOM     12  C   UNL     1     -17.587   4.260  19.090  0.00  0.00    +0.017 C 
ATOM     13  C   UNL     1     -16.825   5.491  19.535  0.00  0.00    +0.085 C 
ENDROOT
BRANCH  10  15
ATOM      1  O   UNL     1     -17.409   2.262  22.250  0.00  0.00    -0.336 OA
ATOM      7  N   UNL     1     -17.192   3.793  23.870  0.00  0.00    -0.190 NA
ATOM      8  N   UNL     1     -17.116   1.551  23.421  0.00  0.00    -0.056 NA
ATOM     15  C   UNL     1     -17.435   3.575  22.603  0.00  0.00    +0.245 A 
ATOM     19  C   UNL     1     -17.002   2.523  24.331  0.00  0.00    +0.204 A 
BRANCH  19  23
ATOM      9  N   UNL     1     -16.580   0.669  27.527  0.00  0.00    -0.221 NA
ATOM     23  C   UNL     1     -16.699   2.257  25.708  0.00  0.00    +0.041 A 
ATOM     24  C   UNL     1     -16.249   3.267  26.551  0.00  0.00    +0.018 A 
ATOM     25  C   UNL     1     -16.847   0.986  26.240  0.00  0.00    +0.126 A 
ATOM     26  C   UNL     1     -15.964   2.979  27.881  0.00  0.00    +0.068 A 
ATOM     27  C   UNL     1     -16.144   1.676  28.316  0.00  0.00    +0.215 A 
BRANCH  27   4
ATOM      4  O   UNL     1     -15.870   1.367  29.623  0.00  0.00    -0.474 OA
BRANCH   4  29
ATOM     29  C   UNL     1     -14.738   0.541  29.861  0.00  0.00    +0.258 C 
BRANCH  29  30
ATOM     30  C   UNL     1     -13.848   1.206  30.893  0.00  0.00    +0.200 C 
BRANCH  30   5
ATOM      5  O   UNL     1     -13.745   2.592  30.592  0.00  0.00    -0.380 OA
ATOM     31  C   UNL     1     -13.122   3.308  31.649  0.00  0.00    +0.194 C 
ENDBRANCH  30   5
ENDBRANCH  29  30
ENDBRANCH   4  29
ENDBRANCH  27   4
ENDBRANCH  19  23
ENDBRANCH  10  15
BRANCH   6  14
ATOM     14  C   UNL     1     -16.050   6.333  21.671  0.00  0.00    +0.124 C 
BRANCH  14  16
ATOM     16  C   UNL     1     -14.648   6.721  21.284  0.00  0.00    +0.008 A 
ATOM     17  C   UNL     1     -13.588   5.830  21.457  0.00  0.00    +0.125 A 
ATOM     18  C   UNL     1     -14.414   7.987  20.747  0.00  0.00    +0.012 A 
ATOM     20  C   UNL     1     -12.295   6.205  21.092  0.00  0.00    +0.091 A 
ATOM     21  C   UNL     1     -13.121   8.362  20.383  0.00  0.00    +0.046 A 
ATOM     22  C   UNL     1     -12.061   7.471  20.556  0.00  0.00    +0.124 A 
BRANCH  17   2
ATOM      2  O   UNL     1     -13.799   4.589  21.980  0.00  0.00    -0.506 OA
ATOM     32  H   UNL     1     -13.916   3.951  21.257  0.00  0.00    +0.292 HD
ENDBRANCH  17   2
BRANCH  22   3
ATOM      3  O   UNL     1     -10.800   7.837  20.200  0.00  0.00    -0.495 OA
ATOM     28  C   UNL     1     -10.642   9.118  19.593  0.00  0.00    +0.277 C 
ENDBRANCH  22   3
ENDBRANCH  14  16
ENDBRANCH   6  14
TORSDOF 10
ENDMDL
MODEL 3
REMARK VINA RESULT:      -6.7      2.320      2.961
REMARK  Name = 45783571
REMARK  12 active torsions:
REMARK  status: ('A' for Active; 'I' for Inactive)
REMARK    1  A    between atoms: O_2  and  C_17
REMARK    2  A    between atoms: O_3  and  C_22
REMARK    3  A    between atoms: O_3  and  C_28
REMARK    4  A    between atoms: O_4  and  C_27
REMARK    5  A    between atoms: O_4  and  C_29
REMARK    6  A    between atoms: O_5  and  C_30
REMARK    7  A    between atoms: O_5  and  C_31
REMARK    8  A    between atoms: N_6  and  C_14
REMARK    9  A    between atoms: C_10  and  C_15
REMARK   10  A    between atoms: C_14  and  C_16
REMARK   11  A    between atoms: C_19  and  C_23
REMARK   12  A    between atoms: C_29  and  C_30
REMARK                            x       y       z     vdW  Elec       q    Type
REMARK                         _______ _______ _______ _____ _____    ______ ____
ROOT
ATOM      6  N   UNL     1      13.537   8.041  19.456  0.00  0.00    -0.287 NA
ATOM     10  C   UNL     1      14.247   7.041  18.633  0.00  0.00    +0.146 C 
ATOM     11  C   UNL     1      14.200   7.608  17.203  0.00  0.00    +0.030 C 
ATOM     12  C   UNL     1      13.392   8.894  17.310  0.00  0.00    +0.017 C 
ATOM     13  C   UNL     1      12.575   8.698  18.570  0.00  0.00    +0.085 C 
ENDROOT
BRANCH  10  15
ATOM      1  O   UNL     1      16.365   5.837  18.449  0.00  0.00    -0.336 OA
ATOM      7  N   UNL     1      16.316   7.354  20.095  0.00  0.00    -0.190 NA
ATOM      8  N   UNL     1      17.621   5.781  19.067  0.00  0.00    -0.056 NA
ATOM     15  C   UNL     1      15.659   6.788  19.116  0.00  0.00    +0.245 A 
ATOM     19  C   UNL     1      17.514   6.705  20.027  0.00  0.00    +0.204 A 
BRANCH  19  23
ATOM      9  N   UNL     1      19.577   8.521  22.532  0.00  0.00    -0.221 NA
ATOM     23  C   UNL     1      18.587   7.003  20.933  0.00  0.00    +0.041 A 
ATOM     24  C   UNL     1      19.647   6.121  21.103  0.00  0.00    +0.018 A 
ATOM     25  C   UNL     1      18.598   8.180  21.664  0.00  0.00    +0.126 A 
ATOM     26  C   UNL     1      20.672   6.437  21.987  0.00  0.00    +0.068 A 
ATOM     27  C   UNL     1      20.591   7.639  22.672  0.00  0.00    +0.215 A 
BRANCH  27   4
ATOM      4  O   UNL     1      21.589   7.973  23.549  0.00  0.00    -0.474 OA
BRANCH   4  29
ATOM     29  C   UNL     1      22.461   6.926  23.955  0.00  0.00    +0.258 C 
BRANCH  29  30
ATOM     30  C   UNL     1      22.366   6.758  25.460  0.00  0.00    +0.200 C 
BRANCH  30   5
ATOM      5  O   UNL     1      21.134   6.122  25.778  0.00  0.00    -0.380 OA
ATOM     31  C   UNL     1      20.337   6.931  26.631  0.00  0.00    +0.194 C 
ENDBRANCH  30   5
ENDBRANCH  29  30
ENDBRANCH   4  29
ENDBRANCH  27   4
ENDBRANCH  19  23
ENDBRANCH  10  15
BRANCH   6  14
ATOM     14  C   UNL     1      12.896   7.467  20.633  0.00  0.00    +0.124 C 
BRANCH  14  16
ATOM     16  C   UNL     1      12.284   8.526  21.511  0.00  0.00    +0.008 A 
ATOM     17  C   UNL     1      10.942   8.454  21.883  0.00  0.00    +0.125 A 
ATOM     18  C   UNL     1      13.075   9.587  21.952  0.00  0.00    +0.012 A 
ATOM     20  C   UNL     1      10.390   9.444  22.698  0.00  0.00    +0.091 A 
ATOM     21  C   UNL     1      12.523  10.576  22.766  0.00  0.00    +0.046 A 
ATOM     22  C   UNL     1      11.181  10.504  23.139  0.00  0.00    +0.124 A 
BRANCH  17   2
ATOM      2  O   UNL     1      10.155   7.425  21.461  0.00  0.00    -0.506 OA
ATOM     32  H   UNL     1       9.941   7.549  20.521  0.00  0.00    +0.292 HD
ENDBRANCH  17   2
BRANCH  22   3
ATOM      3  O   UNL     1      10.643  11.469  23.934  0.00  0.00    -0.495 OA
ATOM     28  C   UNL     1      11.359  11.807  25.120  0.00  0.00    +0.277 C 
ENDBRANCH  22   3
ENDBRANCH  14  16
ENDBRANCH   6  14
TORSDOF 10
ENDMDL
MODEL 4
REMARK VINA RESULT:      -6.6      3.235      9.628
REMARK  Name = 45783571
REMARK  12 active torsions:
REMARK  status: ('A' for Active; 'I' for Inactive)
REMARK    1  A    between atoms: O_2  and  C_17
REMARK    2  A    between atoms: O_3  and  C_22
REMARK    3  A    between atoms: O_3  and  C_28
REMARK    4  A    between atoms: O_4  and  C_27
REMARK    5  A    between atoms: O_4  and  C_29
REMARK    6  A    between atoms: O_5  and  C_30
REMARK    7  A    between atoms: O_5  and  C_31
REMARK    8  A    between atoms: N_6  and  C_14
REMARK    9  A    between atoms: C_10  and  C_15
REMARK   10  A    between atoms: C_14  and  C_16
REMARK   11  A    between atoms: C_19  and  C_23
REMARK   12  A    between atoms: C_29  and  C_30
REMARK                            x       y       z     vdW  Elec       q    Type
REMARK                         _______ _______ _______ _____ _____    ______ ____
ROOT
ATOM      6  N   UNL     1      21.441   5.508  22.479  0.00  0.00    -0.287 NA
ATOM     10  C   UNL     1      21.051   5.922  21.117  0.00  0.00    +0.146 C 
ATOM     11  C   UNL     1      21.048   4.618  20.298  0.00  0.00    +0.030 C 
ATOM     12  C   UNL     1      21.508   3.538  21.267  0.00  0.00    +0.017 C 
ATOM     13  C   UNL     1      22.268   4.310  22.327  0.00  0.00    +0.085 C 
ENDROOT
BRANCH  10  15
ATOM      1  O   UNL     1      19.734   7.967  21.354  0.00  0.00    -0.336 OA
ATOM      7  N   UNL     1      18.524   6.155  20.837  0.00  0.00    -0.190 NA
ATOM      8  N   UNL     1      18.404   8.399  21.269  0.00  0.00    -0.056 NA
ATOM     15  C   UNL     1      19.716   6.635  21.086  0.00  0.00    +0.245 A 
ATOM     19  C   UNL     1      17.752   7.274  20.960  0.00  0.00    +0.204 A 
BRANCH  19  23
ATOM      9  N   UNL     1      14.114   7.544  21.682  0.00  0.00    -0.221 NA
ATOM     23  C   UNL     1      16.331   7.235  20.768  0.00  0.00    +0.041 A 
ATOM     24  C   UNL     1      15.783   6.868  19.544  0.00  0.00    +0.018 A 
ATOM     25  C   UNL     1      15.462   7.561  21.796  0.00  0.00    +0.126 A 
ATOM     26  C   UNL     1      14.401   6.839  19.388  0.00  0.00    +0.068 A 
ATOM     27  C   UNL     1      13.618   7.182  20.478  0.00  0.00    +0.215 A 
BRANCH  27   4
ATOM      4  O   UNL     1      12.254   7.161  20.349  0.00  0.00    -0.474 OA
BRANCH   4  29
ATOM     29  C   UNL     1      11.531   6.413  21.319  0.00  0.00    +0.258 C 
BRANCH  29  30
ATOM     30  C   UNL     1      10.475   7.303  21.945  0.00  0.00    +0.200 C 
BRANCH  30   5
ATOM      5  O   UNL     1      10.643   8.631  21.462  0.00  0.00    -0.380 OA
ATOM     31  C   UNL     1      10.834   9.551  22.528  0.00  0.00    +0.194 C 
ENDBRANCH  30   5
ENDBRANCH  29  30
ENDBRANCH   4  29
ENDBRANCH  27   4
ENDBRANCH  19  23
ENDBRANCH  10  15
BRANCH   6  14
ATOM     14  C   UNL     1      22.128   6.556  23.224  0.00  0.00    +0.124 C 
BRANCH  14  16
ATOM     16  C   UNL     1      21.694   6.596  24.665  0.00  0.00    +0.008 A 
ATOM     17  C   UNL     1      20.567   7.323  25.050  0.00  0.00    +0.125 A 
ATOM     18  C   UNL     1      22.432   5.896  25.619  0.00  0.00    +0.012 A 
ATOM     20  C   UNL     1      20.178   7.349  26.390  0.00  0.00    +0.091 A 
ATOM     21  C   UNL     1      22.043   5.923  26.959  0.00  0.00    +0.046 A 
ATOM     22  C   UNL     1      20.917   6.649  27.344  0.00  0.00    +0.124 A 
BRANCH  17   2
ATOM      2  O   UNL     1      19.835   8.013  24.131  0.00  0.00    -0.506 OA
ATOM     32  H   UNL     1      19.944   8.967  24.284  0.00  0.00    +0.292 HD
ENDBRANCH  17   2
BRANCH  22   3
ATOM      3  O   UNL     1      20.537   6.674  28.650  0.00  0.00    -0.495 OA
ATOM     28  C   UNL     1      19.811   7.820  29.094  0.00  0.00    +0.277 C 
ENDBRANCH  22   3
ENDBRANCH  14  16
ENDBRANCH   6  14
TORSDOF 10
ENDMDL
MODEL 5
REMARK VINA RESULT:      -6.5     25.854     29.777
REMARK  Name = 45783571
REMARK  12 active torsions:
REMARK  status: ('A' for Active; 'I' for Inactive)
REMARK    1  A    between atoms: O_2  and  C_17
REMARK    2  A    between atoms: O_3  and  C_22
REMARK    3  A    between atoms: O_3  and  C_28
REMARK    4  A    between atoms: O_4  and  C_27
REMARK    5  A    between atoms: O_4  and  C_29
REMARK    6  A    between atoms: O_5  and  C_30
REMARK    7  A    between atoms: O_5  and  C_31
REMARK    8  A    between atoms: N_6  and  C_14
REMARK    9  A    between atoms: C_10  and  C_15
REMARK   10  A    between atoms: C_14  and  C_16
REMARK   11  A    between atoms: C_19  and  C_23
REMARK   12  A    between atoms: C_29  and  C_30
REMARK                            x       y       z     vdW  Elec       q    Type
REMARK                         _______ _______ _______ _____ _____    ______ ____
ROOT
ATOM      6  N   UNL     1      -3.159 -10.614  14.416  0.00  0.00    -0.287 NA
ATOM     10  C   UNL     1      -3.030 -11.275  15.729  0.00  0.00    +0.146 C 
ATOM     11  C   UNL     1      -1.722 -10.718  16.320  0.00  0.00    +0.030 C 
ATOM     12  C   UNL     1      -1.157  -9.801  15.243  0.00  0.00    +0.017 C 
ATOM     13  C   UNL     1      -1.798 -10.310  13.969  0.00  0.00    +0.085 C 
ENDROOT
BRANCH  10  15
ATOM      1  O   UNL     1      -4.044 -11.254  17.952  0.00  0.00    -0.336 OA
ATOM      7  N   UNL     1      -5.431 -10.631  16.308  0.00  0.00    -0.190 NA
ATOM      8  N   UNL     1      -5.270 -10.967  18.566  0.00  0.00    -0.056 NA
ATOM     15  C   UNL     1      -4.226 -11.031  16.624  0.00  0.00    +0.245 A 
ATOM     19  C   UNL     1      -6.036 -10.605  17.531  0.00  0.00    +0.204 A 
BRANCH  19  23
ATOM      9  N   UNL     1      -9.237  -8.787  17.009  0.00  0.00    -0.221 NA
ATOM     23  C   UNL     1      -7.407 -10.214  17.687  0.00  0.00    +0.041 A 
ATOM     24  C   UNL     1      -8.228 -10.836  18.621  0.00  0.00    +0.018 A 
ATOM     25  C   UNL     1      -7.955  -9.205  16.912  0.00  0.00    +0.126 A 
ATOM     26  C   UNL     1      -9.553 -10.434  18.750  0.00  0.00    +0.068 A 
ATOM     27  C   UNL     1     -10.005  -9.414  17.927  0.00  0.00    +0.215 A 
BRANCH  27   4
ATOM      4  O   UNL     1     -11.307  -9.001  18.035  0.00  0.00    -0.474 OA
BRANCH   4  29
ATOM     29  C   UNL     1     -12.125  -9.154  16.882  0.00  0.00    +0.258 C 
BRANCH  29  30
ATOM     30  C   UNL     1     -12.696  -7.802  16.497  0.00  0.00    +0.200 C 
BRANCH  30   5
ATOM      5  O   UNL     1     -11.888  -7.232  15.474  0.00  0.00    -0.380 OA
ATOM     31  C   UNL     1     -11.307  -6.006  15.893  0.00  0.00    +0.194 C 
ENDBRANCH  30   5
ENDBRANCH  29  30
ENDBRANCH   4  29
ENDBRANCH  27   4
ENDBRANCH  19  23
ENDBRANCH  10  15
BRANCH   6  14
ATOM     14  C   UNL     1      -3.891 -11.411  13.440  0.00  0.00    +0.124 C 
BRANCH  14  16
ATOM     16  C   UNL     1      -4.443 -10.565  12.324  0.00  0.00    +0.008 A 
ATOM     17  C   UNL     1      -5.488  -9.671  12.557  0.00  0.00    +0.125 A 
ATOM     18  C   UNL     1      -3.896 -10.682  11.046  0.00  0.00    +0.012 A 
ATOM     20  C   UNL     1      -5.987  -8.893  11.511  0.00  0.00    +0.091 A 
ATOM     21  C   UNL     1      -4.396  -9.904  10.001  0.00  0.00    +0.046 A 
ATOM     22  C   UNL     1      -5.441  -9.011  10.233  0.00  0.00    +0.124 A 
BRANCH  17   2
ATOM      2  O   UNL     1      -6.033  -9.545  13.799  0.00  0.00    -0.506 OA
ATOM     32  H   UNL     1      -6.894  -9.101  13.729  0.00  0.00    +0.292 HD
ENDBRANCH  17   2
BRANCH  22   3
ATOM      3  O   UNL     1      -5.927  -8.252   9.214  0.00  0.00    -0.495 OA
ATOM     28  C   UNL     1      -6.730  -8.913   8.237  0.00  0.00    +0.277 C 
ENDBRANCH  22   3
ENDBRANCH  14  16
ENDBRANCH   6  14
TORSDOF 10
ENDMDL
MODEL 6
REMARK VINA RESULT:      -6.5      5.368      9.019
REMARK  Name = 45783571
REMARK  12 active torsions:
REMARK  status: ('A' for Active; 'I' for Inactive)
REMARK    1  A    between atoms: O_2  and  C_17
REMARK    2  A    between atoms: O_3  and  C_22
REMARK    3  A    between atoms: O_3  and  C_28
REMARK    4  A    between atoms: O_4  and  C_27
REMARK    5  A    between atoms: O_4  and  C_29
REMARK    6  A    between atoms: O_5  and  C_30
REMARK    7  A    between atoms: O_5  and  C_31
REMARK    8  A    between atoms: N_6  and  C_14
REMARK    9  A    between atoms: C_10  and  C_15
REMARK   10  A    between atoms: C_14  and  C_16
REMARK   11  A    between atoms: C_19  and  C_23
REMARK   12  A    between atoms: C_29  and  C_30
REMARK                            x       y       z     vdW  Elec       q    Type
REMARK                         _______ _______ _______ _____ _____    ______ ____
ROOT
ATOM      6  N   UNL     1      14.399  13.132  14.144  0.00  0.00    -0.287 NA
ATOM     10  C   UNL     1      15.463  12.282  14.715  0.00  0.00    +0.146 C 
ATOM     11  C   UNL     1      16.089  13.139  15.830  0.00  0.00    +0.030 C 
ATOM     12  C   UNL     1      15.356  14.472  15.769  0.00  0.00    +0.017 C 
ATOM     13  C   UNL     1      14.818  14.518  14.354  0.00  0.00    +0.085 C 
ENDROOT
BRANCH  10  15
ATOM      1  O   UNL     1      14.948   9.923  14.338  0.00  0.00    -0.336 OA
ATOM      7  N   UNL     1      14.469  10.645  16.403  0.00  0.00    -0.190 NA
ATOM      8  N   UNL     1      14.425   8.820  15.024  0.00  0.00    -0.056 NA
ATOM     15  C   UNL     1      14.939  10.955  15.222  0.00  0.00    +0.245 A 
ATOM     19  C   UNL     1      14.167   9.325  16.234  0.00  0.00    +0.204 A 
BRANCH  19  23
ATOM      9  N   UNL     1      11.649   7.632  18.384  0.00  0.00    -0.221 NA
ATOM     23  C   UNL     1      13.609   8.537  17.295  0.00  0.00    +0.041 A 
ATOM     24  C   UNL     1      14.425   7.927  18.241  0.00  0.00    +0.018 A 
ATOM     25  C   UNL     1      12.240   8.360  17.409  0.00  0.00    +0.126 A 
ATOM     26  C   UNL     1      13.855   7.170  19.259  0.00  0.00    +0.068 A 
ATOM     27  C   UNL     1      12.474   7.054  19.286  0.00  0.00    +0.215 A 
BRANCH  27   4
ATOM      4  O   UNL     1      11.888   6.314  20.278  0.00  0.00    -0.474 OA
BRANCH   4  29
ATOM     29  C   UNL     1      11.844   6.900  21.573  0.00  0.00    +0.258 C 
BRANCH  29  30
ATOM     30  C   UNL     1      10.611   7.778  21.677  0.00  0.00    +0.200 C 
BRANCH  30   5
ATOM      5  O   UNL     1      10.915   8.909  22.485  0.00  0.00    -0.380 OA
ATOM     31  C   UNL     1      12.149   9.501  22.107  0.00  0.00    +0.194 C 
ENDBRANCH  30   5
ENDBRANCH  29  30
ENDBRANCH   4  29
ENDBRANCH  27   4
ENDBRANCH  19  23
ENDBRANCH  10  15
BRANCH   6  14
ATOM     14  C   UNL     1      14.127  12.847  12.740  0.00  0.00    +0.124 C 
BRANCH  14  16
ATOM     16  C   UNL     1      12.653  12.877  12.436  0.00  0.00    +0.008 A 
ATOM     17  C   UNL     1      11.773  12.018  13.094  0.00  0.00    +0.125 A 
ATOM     18  C   UNL     1      12.171  13.777  11.486  0.00  0.00    +0.012 A 
ATOM     20  C   UNL     1      10.409  12.060  12.801  0.00  0.00    +0.091 A 
ATOM     21  C   UNL     1      10.808  13.818  11.193  0.00  0.00    +0.046 A 
ATOM     22  C   UNL     1       9.927  12.959  11.850  0.00  0.00    +0.124 A 
BRANCH  17   2
ATOM      2  O   UNL     1      12.227  11.133  14.025  0.00  0.00    -0.506 OA
ATOM     32  H   UNL     1      11.939  11.420  14.908  0.00  0.00    +0.292 HD
ENDBRANCH  17   2
BRANCH  22   3
ATOM      3  O   UNL     1       8.597  13.000  11.565  0.00  0.00    -0.495 OA
ATOM     28  C   UNL     1       8.215  12.756  10.212  0.00  0.00    +0.277 C 
ENDBRANCH  22   3
ENDBRANCH  14  16
ENDBRANCH   6  14
TORSDOF 10
ENDMDL
MODEL 7
REMARK VINA RESULT:      -6.5     26.097     29.962
REMARK  Name = 45783571
REMARK  12 active torsions:
REMARK  status: ('A' for Active; 'I' for Inactive)
REMARK    1  A    between atoms: O_2  and  C_17
REMARK    2  A    between atoms: O_3  and  C_22
REMARK    3  A    between atoms: O_3  and  C_28
REMARK    4  A    between atoms: O_4  and  C_27
REMARK    5  A    between atoms: O_4  and  C_29
REMARK    6  A    between atoms: O_5  and  C_30
REMARK    7  A    between atoms: O_5  and  C_31
REMARK    8  A    between atoms: N_6  and  C_14
REMARK    9  A    between atoms: C_10  and  C_15
REMARK   10  A    between atoms: C_14  and  C_16
REMARK   11  A    between atoms: C_19  and  C_23
REMARK   12  A    between atoms: C_29  and  C_30
REMARK                            x       y       z     vdW  Elec       q    Type
REMARK                         _______ _______ _______ _____ _____    ______ ____
ROOT
ATOM      6  N   UNL     1      -3.238 -10.582  14.456  0.00  0.00    -0.287 NA
ATOM     10  C   UNL     1      -3.151 -11.269  15.761  0.00  0.00    +0.146 C 
ATOM     11  C   UNL     1      -1.821 -10.788  16.368  0.00  0.00    +0.030 C 
ATOM     12  C   UNL     1      -1.203  -9.885  15.309  0.00  0.00    +0.017 C 
ATOM     13  C   UNL     1      -1.860 -10.342  14.023  0.00  0.00    +0.085 C 
ENDROOT
BRANCH  10  15
ATOM      1  O   UNL     1      -4.156 -11.158  17.986  0.00  0.00    -0.336 OA
ATOM      7  N   UNL     1      -5.541 -10.570  16.327  0.00  0.00    -0.190 NA
ATOM      8  N   UNL     1      -5.374 -10.832  18.594  0.00  0.00    -0.056 NA
ATOM     15  C   UNL     1      -4.340 -10.977  16.652  0.00  0.00    +0.245 A 
ATOM     19  C   UNL     1      -6.139 -10.495  17.551  0.00  0.00    +0.204 A 
BRANCH  19  23
ATOM      9  N   UNL     1      -9.666 -10.417  18.726  0.00  0.00    -0.221 NA
ATOM     23  C   UNL     1      -7.504 -10.079  17.699  0.00  0.00    +0.041 A 
ATOM     24  C   UNL     1      -8.000  -8.984  17.001  0.00  0.00    +0.018 A 
ATOM     25  C   UNL     1      -8.370 -10.756  18.543  0.00  0.00    +0.126 A 
ATOM     26  C   UNL     1      -9.328  -8.605  17.164  0.00  0.00    +0.068 A 
ATOM     27  C   UNL     1     -10.113  -9.348  18.031  0.00  0.00    +0.215 A 
BRANCH  27   4
ATOM      4  O   UNL     1     -11.424  -8.994  18.209  0.00  0.00    -0.474 OA
BRANCH   4  29
ATOM     29  C   UNL     1     -12.374 -10.052  18.237  0.00  0.00    +0.258 C 
BRANCH  29  30
ATOM     30  C   UNL     1     -13.306  -9.850  19.417  0.00  0.00    +0.200 C 
BRANCH  30   5
ATOM      5  O   UNL     1     -12.640 -10.251  20.608  0.00  0.00    -0.380 OA
ATOM     31  C   UNL     1     -12.635 -11.665  20.749  0.00  0.00    +0.194 C 
ENDBRANCH  30   5
ENDBRANCH  29  30
ENDBRANCH   4  29
ENDBRANCH  27   4
ENDBRANCH  19  23
ENDBRANCH  10  15
BRANCH   6  14
ATOM     14  C   UNL     1      -4.003 -11.327  13.464  0.00  0.00    +0.124 C 
BRANCH  14  16
ATOM     16  C   UNL     1      -4.524 -10.433  12.371  0.00  0.00    +0.008 A 
ATOM     17  C   UNL     1      -5.604  -9.581  12.601  0.00  0.00    +0.125 A 
ATOM     18  C   UNL     1      -3.913 -10.463  11.117  0.00  0.00    +0.012 A 
ATOM     20  C   UNL     1      -6.074  -8.758  11.576  0.00  0.00    +0.091 A 
ATOM     21  C   UNL     1      -4.384  -9.641  10.093  0.00  0.00    +0.046 A 
ATOM     22  C   UNL     1      -5.464  -8.789  10.323  0.00  0.00    +0.124 A 
BRANCH  17   2
ATOM      2  O   UNL     1      -6.212  -9.540  13.820  0.00  0.00    -0.506 OA
ATOM     32  H   UNL     1      -6.919  -8.874  13.803  0.00  0.00    +0.292 HD
ENDBRANCH  17   2
BRANCH  22   3
ATOM      3  O   UNL     1      -5.922  -7.986   9.324  0.00  0.00    -0.495 OA
ATOM     28  C   UNL     1      -7.301  -8.101   8.979  0.00  0.00    +0.277 C 
ENDBRANCH  22   3
ENDBRANCH  14  16
ENDBRANCH   6  14
TORSDOF 10
ENDMDL
MODEL 8
REMARK VINA RESULT:      -6.4     26.886     29.780
REMARK  Name = 45783571
REMARK  12 active torsions:
REMARK  status: ('A' for Active; 'I' for Inactive)
REMARK    1  A    between atoms: O_2  and  C_17
REMARK    2  A    between atoms: O_3  and  C_22
REMARK    3  A    between atoms: O_3  and  C_28
REMARK    4  A    between atoms: O_4  and  C_27
REMARK    5  A    between atoms: O_4  and  C_29
REMARK    6  A    between atoms: O_5  and  C_30
REMARK    7  A    between atoms: O_5  and  C_31
REMARK    8  A    between atoms: N_6  and  C_14
REMARK    9  A    between atoms: C_10  and  C_15
REMARK   10  A    between atoms: C_14  and  C_16
REMARK   11  A    between atoms: C_19  and  C_23
REMARK   12  A    between atoms: C_29  and  C_30
REMARK                            x       y       z     vdW  Elec       q    Type
REMARK                         _______ _______ _______ _____ _____    ______ ____
ROOT
ATOM      6  N   UNL     1     -10.192 -11.815  19.061  0.00  0.00    -0.287 NA
ATOM     10  C   UNL     1      -8.973 -12.265  19.763  0.00  0.00    +0.146 C 
ATOM     11  C   UNL     1      -8.983 -13.798  19.616  0.00  0.00    +0.030 C 
ATOM     12  C   UNL     1     -10.273 -14.119  18.874  0.00  0.00    +0.017 C 
ATOM     13  C   UNL     1     -11.151 -12.916  19.149  0.00  0.00    +0.085 C 
ENDROOT
BRANCH  10  15
ATOM      1  O   UNL     1      -7.099 -10.715  19.999  0.00  0.00    -0.336 OA
ATOM      7  N   UNL     1      -7.118 -11.838  18.062  0.00  0.00    -0.190 NA
ATOM      8  N   UNL     1      -5.978 -10.275  19.284  0.00  0.00    -0.056 NA
ATOM     15  C   UNL     1      -7.715 -11.633  19.208  0.00  0.00    +0.245 A 
ATOM     19  C   UNL     1      -6.058 -10.984  18.153  0.00  0.00    +0.204 A 
BRANCH  19  23
ATOM      9  N   UNL     1      -4.634 -10.454  14.759  0.00  0.00    -0.221 NA
ATOM     23  C   UNL     1      -5.094 -10.861  17.097  0.00  0.00    +0.041 A 
ATOM     24  C   UNL     1      -3.736 -11.020  17.345  0.00  0.00    +0.018 A 
ATOM     25  C   UNL     1      -5.489 -10.581  15.799  0.00  0.00    +0.126 A 
ATOM     26  C   UNL     1      -2.826 -10.897  16.300  0.00  0.00    +0.068 A 
ATOM     27  C   UNL     1      -3.321 -10.616  15.037  0.00  0.00    +0.215 A 
BRANCH  27   4
ATOM      4  O   UNL     1      -2.445 -10.489  13.992  0.00  0.00    -0.474 OA
BRANCH   4  29
ATOM     29  C   UNL     1      -2.992 -10.581  12.683  0.00  0.00    +0.258 C 
BRANCH  29  30
ATOM     30  C   UNL     1      -1.927 -10.200  11.673  0.00  0.00    +0.200 C 
BRANCH  30   5
ATOM      5  O   UNL     1      -2.524  -9.427  10.639  0.00  0.00    -0.380 OA
ATOM     31  C   UNL     1      -3.942  -9.475  10.708  0.00  0.00    +0.194 C 
ENDBRANCH  30   5
ENDBRANCH  29  30
ENDBRANCH   4  29
ENDBRANCH  27   4
ENDBRANCH  19  23
ENDBRANCH  10  15
BRANCH   6  14
ATOM     14  C   UNL     1     -10.735 -10.571  19.594  0.00  0.00    +0.124 C 
BRANCH  14  16
ATOM     16  C   UNL     1     -11.125  -9.615  18.498  0.00  0.00    +0.008 A 
ATOM     17  C   UNL     1     -10.159  -8.855  17.839  0.00  0.00    +0.125 A 
ATOM     18  C   UNL     1     -12.469  -9.495  18.145  0.00  0.00    +0.012 A 
ATOM     20  C   UNL     1     -10.538  -7.973  16.825  0.00  0.00    +0.091 A 
ATOM     21  C   UNL     1     -12.847  -8.613  17.132  0.00  0.00    +0.046 A 
ATOM     22  C   UNL     1     -11.882  -7.853  16.473  0.00  0.00    +0.124 A 
BRANCH  17   2
ATOM      2  O   UNL     1      -8.842  -8.960  18.172  0.00  0.00    -0.506 OA
ATOM     32  H   UNL     1      -8.541  -8.121  18.559  0.00  0.00    +0.292 HD
ENDBRANCH  17   2
BRANCH  22   3
ATOM      3  O   UNL     1     -12.251  -6.994  15.484  0.00  0.00    -0.495 OA
ATOM     28  C   UNL     1     -11.303  -6.000  15.099  0.00  0.00    +0.277 C 
ENDBRANCH  22   3
ENDBRANCH  14  16
ENDBRANCH   6  14
TORSDOF 10
ENDMDL
MODEL 9
REMARK VINA RESULT:      -6.4     26.428     29.948
REMARK  Name = 45783571
REMARK  12 active torsions:
REMARK  status: ('A' for Active; 'I' for Inactive)
REMARK    1  A    between atoms: O_2  and  C_17
REMARK    2  A    between atoms: O_3  and  C_22
REMARK    3  A    between atoms: O_3  and  C_28
REMARK    4  A    between atoms: O_4  and  C_27
REMARK    5  A    between atoms: O_4  and  C_29
REMARK    6  A    between atoms: O_5  and  C_30
REMARK    7  A    between atoms: O_5  and  C_31
REMARK    8  A    between atoms: N_6  and  C_14
REMARK    9  A    between atoms: C_10  and  C_15
REMARK   10  A    between atoms: C_14  and  C_16
REMARK   11  A    between atoms: C_19  and  C_23
REMARK   12  A    between atoms: C_29  and  C_30
REMARK                            x       y       z     vdW  Elec       q    Type
REMARK                         _______ _______ _______ _____ _____    ______ ____
ROOT
ATOM      6  N   UNL     1      -2.955 -10.530  14.220  0.00  0.00    -0.287 NA
ATOM     10  C   UNL     1      -3.076 -11.241  15.509  0.00  0.00    +0.146 C 
ATOM     11  C   UNL     1      -1.870 -10.758  16.335  0.00  0.00    +0.030 C 
ATOM     12  C   UNL     1      -1.097  -9.831  15.407  0.00  0.00    +0.017 C 
ATOM     13  C   UNL     1      -1.528 -10.269  14.023  0.00  0.00    +0.085 C 
ENDROOT
BRANCH  10  15
ATOM      1  O   UNL     1      -4.980  -9.773  15.950  0.00  0.00    -0.336 OA
ATOM      7  N   UNL     1      -5.080 -11.745  17.008  0.00  0.00    -0.190 NA
ATOM      8  N   UNL     1      -6.172  -9.760  16.685  0.00  0.00    -0.056 NA
ATOM     15  C   UNL     1      -4.398 -10.977  16.196  0.00  0.00    +0.245 A 
ATOM     19  C   UNL     1      -6.160 -10.957  17.281  0.00  0.00    +0.204 A 
BRANCH  19  23
ATOM      9  N   UNL     1      -9.517 -11.217  18.858  0.00  0.00    -0.221 NA
ATOM     23  C   UNL     1      -7.212 -11.394  18.153  0.00  0.00    +0.041 A 
ATOM     24  C   UNL     1      -6.986 -12.374  19.112  0.00  0.00    +0.018 A 
ATOM     25  C   UNL     1      -8.484 -10.851  18.067  0.00  0.00    +0.126 A 
ATOM     26  C   UNL     1      -8.025 -12.777  19.945  0.00  0.00    +0.068 A 
ATOM     27  C   UNL     1      -9.261 -12.172  19.779  0.00  0.00    +0.215 A 
BRANCH  27   4
ATOM      4  O   UNL     1     -10.300 -12.552  20.586  0.00  0.00    -0.474 OA
BRANCH   4  29
ATOM     29  C   UNL     1     -10.453 -13.946  20.821  0.00  0.00    +0.258 C 
BRANCH  29  30
ATOM     30  C   UNL     1     -11.097 -14.153  22.178  0.00  0.00    +0.200 C 
BRANCH  30   5
ATOM      5  O   UNL     1     -10.187 -14.848  23.022  0.00  0.00    -0.380 OA
ATOM     31  C   UNL     1      -9.125 -15.426  22.276  0.00  0.00    +0.194 C 
ENDBRANCH  30   5
ENDBRANCH  29  30
ENDBRANCH   4  29
ENDBRANCH  27   4
ENDBRANCH  19  23
ENDBRANCH  10  15
BRANCH   6  14
ATOM     14  C   UNL     1      -3.537 -11.264  13.102  0.00  0.00    +0.124 C 
BRANCH  14  16
ATOM     16  C   UNL     1      -4.167 -10.341  12.093  0.00  0.00    +0.008 A 
ATOM     17  C   UNL     1      -5.420  -9.775  12.331  0.00  0.00    +0.125 A 
ATOM     18  C   UNL     1      -3.485 -10.055  10.911  0.00  0.00    +0.012 A 
ATOM     20  C   UNL     1      -5.989  -8.921  11.385  0.00  0.00    +0.091 A 
ATOM     21  C   UNL     1      -4.055  -9.202   9.966  0.00  0.00    +0.046 A 
ATOM     22  C   UNL     1      -5.307  -8.636  10.203  0.00  0.00    +0.124 A 
BRANCH  17   2
ATOM      2  O   UNL     1      -6.100 -10.044  13.480  0.00  0.00    -0.506 OA
ATOM     32  H   UNL     1      -6.766  -9.352  13.629  0.00  0.00    +0.292 HD
ENDBRANCH  17   2
BRANCH  22   3
ATOM      3  O   UNL     1      -5.862  -7.803   9.281  0.00  0.00    -0.495 OA
ATOM     28  C   UNL     1      -7.215  -8.057   8.907  0.00  0.00    +0.277 C 
ENDBRANCH  22   3
ENDBRANCH  14  16
ENDBRANCH   6  14
TORSDOF 10
ENDMDL
MODEL 10
REMARK VINA RESULT:      -6.4     31.256     33.334
REMARK  Name = 45783571
REMARK  12 active torsions:
REMARK  status: ('A' for Active; 'I' for Inactive)
REMARK    1  A    between atoms: O_2  and  C_17
REMARK    2  A    between atoms: O_3  and  C_22
REMARK    3  A    between atoms: O_3  and  C_28
REMARK    4  A    between atoms: O_4  and  C_27
REMARK    5  A    between atoms: O_4  and  C_29
REMARK    6  A    between atoms: O_5  and  C_30
REMARK    7  A    between atoms: O_5  and  C_31
REMARK    8  A    between atoms: N_6  and  C_14
REMARK    9  A    between atoms: C_10  and  C_15
REMARK   10  A    between atoms: C_14  and  C_16
REMARK   11  A    between atoms: C_19  and  C_23
REMARK   12  A    between atoms: C_29  and  C_30
REMARK                            x       y       z     vdW  Elec       q    Type
REMARK                         _______ _______ _______ _____ _____    ______ ____
ROOT
ATOM      6  N   UNL     1     -14.173   5.298  32.360  0.00  0.00    -0.287 NA
ATOM     10  C   UNL     1     -15.623   5.532  32.204  0.00  0.00    +0.146 C 
ATOM     11  C   UNL     1     -15.768   7.064  32.157  0.00  0.00    +0.030 C 
ATOM     12  C   UNL     1     -14.359   7.604  32.355  0.00  0.00    +0.017 C 
ATOM     13  C   UNL     1     -13.637   6.470  33.053  0.00  0.00    +0.085 C 
ENDROOT
BRANCH  10  15
ATOM      1  O   UNL     1     -17.116   3.879  31.200  0.00  0.00    -0.336 OA
ATOM      7  N   UNL     1     -15.930   5.062  29.714  0.00  0.00    -0.190 NA
ATOM      8  N   UNL     1     -17.492   3.404  29.937  0.00  0.00    -0.056 NA
ATOM     15  C   UNL     1     -16.194   4.852  30.978  0.00  0.00    +0.245 A 
ATOM     19  C   UNL     1     -16.750   4.151  29.113  0.00  0.00    +0.204 A 
BRANCH  19  23
ATOM      9  N   UNL     1     -16.119   2.817  25.700  0.00  0.00    -0.221 NA
ATOM     23  C   UNL     1     -16.805   4.012  27.686  0.00  0.00    +0.041 A 
ATOM     24  C   UNL     1     -17.556   4.887  26.909  0.00  0.00    +0.018 A 
ATOM     25  C   UNL     1     -16.111   3.003  27.039  0.00  0.00    +0.126 A 
ATOM     26  C   UNL     1     -17.590   4.727  25.528  0.00  0.00    +0.068 A 
ATOM     27  C   UNL     1     -16.860   3.686  24.977  0.00  0.00    +0.215 A 
BRANCH  27   4
ATOM      4  O   UNL     1     -16.878   3.508  23.619  0.00  0.00    -0.474 OA
BRANCH   4  29
ATOM     29  C   UNL     1     -16.508   4.627  22.822  0.00  0.00    +0.258 C 
BRANCH  29  30
ATOM     30  C   UNL     1     -14.995   4.745  22.807  0.00  0.00    +0.200 C 
BRANCH  30   5
ATOM      5  O   UNL     1     -14.630   6.065  23.191  0.00  0.00    -0.380 OA
ATOM     31  C   UNL     1     -15.730   6.958  23.092  0.00  0.00    +0.194 C 
ENDBRANCH  30   5
ENDBRANCH  29  30
ENDBRANCH   4  29
ENDBRANCH  27   4
ENDBRANCH  19  23
ENDBRANCH  10  15
BRANCH   6  14
ATOM     14  C   UNL     1     -13.863   4.057  33.059  0.00  0.00    +0.124 C 
BRANCH  14  16
ATOM     16  C   UNL     1     -14.033   2.854  32.170  0.00  0.00    +0.008 A 
ATOM     17  C   UNL     1     -14.713   1.724  32.624  0.00  0.00    +0.125 A 
ATOM     18  C   UNL     1     -13.503   2.879  30.881  0.00  0.00    +0.012 A 
ATOM     20  C   UNL     1     -14.863   0.617  31.787  0.00  0.00    +0.091 A 
ATOM     21  C   UNL     1     -13.652   1.772  30.045  0.00  0.00    +0.046 A 
ATOM     22  C   UNL     1     -14.331   0.642  30.498  0.00  0.00    +0.124 A 
BRANCH  17   2
ATOM      2  O   UNL     1     -15.238   1.683  33.881  0.00  0.00    -0.506 OA
ATOM     32  H   UNL     1     -15.982   1.058  33.898  0.00  0.00    +0.292 HD
ENDBRANCH  17   2
BRANCH  22   3
ATOM      3  O   UNL     1     -14.478  -0.437  29.681  0.00  0.00    -0.495 OA
ATOM     28  C   UNL     1     -13.287  -1.103  29.265  0.00  0.00    +0.277 C 
ENDBRANCH  22   3
ENDBRANCH  14  16
ENDBRANCH   6  14
TORSDOF 10
ENDMDL
