MODEL 1
REMARK VINA RESULT:      -7.1      0.000      0.000
REMARK  Name = 71694354
REMARK  7 active torsions:
REMARK  status: ('A' for Active; 'I' for Inactive)
REMARK    1  A    between atoms: O_4  and  C_34
REMARK    2  A    between atoms: O_4  and  C_35
REMARK    3  A    between atoms: N_6  and  C_26
REMARK    4  A    between atoms: N_8  and  C_27
REMARK    5  A    between atoms: C_10  and  C_15
REMARK    6  A    between atoms: C_15  and  C_18
REMARK    7  A    between atoms: C_26  and  C_34
REMARK                            x       y       z     vdW  Elec       q    Type
REMARK                         _______ _______ _______ _____ _____    ______ ____
ROOT
ATOM      1  O   UNL     1      12.280   6.655  18.977  0.00  0.00    -0.274 OA
ATOM      3  O   UNL     1      13.784  11.737  19.240  0.00  0.00    -0.488 OA
ATOM      5  N   UNL     1      12.666   7.872  20.909  0.00  0.00    -0.300 N 
ATOM      7  N   UNL     1      14.581   9.005  18.639  0.00  0.00    -0.304 NA
ATOM     10  C   UNL     1      11.203  10.061  22.156  0.00  0.00    +0.008 C 
ATOM     11  C   UNL     1      12.643  10.211  21.581  0.00  0.00    +0.032 C 
ATOM     12  C   UNL     1      10.491   8.889  21.443  0.00  0.00    +0.023 C 
ATOM     13  C   UNL     1      13.409   8.878  21.674  0.00  0.00    +0.115 C 
ATOM     14  C   UNL     1      11.326   7.605  21.439  0.00  0.00    +0.108 C 
ATOM     16  C   UNL     1      13.434  11.340  22.186  0.00  0.00    -0.023 C 
ATOM     17  C   UNL     1      13.031   7.358  19.664  0.00  0.00    +0.229 C 
ATOM     19  C   UNL     1      13.975  12.410  21.577  0.00  0.00    +0.010 C 
ATOM     20  C   UNL     1      14.426   7.642  19.140  0.00  0.00    +0.178 C 
ATOM     21  C   UNL     1      14.029  12.821  20.128  0.00  0.00    +0.256 C 
ATOM     22  C   UNL     1      13.595   9.413  17.640  0.00  0.00    +0.120 C 
ATOM     23  C   UNL     1      13.899  10.790  17.076  0.00  0.00    +0.010 A 
ATOM     27  C   UNL     1      14.344  12.175  15.126  0.00  0.00    +0.030 A 
ATOM     28  C   UNL     1      13.975  11.939  17.896  0.00  0.00    +0.125 A 
ATOM     31  C   UNL     1      14.086  10.927  15.691  0.00  0.00    +0.031 A 
ATOM     32  C   UNL     1      14.414  13.302  15.938  0.00  0.00    +0.027 A 
ATOM     33  C   UNL     1      14.229  13.188  17.317  0.00  0.00    +0.048 A 
ATOM     37  H   UNL     1      15.518   9.101  18.249  0.00  0.00    +0.123 HD
ENDROOT
BRANCH  27   8
ATOM      8  N   UNL     1      14.529  12.295  13.744  0.00  0.00    -0.327 N 
ATOM      9  N   UNL     1      14.867  12.291  10.910  0.00  0.00    -0.313 NA
ATOM     24  C   UNL     1      13.367  12.466  12.867  0.00  0.00    +0.120 C 
ATOM     25  C   UNL     1      15.689  11.624  13.143  0.00  0.00    +0.120 C 
ATOM     29  C   UNL     1      13.791  13.066  11.526  0.00  0.00    +0.100 C 
ATOM     30  C   UNL     1      16.031  12.255  11.793  0.00  0.00    +0.100 C 
ATOM     38  H   UNL     1      15.129  12.724  10.025  0.00  0.00    +0.122 HD
ENDBRANCH  27   8
BRANCH  10  15
ATOM     15  C   UNL     1      11.138   9.885  23.679  0.00  0.00    +0.100 C 
BRANCH  15  18
ATOM      2  O   UNL     1      11.688  11.458  25.434  0.00  0.00    -0.276 OA
ATOM      6  N   UNL     1      10.218  12.090  23.748  0.00  0.00    -0.313 N 
ATOM     18  C   UNL     1      11.068  11.211  24.402  0.00  0.00    +0.213 C 
ATOM     36  H   UNL     1       9.742  11.785  22.903  0.00  0.00    +0.149 HD
BRANCH   6  26
ATOM     26  C   UNL     1       9.958  13.432  24.217  0.00  0.00    +0.132 C 
BRANCH  26  34
ATOM     34  C   UNL     1      10.234  14.463  23.139  0.00  0.00    +0.178 C 
BRANCH  34   4
ATOM      4  O   UNL     1      10.335  13.813  21.877  0.00  0.00    -0.381 OA
ATOM     35  C   UNL     1      10.831  14.691  20.876  0.00  0.00    +0.194 C 
ENDBRANCH  34   4
ENDBRANCH  26  34
ENDBRANCH   6  26
ENDBRANCH  15  18
ENDBRANCH  10  15
TORSDOF 6
ENDMDL
MODEL 2
REMARK VINA RESULT:      -6.3     10.878     15.359
REMARK  Name = 71694354
REMARK  7 active torsions:
REMARK  status: ('A' for Active; 'I' for Inactive)
REMARK    1  A    between atoms: O_4  and  C_34
REMARK    2  A    between atoms: O_4  and  C_35
REMARK    3  A    between atoms: N_6  and  C_26
REMARK    4  A    between atoms: N_8  and  C_27
REMARK    5  A    between atoms: C_10  and  C_15
REMARK    6  A    between atoms: C_15  and  C_18
REMARK    7  A    between atoms: C_26  and  C_34
REMARK                            x       y       z     vdW  Elec       q    Type
REMARK                         _______ _______ _______ _____ _____    ______ ____
ROOT
ATOM      1  O   UNL     1       7.956   6.097   5.231  0.00  0.00    -0.274 OA
ATOM      3  O   UNL     1      13.075   7.065   4.227  0.00  0.00    -0.488 OA
ATOM      5  N   UNL     1       9.488   7.024   6.698  0.00  0.00    -0.300 N 
ATOM      7  N   UNL     1      11.054   5.043   4.767  0.00  0.00    -0.304 NA
ATOM     10  C   UNL     1      10.816   9.617   6.748  0.00  0.00    +0.008 C 
ATOM     11  C   UNL     1      11.574   8.270   6.551  0.00  0.00    +0.032 C 
ATOM     12  C   UNL     1       9.349   9.445   6.291  0.00  0.00    +0.023 C 
ATOM     13  C   UNL     1      10.838   7.120   7.264  0.00  0.00    +0.115 C 
ATOM     14  C   UNL     1       8.674   8.221   6.917  0.00  0.00    +0.108 C 
ATOM     16  C   UNL     1      13.026   8.318   6.944  0.00  0.00    -0.023 C 
ATOM     17  C   UNL     1       9.038   6.032   5.826  0.00  0.00    +0.229 C 
ATOM     19  C   UNL     1      14.112   8.082   6.187  0.00  0.00    +0.010 C 
ATOM     20  C   UNL     1       9.896   4.798   5.622  0.00  0.00    +0.178 C 
ATOM     21  C   UNL     1      14.261   7.653   4.750  0.00  0.00    +0.256 C 
ATOM     22  C   UNL     1      10.751   5.644   3.469  0.00  0.00    +0.120 C 
ATOM     23  C   UNL     1      11.986   5.748   2.592  0.00  0.00    +0.010 A 
ATOM     27  C   UNL     1      13.080   5.209   0.487  0.00  0.00    +0.030 A 
ATOM     28  C   UNL     1      13.132   6.476   2.988  0.00  0.00    +0.125 A 
ATOM     31  C   UNL     1      11.978   5.121   1.336  0.00  0.00    +0.031 A 
ATOM     32  C   UNL     1      14.203   5.930   0.882  0.00  0.00    +0.027 A 
ATOM     33  C   UNL     1      14.230   6.563   2.125  0.00  0.00    +0.048 A 
ATOM     37  H   UNL     1      11.544   4.160   4.625  0.00  0.00    +0.123 HD
ENDROOT
BRANCH  27   8
ATOM      8  N   UNL     1      13.057   4.577  -0.761  0.00  0.00    -0.327 N 
ATOM      9  N   UNL     1      13.239   3.198  -3.254  0.00  0.00    -0.313 NA
ATOM     24  C   UNL     1      12.621   3.180  -0.861  0.00  0.00    +0.120 C 
ATOM     25  C   UNL     1      14.023   5.017  -1.776  0.00  0.00    +0.120 C 
ATOM     29  C   UNL     1      12.194   2.853  -2.292  0.00  0.00    +0.100 C 
ATOM     30  C   UNL     1      13.545   4.626  -3.174  0.00  0.00    +0.100 C 
ATOM     38  H   UNL     1      12.917   2.976  -4.195  0.00  0.00    +0.122 HD
ENDBRANCH  27   8
BRANCH  10  15
ATOM     15  C   UNL     1      10.873  10.181   8.173  0.00  0.00    +0.100 C 
BRANCH  15  18
ATOM      2  O   UNL     1      11.812  12.252   7.347  0.00  0.00    -0.276 OA
ATOM      6  N   UNL     1      12.364  11.515   9.481  0.00  0.00    -0.313 N 
ATOM     18  C   UNL     1      11.719  11.431   8.256  0.00  0.00    +0.213 C 
ATOM     36  H   UNL     1      12.229  10.776  10.165  0.00  0.00    +0.149 HD
BRANCH   6  26
ATOM     26  C   UNL     1      13.241  12.606   9.838  0.00  0.00    +0.132 C 
BRANCH  26  34
ATOM     34  C   UNL     1      13.411  12.718  11.341  0.00  0.00    +0.178 C 
BRANCH  34   4
ATOM      4  O   UNL     1      12.483  11.855  11.987  0.00  0.00    -0.381 OA
ATOM     35  C   UNL     1      11.658  12.565  12.900  0.00  0.00    +0.194 C 
ENDBRANCH  34   4
ENDBRANCH  26  34
ENDBRANCH   6  26
ENDBRANCH  15  18
ENDBRANCH  10  15
TORSDOF 6
ENDMDL
MODEL 3
REMARK VINA RESULT:      -6.1     25.705     28.998
REMARK  Name = 71694354
REMARK  7 active torsions:
REMARK  status: ('A' for Active; 'I' for Inactive)
REMARK    1  A    between atoms: O_4  and  C_34
REMARK    2  A    between atoms: O_4  and  C_35
REMARK    3  A    between atoms: N_6  and  C_26
REMARK    4  A    between atoms: N_8  and  C_27
REMARK    5  A    between atoms: C_10  and  C_15
REMARK    6  A    between atoms: C_15  and  C_18
REMARK    7  A    between atoms: C_26  and  C_34
REMARK                            x       y       z     vdW  Elec       q    Type
REMARK                         _______ _______ _______ _____ _____    ______ ____
ROOT
ATOM      1  O   UNL     1      21.771  -7.421   3.599  0.00  0.00    -0.274 OA
ATOM      3  O   UNL     1      18.897  -9.520  -0.336  0.00  0.00    -0.488 OA
ATOM      5  N   UNL     1      21.768  -6.734   1.388  0.00  0.00    -0.300 N 
ATOM      7  N   UNL     1      21.172  -9.856   1.446  0.00  0.00    -0.304 NA
ATOM     10  C   UNL     1      19.760  -5.371  -0.225  0.00  0.00    +0.008 C 
ATOM     11  C   UNL     1      20.244  -6.825  -0.508  0.00  0.00    +0.032 C 
ATOM     12  C   UNL     1      19.986  -5.043   1.269  0.00  0.00    +0.023 C 
ATOM     13  C   UNL     1      21.703  -7.013  -0.050  0.00  0.00    +0.115 C 
ATOM     14  C   UNL     1      21.411  -5.356   1.734  0.00  0.00    +0.108 C 
ATOM     16  C   UNL     1      20.056  -7.271  -1.933  0.00  0.00    -0.023 C 
ATOM     17  C   UNL     1      21.910  -7.685   2.399  0.00  0.00    +0.229 C 
ATOM     19  C   UNL     1      19.338  -8.305  -2.404  0.00  0.00    +0.010 C 
ATOM     20  C   UNL     1      22.287  -9.104   2.016  0.00  0.00    +0.178 C 
ATOM     21  C   UNL     1      18.540  -9.376  -1.705  0.00  0.00    +0.256 C 
ATOM     22  C   UNL     1      19.959  -9.879   2.261  0.00  0.00    +0.120 C 
ATOM     23  C   UNL     1      18.895 -10.784   1.664  0.00  0.00    +0.010 A 
ATOM     27  C   UNL     1      17.406 -12.687   1.939  0.00  0.00    +0.030 A 
ATOM     28  C   UNL     1      18.371 -10.575   0.367  0.00  0.00    +0.125 A 
ATOM     31  C   UNL     1      18.400 -11.846   2.437  0.00  0.00    +0.031 A 
ATOM     32  C   UNL     1      16.892 -12.475   0.664  0.00  0.00    +0.027 A 
ATOM     33  C   UNL     1      17.369 -11.423  -0.119  0.00  0.00    +0.048 A 
ATOM     37  H   UNL     1      21.483 -10.812   1.274  0.00  0.00    +0.123 HD
ENDROOT
BRANCH  27   8
ATOM      8  N   UNL     1      16.924 -13.743   2.722  0.00  0.00    -0.327 N 
ATOM      9  N   UNL     1      15.720 -15.867   4.201  0.00  0.00    -0.313 NA
ATOM     24  C   UNL     1      16.945 -15.110   2.192  0.00  0.00    +0.120 C 
ATOM     25  C   UNL     1      15.862 -13.452   3.694  0.00  0.00    +0.120 C 
ATOM     29  C   UNL     1      16.865 -16.127   3.330  0.00  0.00    +0.100 C 
ATOM     30  C   UNL     1      15.822 -14.528   4.779  0.00  0.00    +0.100 C 
ATOM     38  H   UNL     1      15.704 -16.557   4.951  0.00  0.00    +0.122 HD
ENDBRANCH  27   8
BRANCH  10  15
ATOM     15  C   UNL     1      20.402  -4.300  -1.115  0.00  0.00    +0.100 C 
BRANCH  15  18
ATOM      2  O   UNL     1      19.599  -2.313  -2.239  0.00  0.00    -0.276 OA
ATOM      6  N   UNL     1      18.144  -4.088  -1.870  0.00  0.00    -0.313 N 
ATOM     18  C   UNL     1      19.368  -3.439  -1.804  0.00  0.00    +0.213 C 
ATOM     36  H   UNL     1      18.053  -5.017  -1.469  0.00  0.00    +0.149 HD
BRANCH   6  26
ATOM     26  C   UNL     1      16.971  -3.500  -2.474  0.00  0.00    +0.132 C 
BRANCH  26  34
ATOM     34  C   UNL     1      16.174  -4.525  -3.260  0.00  0.00    +0.178 C 
BRANCH  34   4
ATOM      4  O   UNL     1      16.817  -5.791  -3.172  0.00  0.00    -0.381 OA
ATOM     35  C   UNL     1      15.973  -6.838  -3.632  0.00  0.00    +0.194 C 
ENDBRANCH  34   4
ENDBRANCH  26  34
ENDBRANCH   6  26
ENDBRANCH  15  18
ENDBRANCH  10  15
TORSDOF 6
ENDMDL
MODEL 4
REMARK VINA RESULT:      -6.1     10.172     16.180
REMARK  Name = 71694354
REMARK  7 active torsions:
REMARK  status: ('A' for Active; 'I' for Inactive)
REMARK    1  A    between atoms: O_4  and  C_34
REMARK    2  A    between atoms: O_4  and  C_35
REMARK    3  A    between atoms: N_6  and  C_26
REMARK    4  A    between atoms: N_8  and  C_27
REMARK    5  A    between atoms: C_10  and  C_15
REMARK    6  A    between atoms: C_15  and  C_18
REMARK    7  A    between atoms: C_26  and  C_34
REMARK                            x       y       z     vdW  Elec       q    Type
REMARK                         _______ _______ _______ _____ _____    ______ ____
ROOT
ATOM      1  O   UNL     1      11.126   5.747   7.662  0.00  0.00    -0.274 OA
ATOM      3  O   UNL     1       8.728  10.149   5.924  0.00  0.00    -0.488 OA
ATOM      5  N   UNL     1       9.823   5.936   5.757  0.00  0.00    -0.300 N 
ATOM      7  N   UNL     1       8.734   8.015   7.901  0.00  0.00    -0.304 NA
ATOM     10  C   UNL     1      10.276   7.282   3.213  0.00  0.00    +0.008 C 
ATOM     11  C   UNL     1       9.159   7.699   4.215  0.00  0.00    +0.032 C 
ATOM     12  C   UNL     1      11.407   6.562   3.984  0.00  0.00    +0.023 C 
ATOM     13  C   UNL     1       8.674   6.484   5.029  0.00  0.00    +0.115 C 
ATOM     14  C   UNL     1      10.887   5.438   4.883  0.00  0.00    +0.108 C 
ATOM     16  C   UNL     1       8.006   8.430   3.583  0.00  0.00    -0.023 C 
ATOM     17  C   UNL     1      10.056   6.061   7.127  0.00  0.00    +0.229 C 
ATOM     19  C   UNL     1       7.548   9.667   3.844  0.00  0.00    +0.010 C 
ATOM     20  C   UNL     1       8.935   6.573   8.012  0.00  0.00    +0.178 C 
ATOM     21  C   UNL     1       7.970  10.703   4.854  0.00  0.00    +0.256 C 
ATOM     22  C   UNL     1       9.930   8.826   8.115  0.00  0.00    +0.120 C 
ATOM     23  C   UNL     1       9.614  10.312   8.111  0.00  0.00    +0.010 A 
ATOM     27  C   UNL     1       9.693  12.448   9.273  0.00  0.00    +0.030 A 
ATOM     28  C   UNL     1       9.024  10.953   6.997  0.00  0.00    +0.125 A 
ATOM     31  C   UNL     1       9.943  11.077   9.241  0.00  0.00    +0.031 A 
ATOM     32  C   UNL     1       9.115  13.072   8.172  0.00  0.00    +0.027 A 
ATOM     33  C   UNL     1       8.783  12.331   7.038  0.00  0.00    +0.048 A 
ATOM     37  H   UNL     1       8.013   8.293   8.567  0.00  0.00    +0.123 HD
ENDROOT
BRANCH  27   8
ATOM      8  N   UNL     1      10.024  13.195  10.408  0.00  0.00    -0.327 N 
ATOM      9  N   UNL     1      10.579  14.548  12.860  0.00  0.00    -0.313 NA
ATOM     24  C   UNL     1      11.222  12.851  11.182  0.00  0.00    +0.120 C 
ATOM     25  C   UNL     1       8.932  13.819  11.168  0.00  0.00    +0.120 C 
ATOM     29  C   UNL     1      11.671  14.040  12.031  0.00  0.00    +0.100 C 
ATOM     30  C   UNL     1       9.464  14.974  12.016  0.00  0.00    +0.100 C 
ATOM     38  H   UNL     1      10.911  15.343  13.404  0.00  0.00    +0.122 HD
ENDBRANCH  27   8
BRANCH  10  15
ATOM     15  C   UNL     1       9.793   6.420   2.039  0.00  0.00    +0.100 C 
BRANCH  15  18
ATOM      2  O   UNL     1      11.511   7.121   0.486  0.00  0.00    -0.276 OA
ATOM      6  N   UNL     1      11.044   4.857   0.734  0.00  0.00    -0.313 N 
ATOM     18  C   UNL     1      10.876   6.206   1.006  0.00  0.00    +0.213 C 
ATOM     36  H   UNL     1      10.459   4.178   1.212  0.00  0.00    +0.149 HD
BRANCH   6  26
ATOM     26  C   UNL     1      12.012   4.359  -0.216  0.00  0.00    +0.132 C 
BRANCH  26  34
ATOM     34  C   UNL     1      12.812   3.203   0.355  0.00  0.00    +0.178 C 
BRANCH  34   4
ATOM      4  O   UNL     1      13.274   3.546   1.656  0.00  0.00    -0.381 OA
ATOM     35  C   UNL     1      14.693   3.578   1.714  0.00  0.00    +0.194 C 
ENDBRANCH  34   4
ENDBRANCH  26  34
ENDBRANCH   6  26
ENDBRANCH  15  18
ENDBRANCH  10  15
TORSDOF 6
ENDMDL
MODEL 5
REMARK VINA RESULT:      -6.0     28.949     32.408
REMARK  Name = 71694354
REMARK  7 active torsions:
REMARK  status: ('A' for Active; 'I' for Inactive)
REMARK    1  A    between atoms: O_4  and  C_34
REMARK    2  A    between atoms: O_4  and  C_35
REMARK    3  A    between atoms: N_6  and  C_26
REMARK    4  A    between atoms: N_8  and  C_27
REMARK    5  A    between atoms: C_10  and  C_15
REMARK    6  A    between atoms: C_15  and  C_18
REMARK    7  A    between atoms: C_26  and  C_34
REMARK                            x       y       z     vdW  Elec       q    Type
REMARK                         _______ _______ _______ _____ _____    ______ ____
ROOT
ATOM      1  O   UNL     1      -3.744 -16.553   8.104  0.00  0.00    -0.274 OA
ATOM      3  O   UNL     1      -4.573 -11.323   8.442  0.00  0.00    -0.488 OA
ATOM      5  N   UNL     1      -4.714 -15.213   6.485  0.00  0.00    -0.300 N 
ATOM      7  N   UNL     1      -5.400 -13.968   9.329  0.00  0.00    -0.304 NA
ATOM     10  C   UNL     1      -3.610 -13.155   4.742  0.00  0.00    +0.008 C 
ATOM     11  C   UNL     1      -4.668 -12.863   5.848  0.00  0.00    +0.032 C 
ATOM     12  C   UNL     1      -2.826 -14.435   5.114  0.00  0.00    +0.023 C 
ATOM     13  C   UNL     1      -5.568 -14.092   6.079  0.00  0.00    +0.115 C 
ATOM     14  C   UNL     1      -3.744 -15.610   5.462  0.00  0.00    +0.108 C 
ATOM     16  C   UNL     1      -5.485 -11.623   5.607  0.00  0.00    -0.023 C 
ATOM     17  C   UNL     1      -4.612 -15.736   7.774  0.00  0.00    +0.229 C 
ATOM     19  C   UNL     1      -5.598 -10.526   6.377  0.00  0.00    +0.010 C 
ATOM     20  C   UNL     1      -5.632 -15.315   8.814  0.00  0.00    +0.178 C 
ATOM     21  C   UNL     1      -5.015 -10.178   7.722  0.00  0.00    +0.256 C 
ATOM     22  C   UNL     1      -4.054 -13.725   9.843  0.00  0.00    +0.120 C 
ATOM     23  C   UNL     1      -3.930 -12.348  10.474  0.00  0.00    +0.010 A 
ATOM     27  C   UNL     1      -3.378 -11.012  12.430  0.00  0.00    +0.030 A 
ATOM     28  C   UNL     1      -4.183 -11.162   9.748  0.00  0.00    +0.125 A 
ATOM     31  C   UNL     1      -3.528 -12.254  11.816  0.00  0.00    +0.031 A 
ATOM     32  C   UNL     1      -3.625  -9.848  11.709  0.00  0.00    +0.027 A 
ATOM     33  C   UNL     1      -4.024  -9.920  10.374  0.00  0.00    +0.048 A 
ATOM     37  H   UNL     1      -6.082 -13.780  10.063  0.00  0.00    +0.123 HD
ENDROOT
BRANCH  27   8
ATOM      8  N   UNL     1      -2.978 -10.935  13.769  0.00  0.00    -0.327 N 
ATOM      9  N   UNL     1      -2.122 -11.025  16.490  0.00  0.00    -0.313 NA
ATOM     24  C   UNL     1      -1.555 -10.797  14.095  0.00  0.00    +0.120 C 
ATOM     25  C   UNL     1      -3.800 -11.618  14.776  0.00  0.00    +0.120 C 
ATOM     29  C   UNL     1      -1.381 -10.237  15.508  0.00  0.00    +0.100 C 
ATOM     30  C   UNL     1      -3.547 -11.028  16.162  0.00  0.00    +0.100 C 
ATOM     38  H   UNL     1      -1.991 -10.619  17.416  0.00  0.00    +0.122 HD
ENDBRANCH  27   8
BRANCH  10  15
ATOM     15  C   UNL     1      -4.183 -13.267   3.324  0.00  0.00    +0.100 C 
BRANCH  15  18
ATOM      2  O   UNL     1      -2.104 -12.321   2.526  0.00  0.00    -0.276 OA
ATOM      6  N   UNL     1      -3.635 -13.174   0.999  0.00  0.00    -0.313 N 
ATOM     18  C   UNL     1      -3.178 -12.860   2.270  0.00  0.00    +0.213 C 
ATOM     36  H   UNL     1      -4.545 -13.611   0.893  0.00  0.00    +0.149 HD
BRANCH   6  26
ATOM     26  C   UNL     1      -2.880 -12.896  -0.201  0.00  0.00    +0.132 C 
BRANCH  26  34
ATOM     34  C   UNL     1      -1.864 -13.986  -0.486  0.00  0.00    +0.178 C 
BRANCH  34   4
ATOM      4  O   UNL     1      -0.554 -13.432  -0.450  0.00  0.00    -0.381 OA
ATOM     35  C   UNL     1       0.291 -14.149   0.440  0.00  0.00    +0.194 C 
ENDBRANCH  34   4
ENDBRANCH  26  34
ENDBRANCH   6  26
ENDBRANCH  15  18
ENDBRANCH  10  15
TORSDOF 6
ENDMDL
MODEL 6
REMARK VINA RESULT:      -6.0     28.307     31.677
REMARK  Name = 71694354
REMARK  7 active torsions:
REMARK  status: ('A' for Active; 'I' for Inactive)
REMARK    1  A    between atoms: O_4  and  C_34
REMARK    2  A    between atoms: O_4  and  C_35
REMARK    3  A    between atoms: N_6  and  C_26
REMARK    4  A    between atoms: N_8  and  C_27
REMARK    5  A    between atoms: C_10  and  C_15
REMARK    6  A    between atoms: C_15  and  C_18
REMARK    7  A    between atoms: C_26  and  C_34
REMARK                            x       y       z     vdW  Elec       q    Type
REMARK                         _______ _______ _______ _____ _____    ______ ____
ROOT
ATOM      1  O   UNL     1      -9.505 -11.403  10.079  0.00  0.00    -0.274 OA
ATOM      3  O   UNL     1      -4.690 -10.331  12.033  0.00  0.00    -0.488 OA
ATOM      5  N   UNL     1      -7.712 -10.533   8.901  0.00  0.00    -0.300 N 
ATOM      7  N   UNL     1      -7.486  -9.535  11.911  0.00  0.00    -0.304 NA
ATOM     10  C   UNL     1      -5.183 -11.708   8.054  0.00  0.00    +0.008 C 
ATOM     11  C   UNL     1      -5.284 -10.541   9.081  0.00  0.00    +0.032 C 
ATOM     12  C   UNL     1      -6.507 -12.506   8.061  0.00  0.00    +0.023 C 
ATOM     13  C   UNL     1      -6.527  -9.674   8.803  0.00  0.00    +0.115 C 
ATOM     14  C   UNL     1      -7.739 -11.609   7.908  0.00  0.00    +0.108 C 
ATOM     16  C   UNL     1      -4.041  -9.699   9.181  0.00  0.00    -0.023 C 
ATOM     17  C   UNL     1      -8.632 -10.537   9.950  0.00  0.00    +0.229 C 
ATOM     19  C   UNL     1      -3.262  -9.470  10.253  0.00  0.00    +0.010 C 
ATOM     20  C   UNL     1      -8.588  -9.407  10.962  0.00  0.00    +0.178 C 
ATOM     21  C   UNL     1      -3.375  -9.911  11.690  0.00  0.00    +0.256 C 
ATOM     22  C   UNL     1      -7.416 -10.816  12.610  0.00  0.00    +0.120 C 
ATOM     23  C   UNL     1      -6.326 -10.824  13.669  0.00  0.00    +0.010 A 
ATOM     27  C   UNL     1      -5.709 -11.136  16.001  0.00  0.00    +0.030 A 
ATOM     28  C   UNL     1      -4.968 -10.591  13.352  0.00  0.00    +0.125 A 
ATOM     31  C   UNL     1      -6.679 -11.096  15.000  0.00  0.00    +0.031 A 
ATOM     32  C   UNL     1      -4.374 -10.909  15.682  0.00  0.00    +0.027 A 
ATOM     33  C   UNL     1      -4.002 -10.640  14.365  0.00  0.00    +0.048 A 
ATOM     37  H   UNL     1      -7.558  -8.780  12.593  0.00  0.00    +0.123 HD
ENDROOT
BRANCH  27   8
ATOM      8  N   UNL     1      -6.077 -11.408  17.323  0.00  0.00    -0.327 N 
ATOM      9  N   UNL     1      -6.912 -11.725  20.035  0.00  0.00    -0.313 NA
ATOM     24  C   UNL     1      -7.446 -11.839  17.624  0.00  0.00    +0.120 C 
ATOM     25  C   UNL     1      -5.390 -10.675  18.395  0.00  0.00    +0.120 C 
ATOM     29  C   UNL     1      -7.500 -12.547  18.978  0.00  0.00    +0.100 C 
ATOM     30  C   UNL     1      -5.516 -11.425  19.721  0.00  0.00    +0.100 C 
ATOM     38  H   UNL     1      -6.957 -12.230  20.919  0.00  0.00    +0.122 HD
ENDBRANCH  27   8
BRANCH  10  15
ATOM     15  C   UNL     1      -4.824 -11.274   6.627  0.00  0.00    +0.100 C 
BRANCH  15  18
ATOM      2  O   UNL     1      -3.324 -13.138   6.267  0.00  0.00    -0.276 OA
ATOM      6  N   UNL     1      -4.754 -12.472   4.560  0.00  0.00    -0.313 N 
ATOM     18  C   UNL     1      -4.202 -12.399   5.831  0.00  0.00    +0.213 C 
ATOM     36  H   UNL     1      -5.471 -11.805   4.291  0.00  0.00    +0.149 HD
BRANCH   6  26
ATOM     26  C   UNL     1      -4.348 -13.453   3.580  0.00  0.00    +0.132 C 
BRANCH  26  34
ATOM     34  C   UNL     1      -3.680 -12.803   2.383  0.00  0.00    +0.178 C 
BRANCH  34   4
ATOM      4  O   UNL     1      -2.329 -12.496   2.705  0.00  0.00    -0.381 OA
ATOM     35  C   UNL     1      -1.579 -13.670   2.986  0.00  0.00    +0.194 C 
ENDBRANCH  34   4
ENDBRANCH  26  34
ENDBRANCH   6  26
ENDBRANCH  15  18
ENDBRANCH  10  15
TORSDOF 6
ENDMDL
MODEL 7
REMARK VINA RESULT:      -5.8     27.888     30.355
REMARK  Name = 71694354
REMARK  7 active torsions:
REMARK  status: ('A' for Active; 'I' for Inactive)
REMARK    1  A    between atoms: O_4  and  C_34
REMARK    2  A    between atoms: O_4  and  C_35
REMARK    3  A    between atoms: N_6  and  C_26
REMARK    4  A    between atoms: N_8  and  C_27
REMARK    5  A    between atoms: C_10  and  C_15
REMARK    6  A    between atoms: C_15  and  C_18
REMARK    7  A    between atoms: C_26  and  C_34
REMARK                            x       y       z     vdW  Elec       q    Type
REMARK                         _______ _______ _______ _____ _____    ______ ____
ROOT
ATOM      1  O   UNL     1      -5.263 -15.600  12.002  0.00  0.00    -0.274 OA
ATOM      3  O   UNL     1      -3.903 -10.830  10.117  0.00  0.00    -0.488 OA
ATOM      5  N   UNL     1      -3.690 -14.166  12.911  0.00  0.00    -0.300 N 
ATOM      7  N   UNL     1      -3.727 -13.713   9.765  0.00  0.00    -0.304 NA
ATOM     10  C   UNL     1      -3.948 -11.608  14.284  0.00  0.00    +0.008 C 
ATOM     11  C   UNL     1      -3.240 -11.773  12.907  0.00  0.00    +0.032 C 
ATOM     12  C   UNL     1      -4.966 -12.757  14.472  0.00  0.00    +0.023 C 
ATOM     13  C   UNL     1      -2.616 -13.176  12.778  0.00  0.00    +0.115 C 
ATOM     14  C   UNL     1      -4.354 -14.137  14.217  0.00  0.00    +0.108 C 
ATOM     16  C   UNL     1      -2.235 -10.696  12.598  0.00  0.00    -0.023 C 
ATOM     17  C   UNL     1      -4.238 -14.920  11.874  0.00  0.00    +0.229 C 
ATOM     19  C   UNL     1      -2.215  -9.832  11.569  0.00  0.00    +0.010 C 
ATOM     20  C   UNL     1      -3.528 -14.939  10.533  0.00  0.00    +0.178 C 
ATOM     21  C   UNL     1      -3.123  -9.669  10.376  0.00  0.00    +0.256 C 
ATOM     22  C   UNL     1      -5.121 -13.323   9.570  0.00  0.00    +0.120 C 
ATOM     23  C   UNL     1      -5.248 -12.115   8.657  0.00  0.00    +0.010 A 
ATOM     27  C   UNL     1      -6.180 -11.141   6.632  0.00  0.00    +0.030 A 
ATOM     28  C   UNL     1      -4.640 -10.875   8.960  0.00  0.00    +0.125 A 
ATOM     31  C   UNL     1      -6.017 -12.230   7.487  0.00  0.00    +0.031 A 
ATOM     32  C   UNL     1      -5.582  -9.924   6.937  0.00  0.00    +0.027 A 
ATOM     33  C   UNL     1      -4.816  -9.788   8.096  0.00  0.00    +0.048 A 
ATOM     37  H   UNL     1      -3.276 -13.824   8.857  0.00  0.00    +0.123 HD
ENDROOT
BRANCH  27   8
ATOM      8  N   UNL     1      -6.948 -11.272   5.469  0.00  0.00    -0.327 N 
ATOM      9  N   UNL     1      -8.548 -11.780   3.160  0.00  0.00    -0.313 NA
ATOM     24  C   UNL     1      -8.405 -11.121   5.539  0.00  0.00    +0.120 C 
ATOM     25  C   UNL     1      -6.448 -12.157   4.408  0.00  0.00    +0.120 C 
ATOM     29  C   UNL     1      -8.977 -10.801   4.157  0.00  0.00    +0.100 C 
ATOM     30  C   UNL     1      -7.089 -11.798   3.068  0.00  0.00    +0.100 C 
ATOM     38  H   UNL     1      -8.939 -11.531   2.253  0.00  0.00    +0.122 HD
ENDBRANCH  27   8
BRANCH  10  15
ATOM     15  C   UNL     1      -2.999 -11.529  15.486  0.00  0.00    +0.100 C 
BRANCH  15  18
ATOM      2  O   UNL     1      -4.179  -9.903  16.834  0.00  0.00    -0.276 OA
ATOM      6  N   UNL     1      -3.710 -12.000  17.719  0.00  0.00    -0.313 N 
ATOM     18  C   UNL     1      -3.696 -11.028  16.730  0.00  0.00    +0.213 C 
ATOM     36  H   UNL     1      -3.272 -12.899  17.537  0.00  0.00    +0.149 HD
BRANCH   6  26
ATOM     26  C   UNL     1      -4.310 -11.797  19.017  0.00  0.00    +0.132 C 
BRANCH  26  34
ATOM     34  C   UNL     1      -5.817 -11.966  18.968  0.00  0.00    +0.178 C 
BRANCH  34   4
ATOM      4  O   UNL     1      -6.442 -10.722  19.261  0.00  0.00    -0.381 OA
ATOM     35  C   UNL     1      -7.366 -10.351  18.248  0.00  0.00    +0.194 C 
ENDBRANCH  34   4
ENDBRANCH  26  34
ENDBRANCH   6  26
ENDBRANCH  15  18
ENDBRANCH  10  15
TORSDOF 6
ENDMDL
MODEL 8
REMARK VINA RESULT:      -5.7     27.409     31.056
REMARK  Name = 71694354
REMARK  7 active torsions:
REMARK  status: ('A' for Active; 'I' for Inactive)
REMARK    1  A    between atoms: O_4  and  C_34
REMARK    2  A    between atoms: O_4  and  C_35
REMARK    3  A    between atoms: N_6  and  C_26
REMARK    4  A    between atoms: N_8  and  C_27
REMARK    5  A    between atoms: C_10  and  C_15
REMARK    6  A    between atoms: C_15  and  C_18
REMARK    7  A    between atoms: C_26  and  C_34
REMARK                            x       y       z     vdW  Elec       q    Type
REMARK                         _______ _______ _______ _____ _____    ______ ____
ROOT
ATOM      1  O   UNL     1      -6.925 -11.000  19.986  0.00  0.00    -0.274 OA
ATOM      3  O   UNL     1      -8.420 -10.699  14.903  0.00  0.00    -0.488 OA
ATOM      5  N   UNL     1      -5.808 -11.910  18.173  0.00  0.00    -0.300 N 
ATOM      7  N   UNL     1      -8.917 -11.900  17.506  0.00  0.00    -0.304 NA
ATOM     10  C   UNL     1      -4.321 -10.686  15.986  0.00  0.00    +0.008 C 
ATOM     11  C   UNL     1      -5.642 -11.487  15.782  0.00  0.00    +0.032 C 
ATOM     12  C   UNL     1      -4.283 -10.130  17.428  0.00  0.00    +0.023 C 
ATOM     13  C   UNL     1      -5.796 -12.572  16.865  0.00  0.00    +0.115 C 
ATOM     14  C   UNL     1      -4.564 -11.203  18.484  0.00  0.00    +0.108 C 
ATOM     16  C   UNL     1      -5.805 -12.064  14.401  0.00  0.00    -0.023 C 
ATOM     17  C   UNL     1      -6.929 -11.725  18.983  0.00  0.00    +0.229 C 
ATOM     19  C   UNL     1      -6.779 -11.838  13.503  0.00  0.00    +0.010 C 
ATOM     20  C   UNL     1      -8.204 -12.473  18.645  0.00  0.00    +0.178 C 
ATOM     21  C   UNL     1      -8.033 -11.003  13.569  0.00  0.00    +0.256 C 
ATOM     22  C   UNL     1      -9.205 -10.472  17.611  0.00  0.00    +0.120 C 
ATOM     23  C   UNL     1     -10.057  -9.981  16.453  0.00  0.00    +0.010 A 
ATOM     27  C   UNL     1     -12.095  -8.886  15.702  0.00  0.00    +0.030 A 
ATOM     28  C   UNL     1      -9.636 -10.094  15.108  0.00  0.00    +0.125 A 
ATOM     31  C   UNL     1     -11.291  -9.372  16.731  0.00  0.00    +0.031 A 
ATOM     32  C   UNL     1     -11.673  -8.998  14.381  0.00  0.00    +0.027 A 
ATOM     33  C   UNL     1     -10.449  -9.597  14.083  0.00  0.00    +0.048 A 
ATOM     37  H   UNL     1      -9.789 -12.414  17.379  0.00  0.00    +0.123 HD
ENDROOT
BRANCH  27   8
ATOM      8  N   UNL     1     -13.323  -8.283  15.996  0.00  0.00    -0.327 N 
ATOM      9  N   UNL     1     -15.727  -6.978  16.813  0.00  0.00    -0.313 NA
ATOM     24  C   UNL     1     -13.533  -6.867  15.678  0.00  0.00    +0.120 C 
ATOM     25  C   UNL     1     -14.091  -8.802  17.136  0.00  0.00    +0.120 C 
ATOM     29  C   UNL     1     -15.027  -6.551  15.602  0.00  0.00    +0.100 C 
ATOM     30  C   UNL     1     -15.565  -8.418  17.006  0.00  0.00    +0.100 C 
ATOM     38  H   UNL     1     -16.718  -6.760  16.723  0.00  0.00    +0.122 HD
ENDBRANCH  27   8
BRANCH  10  15
ATOM     15  C   UNL     1      -3.042 -11.475  15.680  0.00  0.00    +0.100 C 
BRANCH  15  18
ATOM      2  O   UNL     1      -1.353  -9.932  14.891  0.00  0.00    -0.276 OA
ATOM      6  N   UNL     1      -2.489 -11.267  13.364  0.00  0.00    -0.313 N 
ATOM     18  C   UNL     1      -2.191 -10.793  14.633  0.00  0.00    +0.213 C 
ATOM     36  H   UNL     1      -3.209 -11.975  13.255  0.00  0.00    +0.149 HD
BRANCH   6  26
ATOM     26  C   UNL     1      -1.829 -10.791  12.169  0.00  0.00    +0.132 C 
BRANCH  26  34
ATOM     34  C   UNL     1      -2.750  -9.925  11.331  0.00  0.00    +0.178 C 
BRANCH  34   4
ATOM      4  O   UNL     1      -3.346 -10.718  10.311  0.00  0.00    -0.381 OA
ATOM     35  C   UNL     1      -4.738 -10.899  10.538  0.00  0.00    +0.194 C 
ENDBRANCH  34   4
ENDBRANCH  26  34
ENDBRANCH   6  26
ENDBRANCH  15  18
ENDBRANCH  10  15
TORSDOF 6
ENDMDL
MODEL 9
REMARK VINA RESULT:      -5.7      4.566      7.800
REMARK  Name = 71694354
REMARK  7 active torsions:
REMARK  status: ('A' for Active; 'I' for Inactive)
REMARK    1  A    between atoms: O_4  and  C_34
REMARK    2  A    between atoms: O_4  and  C_35
REMARK    3  A    between atoms: N_6  and  C_26
REMARK    4  A    between atoms: N_8  and  C_27
REMARK    5  A    between atoms: C_10  and  C_15
REMARK    6  A    between atoms: C_15  and  C_18
REMARK    7  A    between atoms: C_26  and  C_34
REMARK                            x       y       z     vdW  Elec       q    Type
REMARK                         _______ _______ _______ _____ _____    ______ ____
ROOT
ATOM      1  O   UNL     1      16.813  14.208  23.822  0.00  0.00    -0.274 OA
ATOM      3  O   UNL     1      11.813  12.467  24.173  0.00  0.00    -0.488 OA
ATOM      5  N   UNL     1      15.166  15.044  25.219  0.00  0.00    -0.300 N 
ATOM      7  N   UNL     1      13.757  13.943  22.590  0.00  0.00    -0.304 NA
ATOM     10  C   UNL     1      13.866  13.934  27.579  0.00  0.00    +0.008 C 
ATOM     11  C   UNL     1      13.114  14.231  26.247  0.00  0.00    +0.032 C 
ATOM     12  C   UNL     1      15.366  13.712  27.277  0.00  0.00    +0.023 C 
ATOM     13  C   UNL     1      13.773  15.406  25.499  0.00  0.00    +0.115 C 
ATOM     14  C   UNL     1      15.970  14.832  26.425  0.00  0.00    +0.108 C 
ATOM     16  C   UNL     1      11.634  14.446  26.410  0.00  0.00    -0.023 C 
ATOM     17  C   UNL     1      15.681  14.685  23.973  0.00  0.00    +0.229 C 
ATOM     19  C   UNL     1      10.617  13.758  25.863  0.00  0.00    +0.010 C 
ATOM     20  C   UNL     1      14.832  14.920  22.738  0.00  0.00    +0.178 C 
ATOM     21  C   UNL     1      10.592  12.606  24.890  0.00  0.00    +0.256 C 
ATOM     22  C   UNL     1      14.181  12.545  22.628  0.00  0.00    +0.120 C 
ATOM     23  C   UNL     1      13.029  11.597  22.340  0.00  0.00    +0.010 A 
ATOM     27  C   UNL     1      12.120   9.801  20.975  0.00  0.00    +0.030 A 
ATOM     28  C   UNL     1      11.861  11.568  23.136  0.00  0.00    +0.125 A 
ATOM     31  C   UNL     1      13.142  10.704  21.262  0.00  0.00    +0.031 A 
ATOM     32  C   UNL     1      10.975   9.776  21.763  0.00  0.00    +0.027 A 
ATOM     33  C   UNL     1      10.844  10.653  22.841  0.00  0.00    +0.048 A 
ATOM     37  H   UNL     1      13.272  14.126  21.712  0.00  0.00    +0.123 HD
ENDROOT
BRANCH  27   8
ATOM      8  N   UNL     1      12.248   8.918  19.896  0.00  0.00    -0.327 N 
ATOM      9  N   UNL     1      12.377   6.952  17.831  0.00  0.00    -0.313 NA
ATOM     24  C   UNL     1      11.179   8.834  18.895  0.00  0.00    +0.120 C 
ATOM     25  C   UNL     1      13.033   7.693  20.096  0.00  0.00    +0.120 C 
ATOM     29  C   UNL     1      11.710   8.231  17.594  0.00  0.00    +0.100 C 
ATOM     30  C   UNL     1      13.498   7.132  18.752  0.00  0.00    +0.100 C 
ATOM     38  H   UNL     1      12.725   6.585  16.946  0.00  0.00    +0.122 HD
ENDBRANCH  27   8
BRANCH  10  15
ATOM     15  C   UNL     1      13.688  15.003  28.665  0.00  0.00    +0.100 C 
BRANCH  15  18
ATOM      2  O   UNL     1      15.033  15.026  30.677  0.00  0.00    -0.276 OA
ATOM      6  N   UNL     1      13.378  13.413  30.422  0.00  0.00    -0.313 N 
ATOM     18  C   UNL     1      14.127  14.510  30.025  0.00  0.00    +0.213 C 
ATOM     36  H   UNL     1      12.655  13.055  29.804  0.00  0.00    +0.149 HD
BRANCH   6  26
ATOM     26  C   UNL     1      13.581  12.733  31.681  0.00  0.00    +0.132 C 
BRANCH  26  34
ATOM     34  C   UNL     1      12.284  12.595  32.456  0.00  0.00    +0.178 C 
BRANCH  34   4
ATOM      4  O   UNL     1      11.297  13.443  31.882  0.00  0.00    -0.381 OA
ATOM     35  C   UNL     1      10.351  13.874  32.851  0.00  0.00    +0.194 C 
ENDBRANCH  34   4
ENDBRANCH  26  34
ENDBRANCH   6  26
ENDBRANCH  15  18
ENDBRANCH  10  15
TORSDOF 6
ENDMDL
MODEL 10
REMARK VINA RESULT:      -5.6     16.250     21.304
REMARK  Name = 71694354
REMARK  7 active torsions:
REMARK  status: ('A' for Active; 'I' for Inactive)
REMARK    1  A    between atoms: O_4  and  C_34
REMARK    2  A    between atoms: O_4  and  C_35
REMARK    3  A    between atoms: N_6  and  C_26
REMARK    4  A    between atoms: N_8  and  C_27
REMARK    5  A    between atoms: C_10  and  C_15
REMARK    6  A    between atoms: C_15  and  C_18
REMARK    7  A    between atoms: C_26  and  C_34
REMARK                            x       y       z     vdW  Elec       q    Type
REMARK                         _______ _______ _______ _____ _____    ______ ____
ROOT
ATOM      1  O   UNL     1      17.420  -2.131  32.906  0.00  0.00    -0.274 OA
ATOM      3  O   UNL     1      14.941  -5.930  30.154  0.00  0.00    -0.488 OA
ATOM      5  N   UNL     1      18.314  -3.365  31.163  0.00  0.00    -0.300 N 
ATOM      7  N   UNL     1      16.197  -5.193  32.673  0.00  0.00    -0.304 NA
ATOM     10  C   UNL     1      17.768  -3.372  28.301  0.00  0.00    +0.008 C 
ATOM     11  C   UNL     1      17.482  -4.589  29.230  0.00  0.00    +0.032 C 
ATOM     12  C   UNL     1      17.758  -2.076  29.144  0.00  0.00    +0.023 C 
ATOM     13  C   UNL     1      18.469  -4.616  30.413  0.00  0.00    +0.115 C 
ATOM     14  C   UNL     1      18.650  -2.171  30.384  0.00  0.00    +0.108 C 
ATOM     16  C   UNL     1      17.447  -5.914  28.517  0.00  0.00    -0.023 C 
ATOM     17  C   UNL     1      17.691  -3.228  32.403  0.00  0.00    +0.229 C 
ATOM     19  C   UNL     1      16.438  -6.799  28.435  0.00  0.00    +0.010 C 
ATOM     20  C   UNL     1      17.360  -4.480  33.194  0.00  0.00    +0.178 C 
ATOM     21  C   UNL     1      15.059  -6.811  29.043  0.00  0.00    +0.256 C 
ATOM     22  C   UNL     1      14.991  -4.382  32.520  0.00  0.00    +0.120 C 
ATOM     23  C   UNL     1      13.796  -5.220  32.098  0.00  0.00    +0.010 A 
ATOM     27  C   UNL     1      11.523  -5.958  32.550  0.00  0.00    +0.030 A 
ATOM     28  C   UNL     1      13.791  -5.975  30.903  0.00  0.00    +0.125 A 
ATOM     31  C   UNL     1      12.651  -5.222  32.910  0.00  0.00    +0.031 A 
ATOM     32  C   UNL     1      11.524  -6.696  31.372  0.00  0.00    +0.027 A 
ATOM     33  C   UNL     1      12.651  -6.705  30.549  0.00  0.00    +0.048 A 
ATOM     37  H   UNL     1      15.999  -5.982  33.288  0.00  0.00    +0.123 HD
ENDROOT
BRANCH  27   8
ATOM      8  N   UNL     1      10.390  -5.951  33.372  0.00  0.00    -0.327 N 
ATOM      9  N   UNL     1       8.234  -5.910  35.243  0.00  0.00    -0.313 NA
ATOM     24  C   UNL     1       9.784  -4.675  33.766  0.00  0.00    +0.120 C 
ATOM     25  C   UNL     1      10.220  -7.058  34.323  0.00  0.00    +0.120 C 
ATOM     29  C   UNL     1       8.335  -4.883  34.208  0.00  0.00    +0.100 C 
ATOM     30  C   UNL     1       8.756  -7.181  34.743  0.00  0.00    +0.100 C 
ATOM     38  H   UNL     1       7.257  -6.027  35.506  0.00  0.00    +0.122 HD
ENDBRANCH  27   8
BRANCH  10  15
ATOM     15  C   UNL     1      19.067  -3.478  27.491  0.00  0.00    +0.100 C 
BRANCH  15  18
ATOM      2  O   UNL     1      19.653  -2.857  25.227  0.00  0.00    -0.276 OA
ATOM      6  N   UNL     1      17.561  -3.773  25.659  0.00  0.00    -0.313 N 
ATOM     18  C   UNL     1      18.826  -3.324  26.007  0.00  0.00    +0.213 C 
ATOM     36  H   UNL     1      16.945  -4.134  26.383  0.00  0.00    +0.149 HD
BRANCH   6  26
ATOM     26  C   UNL     1      17.058  -3.745  24.305  0.00  0.00    +0.132 C 
BRANCH  26  34
ATOM     34  C   UNL     1      16.039  -2.638  24.111  0.00  0.00    +0.178 C 
BRANCH  34   4
ATOM      4  O   UNL     1      16.619  -1.590  23.343  0.00  0.00    -0.381 OA
ATOM     35  C   UNL     1      17.623  -2.081  22.465  0.00  0.00    +0.194 C 
ENDBRANCH  34   4
ENDBRANCH  26  34
ENDBRANCH   6  26
ENDBRANCH  15  18
ENDBRANCH  10  15
TORSDOF 6
ENDMDL
