MODEL 1
REMARK VINA RESULT:      -7.7      0.000      0.000
REMARK  Name = 11885881
REMARK  3 active torsions:
REMARK  status: ('A' for Active; 'I' for Inactive)
REMARK    1  A    between atoms: N_8  and  C_19
REMARK    2  A    between atoms: C_18  and  C_21
REMARK    3  A    between atoms: C_24  and  C_28
REMARK                            x       y       z     vdW  Elec       q    Type
REMARK                         _______ _______ _______ _____ _____    ______ ____
ROOT
ATOM      3  O   UNL     1      15.661   6.230  21.254  0.00  0.00    -0.266 OA
ATOM      4  O   UNL     1      11.877   7.112  17.838  0.00  0.00    -0.270 OA
ATOM      6  N   UNL     1      11.780   8.799  19.456  0.00  0.00    -0.297 N 
ATOM      7  N   UNL     1      14.282   8.115  21.283  0.00  0.00    -0.310 N 
ATOM      9  C   UNL     1      11.778   7.992  21.810  0.00  0.00    +0.027 C 
ATOM     10  C   UNL     1      12.807  10.159  21.262  0.00  0.00    +0.054 C 
ATOM     11  C   UNL     1      11.952   9.427  22.295  0.00  0.00    +0.018 C 
ATOM     12  C   UNL     1      11.081   7.970  20.437  0.00  0.00    +0.113 C 
ATOM     13  C   UNL     1      13.152   7.312  21.771  0.00  0.00    +0.130 C 
ATOM     14  C   UNL     1      12.080  10.170  19.903  0.00  0.00    +0.117 C 
ATOM     15  C   UNL     1      14.165   9.498  21.110  0.00  0.00    +0.027 A 
ATOM     16  C   UNL     1      15.240  10.232  20.775  0.00  0.00    +0.024 A 
ATOM     17  C   UNL     1      15.505   7.442  21.098  0.00  0.00    +0.273 A 
ATOM     18  C   UNL     1      12.124   8.256  18.216  0.00  0.00    +0.247 C 
ATOM     19  C   UNL     1      16.673   8.290  20.697  0.00  0.00    +0.099 A 
ATOM     20  C   UNL     1      16.518   9.611  20.565  0.00  0.00    +0.030 A 
ENDROOT
BRANCH  18  21
ATOM      2  F   UNL     1      14.948  11.489  14.634  0.00  0.00    -0.205 F 
ATOM     21  C   UNL     1      12.865   9.104  17.277  0.00  0.00    +0.037 A 
ATOM     22  C   UNL     1      12.270   9.495  16.079  0.00  0.00    +0.016 A 
ATOM     23  C   UNL     1      14.159   9.514  17.586  0.00  0.00    +0.016 A 
ATOM     25  C   UNL     1      12.974  10.301  15.186  0.00  0.00    +0.039 A 
ATOM     26  C   UNL     1      14.863  10.321  16.692  0.00  0.00    +0.039 A 
ATOM     27  C   UNL     1      14.271  10.714  15.492  0.00  0.00    +0.123 A 
ENDBRANCH  18  21
BRANCH  19   8
ATOM      5  O   UNL     1      18.924   8.354  22.450  0.00  0.00    -0.269 OA
ATOM      8  N   UNL     1      17.872   7.672  20.491  0.00  0.00    -0.277 N 
ATOM     24  C   UNL     1      18.931   7.742  21.385  0.00  0.00    +0.255 C 
ATOM     32  H   UNL     1      18.048   7.307  19.559  0.00  0.00    +0.155 HD
BRANCH  24  28
ATOM      1  S   UNL     1      21.580   7.860  20.820  0.00  0.00    -0.092 S 
ATOM     28  C   UNL     1      20.150   6.985  20.999  0.00  0.00    +0.074 A 
ATOM     29  C   UNL     1      20.242   5.666  20.773  0.00  0.00    +0.021 A 
ATOM     30  C   UNL     1      21.579   5.321  20.425  0.00  0.00    +0.008 A 
ATOM     31  C   UNL     1      22.411   6.419  20.413  0.00  0.00    +0.046 A 
ENDBRANCH  24  28
ENDBRANCH  19   8
TORSDOF 3
ENDMDL
MODEL 2
REMARK VINA RESULT:      -7.2     27.573     30.327
REMARK  Name = 11885881
REMARK  3 active torsions:
REMARK  status: ('A' for Active; 'I' for Inactive)
REMARK    1  A    between atoms: N_8  and  C_19
REMARK    2  A    between atoms: C_18  and  C_21
REMARK    3  A    between atoms: C_24  and  C_28
REMARK                            x       y       z     vdW  Elec       q    Type
REMARK                         _______ _______ _______ _____ _____    ______ ____
ROOT
ATOM      3  O   UNL     1      -6.618  -9.839  14.295  0.00  0.00    -0.266 OA
ATOM      4  O   UNL     1      -4.852 -14.371  12.532  0.00  0.00    -0.270 OA
ATOM      6  N   UNL     1      -3.002 -13.084  13.161  0.00  0.00    -0.297 N 
ATOM      7  N   UNL     1      -4.373 -10.482  14.348  0.00  0.00    -0.310 N 
ATOM      9  C   UNL     1      -2.967 -10.778  12.227  0.00  0.00    +0.027 C 
ATOM     10  C   UNL     1      -1.964 -11.220  14.432  0.00  0.00    +0.054 C 
ATOM     11  C   UNL     1      -1.787 -10.437  13.131  0.00  0.00    +0.018 C 
ATOM     12  C   UNL     1      -3.000 -12.289  11.934  0.00  0.00    +0.113 C 
ATOM     13  C   UNL     1      -4.258 -10.290  12.895  0.00  0.00    +0.130 C 
ATOM     14  C   UNL     1      -1.952 -12.731  14.131  0.00  0.00    +0.117 C 
ATOM     15  C   UNL     1      -3.265 -10.846  15.120  0.00  0.00    +0.027 A 
ATOM     16  C   UNL     1      -3.361 -10.903  16.459  0.00  0.00    +0.024 A 
ATOM     17  C   UNL     1      -5.620 -10.181  14.931  0.00  0.00    +0.273 A 
ATOM     18  C   UNL     1      -3.972 -14.073  13.339  0.00  0.00    +0.247 C 
ATOM     19  C   UNL     1      -5.694 -10.282  16.423  0.00  0.00    +0.099 A 
ATOM     20  C   UNL     1      -4.603 -10.615  17.120  0.00  0.00    +0.030 A 
ENDROOT
BRANCH  18  21
ATOM      2  F   UNL     1      -3.966 -16.915  18.153  0.00  0.00    -0.205 F 
ATOM     21  C   UNL     1      -3.970 -14.818  14.601  0.00  0.00    +0.037 A 
ATOM     22  C   UNL     1      -3.198 -15.971  14.725  0.00  0.00    +0.016 A 
ATOM     23  C   UNL     1      -4.741 -14.371  15.671  0.00  0.00    +0.016 A 
ATOM     25  C   UNL     1      -3.196 -16.680  15.926  0.00  0.00    +0.039 A 
ATOM     26  C   UNL     1      -4.740 -15.079  16.872  0.00  0.00    +0.039 A 
ATOM     27  C   UNL     1      -3.967 -16.234  17.000  0.00  0.00    +0.123 A 
ENDBRANCH  18  21
BRANCH  19   8
ATOM      5  O   UNL     1      -7.580 -12.215  17.348  0.00  0.00    -0.269 OA
ATOM      8  N   UNL     1      -6.890 -10.017  17.024  0.00  0.00    -0.277 N 
ATOM     24  C   UNL     1      -7.765 -11.005  17.453  0.00  0.00    +0.255 C 
ATOM     32  H   UNL     1      -7.225  -9.058  16.981  0.00  0.00    +0.155 HD
BRANCH  24  28
ATOM      1  S   UNL     1      -9.432 -11.222  19.580  0.00  0.00    -0.092 S 
ATOM     28  C   UNL     1      -9.010 -10.523  18.106  0.00  0.00    +0.074 A 
ATOM     29  C   UNL     1      -9.848  -9.581  17.647  0.00  0.00    +0.021 A 
ATOM     30  C   UNL     1     -10.927  -9.399  18.559  0.00  0.00    +0.008 A 
ATOM     31  C   UNL     1     -10.825 -10.228  19.654  0.00  0.00    +0.046 A 
ENDBRANCH  24  28
ENDBRANCH  19   8
TORSDOF 3
ENDMDL
MODEL 3
REMARK VINA RESULT:      -7.1     31.316     32.985
REMARK  Name = 11885881
REMARK  3 active torsions:
REMARK  status: ('A' for Active; 'I' for Inactive)
REMARK    1  A    between atoms: N_8  and  C_19
REMARK    2  A    between atoms: C_18  and  C_21
REMARK    3  A    between atoms: C_24  and  C_28
REMARK                            x       y       z     vdW  Elec       q    Type
REMARK                         _______ _______ _______ _____ _____    ______ ____
ROOT
ATOM      3  O   UNL     1     -12.330  -7.538   9.231  0.00  0.00    -0.266 OA
ATOM      4  O   UNL     1     -16.567  -4.913  10.623  0.00  0.00    -0.270 OA
ATOM      6  N   UNL     1     -14.794  -4.157  11.951  0.00  0.00    -0.297 N 
ATOM      7  N   UNL     1     -12.338  -5.783  10.773  0.00  0.00    -0.310 N 
ATOM      9  C   UNL     1     -13.479  -5.954  13.061  0.00  0.00    +0.027 C 
ATOM     10  C   UNL     1     -12.370  -3.858  12.400  0.00  0.00    +0.054 C 
ATOM     11  C   UNL     1     -12.446  -4.920  13.496  0.00  0.00    +0.018 C 
ATOM     12  C   UNL     1     -14.856  -5.292  12.871  0.00  0.00    +0.113 C 
ATOM     13  C   UNL     1     -12.985  -6.637  11.779  0.00  0.00    +0.130 C 
ATOM     14  C   UNL     1     -13.742  -3.171  12.249  0.00  0.00    +0.117 C 
ATOM     15  C   UNL     1     -11.958  -4.471  11.074  0.00  0.00    +0.027 A 
ATOM     16  C   UNL     1     -11.264  -3.745  10.180  0.00  0.00    +0.024 A 
ATOM     17  C   UNL     1     -12.032  -6.382   9.535  0.00  0.00    +0.273 A 
ATOM     18  C   UNL     1     -15.686  -4.092  10.878  0.00  0.00    +0.247 C 
ATOM     19  C   UNL     1     -11.284  -5.532   8.556  0.00  0.00    +0.099 A 
ATOM     20  C   UNL     1     -10.923  -4.290   8.896  0.00  0.00    +0.030 A 
ENDROOT
BRANCH  18  21
ATOM      2  F   UNL     1     -15.222   0.212   7.341  0.00  0.00    -0.205 F 
ATOM     21  C   UNL     1     -15.564  -2.963   9.951  0.00  0.00    +0.037 A 
ATOM     22  C   UNL     1     -16.290  -1.797  10.180  0.00  0.00    +0.016 A 
ATOM     23  C   UNL     1     -14.724  -3.063   8.845  0.00  0.00    +0.016 A 
ATOM     25  C   UNL     1     -16.174  -0.723   9.297  0.00  0.00    +0.039 A 
ATOM     26  C   UNL     1     -14.607  -1.989   7.963  0.00  0.00    +0.039 A 
ATOM     27  C   UNL     1     -15.333  -0.819   8.188  0.00  0.00    +0.123 A 
ENDBRANCH  18  21
BRANCH  19   8
ATOM      5  O   UNL     1      -8.743  -6.546   7.742  0.00  0.00    -0.269 OA
ATOM      8  N   UNL     1     -10.984  -6.069   7.338  0.00  0.00    -0.277 N 
ATOM     24  C   UNL     1      -9.725  -6.547   7.003  0.00  0.00    +0.255 C 
ATOM     32  H   UNL     1     -11.666  -5.939   6.596  0.00  0.00    +0.155 HD
BRANCH  24  28
ATOM      1  S   UNL     1      -8.229  -8.050   5.313  0.00  0.00    -0.092 S 
ATOM     28  C   UNL     1      -9.596  -7.118   5.637  0.00  0.00    +0.074 A 
ATOM     29  C   UNL     1     -10.456  -6.972   4.619  0.00  0.00    +0.021 A 
ATOM     30  C   UNL     1      -9.981  -7.671   3.472  0.00  0.00    +0.008 A 
ATOM     31  C   UNL     1      -8.779  -8.302   3.712  0.00  0.00    +0.046 A 
ENDBRANCH  24  28
ENDBRANCH  19   8
TORSDOF 3
ENDMDL
MODEL 4
REMARK VINA RESULT:      -7.1     12.403     14.398
REMARK  Name = 11885881
REMARK  3 active torsions:
REMARK  status: ('A' for Active; 'I' for Inactive)
REMARK    1  A    between atoms: N_8  and  C_19
REMARK    2  A    between atoms: C_18  and  C_21
REMARK    3  A    between atoms: C_24  and  C_28
REMARK                            x       y       z     vdW  Elec       q    Type
REMARK                         _______ _______ _______ _____ _____    ______ ____
ROOT
ATOM      3  O   UNL     1      12.714   7.562   3.605  0.00  0.00    -0.266 OA
ATOM      4  O   UNL     1       9.261  11.024   5.298  0.00  0.00    -0.270 OA
ATOM      6  N   UNL     1       8.663   8.938   6.172  0.00  0.00    -0.297 N 
ATOM      7  N   UNL     1      11.015   7.080   5.134  0.00  0.00    -0.310 N 
ATOM      9  C   UNL     1       8.533   7.101   4.499  0.00  0.00    +0.027 C 
ATOM     10  C   UNL     1       9.199   6.600   6.815  0.00  0.00    +0.054 C 
ATOM     11  C   UNL     1       8.380   6.090   5.631  0.00  0.00    +0.018 C 
ATOM     12  C   UNL     1       8.019   8.484   4.940  0.00  0.00    +0.113 C 
ATOM     13  C   UNL     1      10.004   7.142   4.068  0.00  0.00    +0.130 C 
ATOM     14  C   UNL     1       8.648   7.964   7.276  0.00  0.00    +0.117 C 
ATOM     15  C   UNL     1      10.665   6.740   6.445  0.00  0.00    +0.027 A 
ATOM     16  C   UNL     1      11.617   6.575   7.379  0.00  0.00    +0.024 A 
ATOM     17  C   UNL     1      12.355   7.279   4.749  0.00  0.00    +0.273 A 
ATOM     18  C   UNL     1       9.246  10.206   6.217  0.00  0.00    +0.247 C 
ATOM     19  C   UNL     1      13.384   7.114   5.825  0.00  0.00    +0.099 A 
ATOM     20  C   UNL     1      13.003   6.767   7.059  0.00  0.00    +0.030 A 
ENDROOT
BRANCH  18  21
ATOM      2  F   UNL     1      11.822  11.742  10.935  0.00  0.00    -0.205 F 
ATOM     21  C   UNL     1       9.921  10.609   7.454  0.00  0.00    +0.037 A 
ATOM     22  C   UNL     1       9.176  11.110   8.519  0.00  0.00    +0.016 A 
ATOM     23  C   UNL     1      11.305  10.490   7.558  0.00  0.00    +0.016 A 
ATOM     25  C   UNL     1       9.819  11.493   9.696  0.00  0.00    +0.039 A 
ATOM     26  C   UNL     1      11.948  10.872   8.735  0.00  0.00    +0.039 A 
ATOM     27  C   UNL     1      11.205  11.374   9.804  0.00  0.00    +0.123 A 
ENDBRANCH  18  21
BRANCH  19   8
ATOM      5  O   UNL     1      14.910   9.465   6.359  0.00  0.00    -0.269 OA
ATOM      8  N   UNL     1      14.692   7.316   5.496  0.00  0.00    -0.277 N 
ATOM     24  C   UNL     1      15.380   8.486   5.785  0.00  0.00    +0.255 C 
ATOM     32  H   UNL     1      15.114   6.653   4.851  0.00  0.00    +0.155 HD
BRANCH  24  28
ATOM      1  S   UNL     1      17.143   8.250   3.738  0.00  0.00    -0.092 S 
ATOM     28  C   UNL     1      16.807   8.513   5.369  0.00  0.00    +0.074 A 
ATOM     29  C   UNL     1      17.872   8.727   6.156  0.00  0.00    +0.021 A 
ATOM     30  C   UNL     1      19.069   8.676   5.385  0.00  0.00    +0.008 A 
ATOM     31  C   UNL     1      18.817   8.425   4.054  0.00  0.00    +0.046 A 
ENDBRANCH  24  28
ENDBRANCH  19   8
TORSDOF 3
ENDMDL
MODEL 5
REMARK VINA RESULT:      -6.9     28.293     30.353
REMARK  Name = 11885881
REMARK  3 active torsions:
REMARK  status: ('A' for Active; 'I' for Inactive)
REMARK    1  A    between atoms: N_8  and  C_19
REMARK    2  A    between atoms: C_18  and  C_21
REMARK    3  A    between atoms: C_24  and  C_28
REMARK                            x       y       z     vdW  Elec       q    Type
REMARK                         _______ _______ _______ _____ _____    ______ ____
ROOT
ATOM      3  O   UNL     1      -6.139 -12.779  14.923  0.00  0.00    -0.266 OA
ATOM      4  O   UNL     1     -11.099 -12.013  16.180  0.00  0.00    -0.270 OA
ATOM      6  N   UNL     1      -9.814 -11.633  18.097  0.00  0.00    -0.297 N 
ATOM      7  N   UNL     1      -6.859 -11.992  17.001  0.00  0.00    -0.310 N 
ATOM      9  C   UNL     1      -8.191 -13.438  18.644  0.00  0.00    +0.027 C 
ATOM     10  C   UNL     1      -7.662 -11.104  19.219  0.00  0.00    +0.054 C 
ATOM     11  C   UNL     1      -7.570 -12.547  19.714  0.00  0.00    +0.018 C 
ATOM     12  C   UNL     1      -9.664 -13.053  18.412  0.00  0.00    +0.113 C 
ATOM     13  C   UNL     1      -7.356 -13.328  17.362  0.00  0.00    +0.130 C 
ATOM     14  C   UNL     1      -9.142 -10.715  19.033  0.00  0.00    +0.117 C 
ATOM     15  C   UNL     1      -6.919 -10.928  17.907  0.00  0.00    +0.027 A 
ATOM     16  C   UNL     1      -6.354  -9.747  17.603  0.00  0.00    +0.024 A 
ATOM     17  C   UNL     1      -6.232 -11.867  15.746  0.00  0.00    +0.273 A 
ATOM     18  C   UNL     1     -10.537 -11.251  16.965  0.00  0.00    +0.247 C 
ATOM     19  C   UNL     1      -5.640 -10.528  15.433  0.00  0.00    +0.099 A 
ATOM     20  C   UNL     1      -5.704  -9.547  16.339  0.00  0.00    +0.030 A 
ENDROOT
BRANCH  18  21
ATOM      2  F   UNL     1     -10.881  -5.796  15.790  0.00  0.00    -0.205 F 
ATOM     21  C   UNL     1     -10.627  -9.821  16.657  0.00  0.00    +0.037 A 
ATOM     22  C   UNL     1     -11.718  -9.082  17.109  0.00  0.00    +0.016 A 
ATOM     23  C   UNL     1      -9.622  -9.207  15.913  0.00  0.00    +0.016 A 
ATOM     25  C   UNL     1     -11.803  -7.721  16.817  0.00  0.00    +0.039 A 
ATOM     26  C   UNL     1      -9.707  -7.847  15.620  0.00  0.00    +0.039 A 
ATOM     27  C   UNL     1     -10.798  -7.103  16.072  0.00  0.00    +0.123 A 
ENDBRANCH  18  21
BRANCH  19   8
ATOM      5  O   UNL     1      -6.885  -9.547  13.060  0.00  0.00    -0.269 OA
ATOM      8  N   UNL     1      -5.040 -10.361  14.219  0.00  0.00    -0.277 N 
ATOM     24  C   UNL     1      -5.703  -9.877  13.099  0.00  0.00    +0.255 C 
ATOM     32  H   UNL     1      -4.125 -10.784  14.094  0.00  0.00    +0.155 HD
BRANCH  24  28
ATOM      1  S   UNL     1      -5.501  -8.803  10.618  0.00  0.00    -0.092 S 
ATOM     28  C   UNL     1      -4.878  -9.743  11.871  0.00  0.00    +0.074 A 
ATOM     29  C   UNL     1      -3.675 -10.293  11.644  0.00  0.00    +0.021 A 
ATOM     30  C   UNL     1      -3.207  -9.930  10.349  0.00  0.00    +0.008 A 
ATOM     31  C   UNL     1      -4.102  -9.121   9.683  0.00  0.00    +0.046 A 
ENDBRANCH  24  28
ENDBRANCH  19   8
TORSDOF 3
ENDMDL
MODEL 6
REMARK VINA RESULT:      -6.6     22.099     24.705
REMARK  Name = 11885881
REMARK  3 active torsions:
REMARK  status: ('A' for Active; 'I' for Inactive)
REMARK    1  A    between atoms: N_8  and  C_19
REMARK    2  A    between atoms: C_18  and  C_21
REMARK    3  A    between atoms: C_24  and  C_28
REMARK                            x       y       z     vdW  Elec       q    Type
REMARK                         _______ _______ _______ _____ _____    ______ ____
ROOT
ATOM      3  O   UNL     1       9.510  -9.612  32.032  0.00  0.00    -0.266 OA
ATOM      4  O   UNL     1       8.431  -9.132  37.070  0.00  0.00    -0.270 OA
ATOM      6  N   UNL     1       8.088  -7.045  36.068  0.00  0.00    -0.297 N 
ATOM      7  N   UNL     1       8.641  -7.676  33.009  0.00  0.00    -0.310 N 
ATOM      9  C   UNL     1       9.973  -6.239  34.659  0.00  0.00    +0.027 C 
ATOM     10  C   UNL     1       7.663  -5.616  34.082  0.00  0.00    +0.054 C 
ATOM     11  C   UNL     1       9.099  -5.097  34.153  0.00  0.00    +0.018 C 
ATOM     12  C   UNL     1       9.508  -6.696  36.054  0.00  0.00    +0.113 C 
ATOM     13  C   UNL     1       9.938  -7.380  33.635  0.00  0.00    +0.130 C 
ATOM     14  C   UNL     1       7.192  -6.029  35.490  0.00  0.00    +0.117 C 
ATOM     15  C   UNL     1       7.557  -6.801  33.140  0.00  0.00    +0.027 A 
ATOM     16  C   UNL     1       6.417  -7.030  32.466  0.00  0.00    +0.024 A 
ATOM     17  C   UNL     1       8.578  -8.823  32.193  0.00  0.00    +0.273 A 
ATOM     18  C   UNL     1       7.688  -8.279  36.587  0.00  0.00    +0.247 C 
ATOM     19  C   UNL     1       7.282  -9.057  31.481  0.00  0.00    +0.099 A 
ATOM     20  C   UNL     1       6.281  -8.183  31.621  0.00  0.00    +0.030 A 
ENDROOT
BRANCH  18  21
ATOM      2  F   UNL     1       2.247  -9.552  36.421  0.00  0.00    -0.205 F 
ATOM     21  C   UNL     1       6.261  -8.613  36.543  0.00  0.00    +0.037 A 
ATOM     22  C   UNL     1       5.724  -9.215  35.408  0.00  0.00    +0.016 A 
ATOM     23  C   UNL     1       5.449  -8.326  37.638  0.00  0.00    +0.016 A 
ATOM     25  C   UNL     1       4.367  -9.532  35.367  0.00  0.00    +0.039 A 
ATOM     26  C   UNL     1       4.091  -8.644  37.597  0.00  0.00    +0.039 A 
ATOM     27  C   UNL     1       3.550  -9.247  36.461  0.00  0.00    +0.123 A 
ENDBRANCH  18  21
BRANCH  19   8
ATOM      5  O   UNL     1       6.380 -11.632  32.319  0.00  0.00    -0.269 OA
ATOM      8  N   UNL     1       7.174 -10.168  30.696  0.00  0.00    -0.277 N 
ATOM     24  C   UNL     1       6.727 -11.395  31.165  0.00  0.00    +0.255 C 
ATOM     32  H   UNL     1       7.617 -10.132  29.782  0.00  0.00    +0.155 HD
BRANCH  24  28
ATOM      1  S   UNL     1       7.947 -12.627  29.080  0.00  0.00    -0.092 S 
ATOM     28  C   UNL     1       6.657 -12.483  30.156  0.00  0.00    +0.074 A 
ATOM     29  C   UNL     1       5.668 -13.377  30.002  0.00  0.00    +0.021 A 
ATOM     30  C   UNL     1       5.968 -14.259  28.925  0.00  0.00    +0.008 A 
ATOM     31  C   UNL     1       7.178 -13.964  28.336  0.00  0.00    +0.046 A 
ENDBRANCH  24  28
ENDBRANCH  19   8
TORSDOF 3
ENDMDL
MODEL 7
REMARK VINA RESULT:      -6.6     13.555     15.254
REMARK  Name = 11885881
REMARK  3 active torsions:
REMARK  status: ('A' for Active; 'I' for Inactive)
REMARK    1  A    between atoms: N_8  and  C_19
REMARK    2  A    between atoms: C_18  and  C_21
REMARK    3  A    between atoms: C_24  and  C_28
REMARK                            x       y       z     vdW  Elec       q    Type
REMARK                         _______ _______ _______ _____ _____    ______ ____
ROOT
ATOM      3  O   UNL     1      14.045   6.518   7.328  0.00  0.00    -0.266 OA
ATOM      4  O   UNL     1      10.780   4.488   3.864  0.00  0.00    -0.270 OA
ATOM      6  N   UNL     1       9.626   6.150   5.040  0.00  0.00    -0.297 N 
ATOM      7  N   UNL     1      11.887   7.319   6.933  0.00  0.00    -0.310 N 
ATOM      9  C   UNL     1       9.783   5.979   7.517  0.00  0.00    +0.027 C 
ATOM     10  C   UNL     1       9.570   8.190   6.455  0.00  0.00    +0.054 C 
ATOM     11  C   UNL     1       9.119   7.346   7.647  0.00  0.00    +0.018 C 
ATOM     12  C   UNL     1       9.363   5.300   6.200  0.00  0.00    +0.113 C 
ATOM     13  C   UNL     1      11.303   6.156   7.617  0.00  0.00    +0.130 C 
ATOM     14  C   UNL     1       9.107   7.524   5.145  0.00  0.00    +0.117 C 
ATOM     15  C   UNL     1      11.080   8.350   6.440  0.00  0.00    +0.027 A 
ATOM     16  C   UNL     1      11.637   9.458   5.923  0.00  0.00    +0.024 A 
ATOM     17  C   UNL     1      13.293   7.390   6.891  0.00  0.00    +0.273 A 
ATOM     18  C   UNL     1      10.343   5.634   3.958  0.00  0.00    +0.247 C 
ATOM     19  C   UNL     1      13.875   8.628   6.282  0.00  0.00    +0.099 A 
ATOM     20  C   UNL     1      13.064   9.596   5.843  0.00  0.00    +0.030 A 
ENDROOT
BRANCH  18  21
ATOM      2  F   UNL     1      11.423   9.047  -0.337  0.00  0.00    -0.205 F 
ATOM     21  C   UNL     1      10.627   6.529   2.831  0.00  0.00    +0.037 A 
ATOM     22  C   UNL     1      11.750   7.353   2.866  0.00  0.00    +0.016 A 
ATOM     23  C   UNL     1       9.771   6.552   1.733  0.00  0.00    +0.016 A 
ATOM     25  C   UNL     1      12.019   8.204   1.794  0.00  0.00    +0.039 A 
ATOM     26  C   UNL     1      10.041   7.403   0.661  0.00  0.00    +0.039 A 
ATOM     27  C   UNL     1      11.164   8.229   0.692  0.00  0.00    +0.123 A 
ENDBRANCH  18  21
BRANCH  19   8
ATOM      5  O   UNL     1      15.511   7.736   4.120  0.00  0.00    -0.269 OA
ATOM      8  N   UNL     1      15.234   8.727   6.207  0.00  0.00    -0.277 N 
ATOM     24  C   UNL     1      15.974   8.272   5.124  0.00  0.00    +0.255 C 
ATOM     32  H   UNL     1      15.727   8.973   7.060  0.00  0.00    +0.155 HD
BRANCH  24  28
ATOM      1  S   UNL     1      18.319   8.438   3.773  0.00  0.00    -0.092 S 
ATOM     28  C   UNL     1      17.441   8.487   5.211  0.00  0.00    +0.074 A 
ATOM     29  C   UNL     1      18.157   8.719   6.323  0.00  0.00    +0.021 A 
ATOM     30  C   UNL     1      19.535   8.872   5.995  0.00  0.00    +0.008 A 
ATOM     31  C   UNL     1      19.762   8.743   4.642  0.00  0.00    +0.046 A 
ENDBRANCH  24  28
ENDBRANCH  19   8
TORSDOF 3
ENDMDL
MODEL 8
REMARK VINA RESULT:      -6.6     27.752     30.094
REMARK  Name = 11885881
REMARK  3 active torsions:
REMARK  status: ('A' for Active; 'I' for Inactive)
REMARK    1  A    between atoms: N_8  and  C_19
REMARK    2  A    between atoms: C_18  and  C_21
REMARK    3  A    between atoms: C_24  and  C_28
REMARK                            x       y       z     vdW  Elec       q    Type
REMARK                         _______ _______ _______ _____ _____    ______ ____
ROOT
ATOM      3  O   UNL     1      -5.472 -12.585  16.473  0.00  0.00    -0.266 OA
ATOM      4  O   UNL     1      -1.770 -10.490  13.526  0.00  0.00    -0.270 OA
ATOM      6  N   UNL     1      -2.472 -12.466  12.487  0.00  0.00    -0.297 N 
ATOM      7  N   UNL     1      -4.824 -13.420  14.389  0.00  0.00    -0.310 N 
ATOM      9  C   UNL     1      -2.523 -14.464  13.968  0.00  0.00    +0.027 C 
ATOM     10  C   UNL     1      -4.136 -14.272  12.119  0.00  0.00    +0.054 C 
ATOM     11  C   UNL     1      -3.236 -15.250  12.873  0.00  0.00    +0.018 C 
ATOM     12  C   UNL     1      -1.677 -13.333  13.355  0.00  0.00    +0.113 C 
ATOM     13  C   UNL     1      -3.569 -13.933  14.956  0.00  0.00    +0.130 C 
ATOM     14  C   UNL     1      -3.274 -13.169  11.473  0.00  0.00    +0.117 C 
ATOM     15  C   UNL     1      -5.158 -13.642  13.049  0.00  0.00    +0.027 A 
ATOM     16  C   UNL     1      -6.359 -13.268  12.578  0.00  0.00    +0.024 A 
ATOM     17  C   UNL     1      -5.712 -12.788  15.282  0.00  0.00    +0.273 A 
ATOM     18  C   UNL     1      -2.438 -11.083  12.680  0.00  0.00    +0.247 C 
ATOM     19  C   UNL     1      -7.030 -12.360  14.713  0.00  0.00    +0.099 A 
ATOM     20  C   UNL     1      -7.312 -12.613  13.431  0.00  0.00    +0.030 A 
ENDROOT
BRANCH  18  21
ATOM      2  F   UNL     1      -5.658  -7.901   9.399  0.00  0.00    -0.205 F 
ATOM     21  C   UNL     1      -3.283 -10.249  11.820  0.00  0.00    +0.037 A 
ATOM     22  C   UNL     1      -4.598  -9.980  12.190  0.00  0.00    +0.016 A 
ATOM     23  C   UNL     1      -2.765  -9.728  10.636  0.00  0.00    +0.016 A 
ATOM     25  C   UNL     1      -5.401  -9.186  11.371  0.00  0.00    +0.039 A 
ATOM     26  C   UNL     1      -3.568  -8.934   9.817  0.00  0.00    +0.039 A 
ATOM     27  C   UNL     1      -4.886  -8.663  10.185  0.00  0.00    +0.123 A 
ENDBRANCH  18  21
BRANCH  19   8
ATOM      5  O   UNL     1      -7.087  -9.566  15.291  0.00  0.00    -0.269 OA
ATOM      8  N   UNL     1      -7.910 -11.728  15.541  0.00  0.00    -0.277 N 
ATOM     24  C   UNL     1      -7.885 -10.361  15.782  0.00  0.00    +0.255 C 
ATOM     32  H   UNL     1      -8.481 -12.315  16.143  0.00  0.00    +0.155 HD
BRANCH  24  28
ATOM      1  S   UNL     1      -9.502 -10.897  17.891  0.00  0.00    -0.092 S 
ATOM     28  C   UNL     1      -8.939  -9.849  16.697  0.00  0.00    +0.074 A 
ATOM     29  C   UNL     1      -9.500  -8.631  16.679  0.00  0.00    +0.021 A 
ATOM     30  C   UNL     1     -10.470  -8.523  17.716  0.00  0.00    +0.008 A 
ATOM     31  C   UNL     1     -10.573  -9.683  18.452  0.00  0.00    +0.046 A 
ENDBRANCH  24  28
ENDBRANCH  19   8
TORSDOF 3
ENDMDL
MODEL 9
REMARK VINA RESULT:      -6.6     12.784     15.306
REMARK  Name = 11885881
REMARK  3 active torsions:
REMARK  status: ('A' for Active; 'I' for Inactive)
REMARK    1  A    between atoms: N_8  and  C_19
REMARK    2  A    between atoms: C_18  and  C_21
REMARK    3  A    between atoms: C_24  and  C_28
REMARK                            x       y       z     vdW  Elec       q    Type
REMARK                         _______ _______ _______ _____ _____    ______ ____
ROOT
ATOM      3  O   UNL     1       9.599  11.352   5.475  0.00  0.00    -0.266 OA
ATOM      4  O   UNL     1       7.900   6.491   4.965  0.00  0.00    -0.270 OA
ATOM      6  N   UNL     1      10.199   6.490   4.529  0.00  0.00    -0.297 N 
ATOM      7  N   UNL     1      10.984   9.513   5.083  0.00  0.00    -0.310 N 
ATOM      9  C   UNL     1      10.953   8.198   2.884  0.00  0.00    +0.027 C 
ATOM     10  C   UNL     1      12.459   7.505   4.703  0.00  0.00    +0.054 C 
ATOM     11  C   UNL     1      12.404   7.873   3.221  0.00  0.00    +0.018 C 
ATOM     12  C   UNL     1      10.051   6.981   3.160  0.00  0.00    +0.113 C 
ATOM     13  C   UNL     1      10.522   9.430   3.690  0.00  0.00    +0.130 C 
ATOM     14  C   UNL     1      11.588   6.259   4.959  0.00  0.00    +0.117 C 
ATOM     15  C   UNL     1      11.975   8.653   5.569  0.00  0.00    +0.027 A 
ATOM     16  C   UNL     1      12.467   8.820   6.809  0.00  0.00    +0.024 A 
ATOM     17  C   UNL     1      10.458  10.560   5.864  0.00  0.00    +0.273 A 
ATOM     18  C   UNL     1       9.063   6.299   5.319  0.00  0.00    +0.247 C 
ATOM     19  C   UNL     1      11.012  10.695   7.249  0.00  0.00    +0.099 A 
ATOM     20  C   UNL     1      11.972   9.863   7.663  0.00  0.00    +0.030 A 
ENDROOT
BRANCH  18  21
ATOM      2  F   UNL     1       9.792   4.583  10.589  0.00  0.00    -0.205 F 
ATOM     21  C   UNL     1       9.254   5.850   6.701  0.00  0.00    +0.037 A 
ATOM     22  C   UNL     1       9.069   6.744   7.753  0.00  0.00    +0.016 A 
ATOM     23  C   UNL     1       9.620   4.530   6.956  0.00  0.00    +0.016 A 
ATOM     25  C   UNL     1       9.251   6.315   9.068  0.00  0.00    +0.039 A 
ATOM     26  C   UNL     1       9.801   4.102   8.270  0.00  0.00    +0.039 A 
ATOM     27  C   UNL     1       9.617   4.994   9.327  0.00  0.00    +0.123 A 
ENDBRANCH  18  21
BRANCH  19   8
ATOM      5  O   UNL     1       9.080  10.376   9.326  0.00  0.00    -0.269 OA
ATOM      8  N   UNL     1      10.514  11.686   8.044  0.00  0.00    -0.277 N 
ATOM     24  C   UNL     1       9.573  11.465   9.040  0.00  0.00    +0.255 C 
ATOM     32  H   UNL     1      10.706  12.643   7.764  0.00  0.00    +0.155 HD
BRANCH  24  28
ATOM      1  S   UNL     1      10.303  13.897   9.991  0.00  0.00    -0.092 S 
ATOM     28  C   UNL     1       9.166  12.664   9.819  0.00  0.00    +0.074 A 
ATOM     29  C   UNL     1       7.980  12.878  10.408  0.00  0.00    +0.021 A 
ATOM     30  C   UNL     1       7.978  14.146  11.057  0.00  0.00    +0.008 A 
ATOM     31  C   UNL     1       9.179  14.805  10.910  0.00  0.00    +0.046 A 
ENDBRANCH  24  28
ENDBRANCH  19   8
TORSDOF 3
ENDMDL
MODEL 10
REMARK VINA RESULT:      -6.5     27.659     30.328
REMARK  Name = 11885881
REMARK  3 active torsions:
REMARK  status: ('A' for Active; 'I' for Inactive)
REMARK    1  A    between atoms: N_8  and  C_19
REMARK    2  A    between atoms: C_18  and  C_21
REMARK    3  A    between atoms: C_24  and  C_28
REMARK                            x       y       z     vdW  Elec       q    Type
REMARK                         _______ _______ _______ _____ _____    ______ ____
ROOT
ATOM      3  O   UNL     1      -7.236 -10.253  16.525  0.00  0.00    -0.266 OA
ATOM      4  O   UNL     1      -2.490 -10.321  14.465  0.00  0.00    -0.270 OA
ATOM      6  N   UNL     1      -3.585 -12.277  13.793  0.00  0.00    -0.297 N 
ATOM      7  N   UNL     1      -6.477 -11.882  15.033  0.00  0.00    -0.310 N 
ATOM      9  C   UNL     1      -4.645 -13.568  15.637  0.00  0.00    +0.027 C 
ATOM     10  C   UNL     1      -5.646 -13.602  13.388  0.00  0.00    +0.054 C 
ATOM     11  C   UNL     1      -5.327 -14.464  14.609  0.00  0.00    +0.018 C 
ATOM     12  C   UNL     1      -3.349 -12.974  15.057  0.00  0.00    +0.113 C 
ATOM     13  C   UNL     1      -5.633 -12.481  16.077  0.00  0.00    +0.130 C 
ATOM     14  C   UNL     1      -4.338 -13.048  12.790  0.00  0.00    +0.117 C 
ATOM     15  C   UNL     1      -6.565 -12.451  13.758  0.00  0.00    +0.027 A 
ATOM     16  C   UNL     1      -7.429 -11.960  12.855  0.00  0.00    +0.024 A 
ATOM     17  C   UNL     1      -7.265 -10.777  15.411  0.00  0.00    +0.273 A 
ATOM     18  C   UNL     1      -3.119 -10.971  13.631  0.00  0.00    +0.247 C 
ATOM     19  C   UNL     1      -8.195 -10.241  14.367  0.00  0.00    +0.099 A 
ATOM     20  C   UNL     1      -8.259 -10.831  13.169  0.00  0.00    +0.030 A 
ENDROOT
BRANCH  18  21
ATOM      2  F   UNL     1      -4.242  -8.369   8.812  0.00  0.00    -0.205 F 
ATOM     21  C   UNL     1      -3.414 -10.288  12.367  0.00  0.00    +0.037 A 
ATOM     22  C   UNL     1      -4.711  -9.857  12.098  0.00  0.00    +0.016 A 
ATOM     23  C   UNL     1      -2.396 -10.075  11.441  0.00  0.00    +0.016 A 
ATOM     25  C   UNL     1      -4.990  -9.207  10.896  0.00  0.00    +0.039 A 
ATOM     26  C   UNL     1      -2.675  -9.426  10.239  0.00  0.00    +0.039 A 
ATOM     27  C   UNL     1      -3.973  -8.992   9.966  0.00  0.00    +0.123 A 
ENDBRANCH  18  21
BRANCH  19   8
ATOM      5  O   UNL     1     -10.923 -10.299  15.204  0.00  0.00    -0.269 OA
ATOM      8  N   UNL     1      -8.962  -9.159  14.688  0.00  0.00    -0.277 N 
ATOM     24  C   UNL     1     -10.288  -9.255  15.090  0.00  0.00    +0.255 C 
ATOM     32  H   UNL     1      -8.596  -8.244  14.441  0.00  0.00    +0.155 HD
BRANCH  24  28
ATOM      1  S   UNL     1     -12.530  -7.748  14.865  0.00  0.00    -0.092 S 
ATOM     28  C   UNL     1     -10.954  -7.968  15.420  0.00  0.00    +0.074 A 
ATOM     29  C   UNL     1     -10.435  -6.948  16.120  0.00  0.00    +0.021 A 
ATOM     30  C   UNL     1     -11.385  -5.891  16.223  0.00  0.00    +0.008 A 
ATOM     31  C   UNL     1     -12.568  -6.195  15.586  0.00  0.00    +0.046 A 
ENDBRANCH  24  28
ENDBRANCH  19   8
TORSDOF 3
ENDMDL
