MODEL 1
REMARK VINA RESULT:      -7.3      0.000      0.000
REMARK  Name = 11884109
REMARK  9 active torsions:
REMARK  status: ('A' for Active; 'I' for Inactive)
REMARK    1  A    between atoms: S_1  and  N_9
REMARK    2  A    between atoms: S_1  and  C_18
REMARK    3  A    between atoms: O_5  and  C_14
REMARK    4  A    between atoms: O_5  and  C_17
REMARK    5  A    between atoms: N_9  and  C_13
REMARK    6  A    between atoms: N_10  and  C_20
REMARK    7  A    between atoms: C_23  and  C_24
REMARK    8  A    between atoms: C_23  and  C_29
REMARK    9  A    between atoms: C_23  and  C_30
REMARK                            x       y       z     vdW  Elec       q    Type
REMARK                         _______ _______ _______ _____ _____    ______ ____
ROOT
ATOM      3  O   UNL     1     -16.469   4.328  26.771  0.00  0.00    -0.369 OA
ATOM      4  O   UNL     1     -17.780   1.614  26.153  0.00  0.00    -0.368 OA
ATOM     11  C   UNL     1     -16.461   1.959  26.628  0.00  0.00    +0.171 C 
ATOM     12  C   UNL     1     -16.062   3.241  25.924  0.00  0.00    +0.191 C 
ATOM     13  C   UNL     1     -16.525   2.348  28.084  0.00  0.00    +0.133 C 
ATOM     14  C   UNL     1     -16.877   3.186  24.653  0.00  0.00    +0.235 C 
ATOM     15  C   UNL     1     -16.934   3.806  28.025  0.00  0.00    +0.183 C 
ATOM     16  C   UNL     1     -18.160   2.542  25.127  0.00  0.00    +0.207 C 
ENDROOT
BRANCH  13   9
ATOM      9  N   UNL     1     -15.181   2.228  28.698  0.00  0.00    -0.182 NA
ATOM     31  H   UNL     1     -14.683   3.111  28.864  0.00  0.00    +0.149 HD
BRANCH   9   1
ATOM      1  S   UNL     1     -14.912   0.928  29.778  0.00  0.00    +0.065 S 
ATOM      6  O   UNL     1     -13.614   0.341  29.511  0.00  0.00    -0.153 OA
ATOM      7  O   UNL     1     -16.109   0.115  29.839  0.00  0.00    -0.153 OA
BRANCH   1  18
ATOM      2  S   UNL     1     -14.889   3.320  31.460  0.00  0.00    -0.077 S 
ATOM     18  C   UNL     1     -14.790   1.626  31.426  0.00  0.00    +0.142 A 
ATOM     19  C   UNL     1     -14.634   1.054  32.644  0.00  0.00    +0.036 A 
ATOM     21  C   UNL     1     -14.591   2.042  33.668  0.00  0.00    +0.010 A 
ATOM     22  C   UNL     1     -14.719   3.318  33.164  0.00  0.00    +0.047 A 
ENDBRANCH   1  18
ENDBRANCH   9   1
ENDBRANCH  13   9
BRANCH  14   5
ATOM      5  O   UNL     1     -17.099   4.450  24.072  0.00  0.00    -0.442 OA
BRANCH   5  17
ATOM      8  O   UNL     1     -16.583   4.299  21.850  0.00  0.00    -0.226 OA
ATOM     10  N   UNL     1     -15.352   5.656  23.308  0.00  0.00    -0.251 N 
ATOM     17  C   UNL     1     -16.350   4.766  22.958  0.00  0.00    +0.405 C 
ATOM     32  H   UNL     1     -15.320   5.930  24.287  0.00  0.00    +0.158 HD
BRANCH  10  20
ATOM     20  C   UNL     1     -14.368   6.232  22.474  0.00  0.00    +0.036 A 
ATOM     24  C   UNL     1     -12.438   7.362  20.838  0.00  0.00    -0.045 A 
ATOM     25  C   UNL     1     -14.493   7.559  22.093  0.00  0.00    +0.024 A 
ATOM     26  C   UNL     1     -13.298   5.459  22.053  0.00  0.00    +0.024 A 
ATOM     27  C   UNL     1     -13.522   8.127  21.270  0.00  0.00    +0.006 A 
ATOM     28  C   UNL     1     -12.327   6.028  21.229  0.00  0.00    +0.006 A 
BRANCH  24  23
ATOM     23  C   UNL     1     -11.400   7.970  19.956  0.00  0.00    +0.013 C 
ATOM     29  C   UNL     1     -11.585   7.583  18.476  0.00  0.00    +0.012 C 
ATOM     30  C   UNL     1     -11.337   9.503  20.090  0.00  0.00    +0.012 C 
ENDBRANCH  24  23
ENDBRANCH  10  20
ENDBRANCH   5  17
ENDBRANCH  14   5
TORSDOF 7
ENDMDL
MODEL 2
REMARK VINA RESULT:      -7.2      1.731      2.202
REMARK  Name = 11884109
REMARK  9 active torsions:
REMARK  status: ('A' for Active; 'I' for Inactive)
REMARK    1  A    between atoms: S_1  and  N_9
REMARK    2  A    between atoms: S_1  and  C_18
REMARK    3  A    between atoms: O_5  and  C_14
REMARK    4  A    between atoms: O_5  and  C_17
REMARK    5  A    between atoms: N_9  and  C_13
REMARK    6  A    between atoms: N_10  and  C_20
REMARK    7  A    between atoms: C_23  and  C_24
REMARK    8  A    between atoms: C_23  and  C_29
REMARK    9  A    between atoms: C_23  and  C_30
REMARK                            x       y       z     vdW  Elec       q    Type
REMARK                         _______ _______ _______ _____ _____    ______ ____
ROOT
ATOM      3  O   UNL     1     -17.030   4.985  25.373  0.00  0.00    -0.369 OA
ATOM      4  O   UNL     1     -16.574   2.324  23.900  0.00  0.00    -0.368 OA
ATOM     11  C   UNL     1     -15.873   2.947  24.996  0.00  0.00    +0.171 C 
ATOM     12  C   UNL     1     -15.870   4.439  24.724  0.00  0.00    +0.191 C 
ATOM     13  C   UNL     1     -16.677   2.810  26.265  0.00  0.00    +0.133 C 
ATOM     14  C   UNL     1     -15.991   4.499  23.219  0.00  0.00    +0.235 C 
ATOM     15  C   UNL     1     -17.653   3.967  26.171  0.00  0.00    +0.183 C 
ATOM     16  C   UNL     1     -16.900   3.327  22.927  0.00  0.00    +0.207 C 
ENDROOT
BRANCH  13   9
ATOM      9  N   UNL     1     -15.797   2.991  27.444  0.00  0.00    -0.182 NA
ATOM     31  H   UNL     1     -15.408   3.933  27.573  0.00  0.00    +0.149 HD
BRANCH   9   1
ATOM      1  S   UNL     1     -16.123   2.047  28.833  0.00  0.00    +0.065 S 
ATOM      6  O   UNL     1     -15.701   0.680  28.597  0.00  0.00    -0.153 OA
ATOM      7  O   UNL     1     -17.458   2.354  29.304  0.00  0.00    -0.153 OA
BRANCH   1  18
ATOM      2  S   UNL     1     -13.970   1.493  30.732  0.00  0.00    -0.077 S 
ATOM     18  C   UNL     1     -15.061   2.653  30.145  0.00  0.00    +0.142 A 
ATOM     19  C   UNL     1     -14.968   3.860  30.752  0.00  0.00    +0.036 A 
ATOM     21  C   UNL     1     -13.955   3.850  31.754  0.00  0.00    +0.010 A 
ATOM     22  C   UNL     1     -13.332   2.625  31.848  0.00  0.00    +0.047 A 
ENDBRANCH   1  18
ENDBRANCH   9   1
ENDBRANCH  13   9
BRANCH  14   5
ATOM      5  O   UNL     1     -16.522   5.715  22.746  0.00  0.00    -0.442 OA
BRANCH   5  17
ATOM      8  O   UNL     1     -15.607   7.808  22.854  0.00  0.00    -0.226 OA
ATOM     10  N   UNL     1     -14.778   6.178  21.392  0.00  0.00    -0.251 N 
ATOM     17  C   UNL     1     -15.618   6.685  22.365  0.00  0.00    +0.405 C 
ATOM     32  H   UNL     1     -14.944   5.214  21.114  0.00  0.00    +0.158 HD
BRANCH  10  20
ATOM     20  C   UNL     1     -13.715   6.835  20.732  0.00  0.00    +0.036 A 
ATOM     24  C   UNL     1     -11.629   8.123  19.438  0.00  0.00    -0.045 A 
ATOM     25  C   UNL     1     -13.993   7.672  19.663  0.00  0.00    +0.024 A 
ATOM     26  C   UNL     1     -12.415   6.629  21.167  0.00  0.00    +0.024 A 
ATOM     27  C   UNL     1     -12.944   8.320  19.012  0.00  0.00    +0.006 A 
ATOM     28  C   UNL     1     -11.365   7.276  20.515  0.00  0.00    +0.006 A 
BRANCH  24  23
ATOM     23  C   UNL     1     -10.507   8.815  18.741  0.00  0.00    +0.013 C 
ATOM     29  C   UNL     1     -10.447   8.471  17.240  0.00  0.00    +0.012 C 
ATOM     30  C   UNL     1     -10.552  10.343  18.925  0.00  0.00    +0.012 C 
ENDBRANCH  24  23
ENDBRANCH  10  20
ENDBRANCH   5  17
ENDBRANCH  14   5
TORSDOF 7
ENDMDL
MODEL 3
REMARK VINA RESULT:      -6.9     31.366     34.511
REMARK  Name = 11884109
REMARK  9 active torsions:
REMARK  status: ('A' for Active; 'I' for Inactive)
REMARK    1  A    between atoms: S_1  and  N_9
REMARK    2  A    between atoms: S_1  and  C_18
REMARK    3  A    between atoms: O_5  and  C_14
REMARK    4  A    between atoms: O_5  and  C_17
REMARK    5  A    between atoms: N_9  and  C_13
REMARK    6  A    between atoms: N_10  and  C_20
REMARK    7  A    between atoms: C_23  and  C_24
REMARK    8  A    between atoms: C_23  and  C_29
REMARK    9  A    between atoms: C_23  and  C_30
REMARK                            x       y       z     vdW  Elec       q    Type
REMARK                         _______ _______ _______ _____ _____    ______ ____
ROOT
ATOM      3  O   UNL     1      15.832   6.568  21.514  0.00  0.00    -0.369 OA
ATOM      4  O   UNL     1      16.392   9.370  20.375  0.00  0.00    -0.368 OA
ATOM     11  C   UNL     1      15.683   8.236  19.832  0.00  0.00    +0.171 C 
ATOM     12  C   UNL     1      16.431   6.995  20.280  0.00  0.00    +0.191 C 
ATOM     13  C   UNL     1      14.335   8.107  20.496  0.00  0.00    +0.133 C 
ATOM     14  C   UNL     1      17.834   7.515  20.489  0.00  0.00    +0.235 C 
ATOM     15  C   UNL     1      14.657   7.352  21.771  0.00  0.00    +0.183 C 
ATOM     16  C   UNL     1      17.581   8.904  21.029  0.00  0.00    +0.207 C 
ENDROOT
BRANCH  13   9
ATOM      9  N   UNL     1      13.429   7.296  19.648  0.00  0.00    -0.182 NA
ATOM     31  H   UNL     1      13.181   6.369  20.017  0.00  0.00    +0.149 HD
BRANCH   9   1
ATOM      1  S   UNL     1      12.281   8.124  18.688  0.00  0.00    +0.065 S 
ATOM      6  O   UNL     1      11.324   8.790  19.548  0.00  0.00    -0.153 OA
ATOM      7  O   UNL     1      11.851   7.250  17.616  0.00  0.00    -0.153 OA
BRANCH   1  18
ATOM      2  S   UNL     1      13.904   8.943  16.398  0.00  0.00    -0.077 S 
ATOM     18  C   UNL     1      13.154   9.440  17.837  0.00  0.00    +0.142 A 
ATOM     19  C   UNL     1      13.325  10.752  18.128  0.00  0.00    +0.036 A 
ATOM     21  C   UNL     1      14.110  11.396  17.130  0.00  0.00    +0.010 A 
ATOM     22  C   UNL     1      14.492  10.529  16.130  0.00  0.00    +0.047 A 
ENDBRANCH   1  18
ENDBRANCH   9   1
ENDBRANCH  13   9
BRANCH  14   5
ATOM      5  O   UNL     1      18.598   6.730  21.377  0.00  0.00    -0.442 OA
BRANCH   5  17
ATOM      8  O   UNL     1      19.061   5.078  19.865  0.00  0.00    -0.226 OA
ATOM     10  N   UNL     1      20.615   5.728  21.490  0.00  0.00    -0.251 N 
ATOM     17  C   UNL     1      19.409   5.765  20.817  0.00  0.00    +0.405 C 
ATOM     32  H   UNL     1      20.719   6.383  22.262  0.00  0.00    +0.158 HD
BRANCH  10  20
ATOM     20  C   UNL     1      21.725   4.888  21.242  0.00  0.00    +0.036 A 
ATOM     24  C   UNL     1      23.901   3.242  20.755  0.00  0.00    -0.045 A 
ATOM     25  C   UNL     1      22.815   5.391  20.550  0.00  0.00    +0.024 A 
ATOM     26  C   UNL     1      21.700   3.578  21.695  0.00  0.00    +0.024 A 
ATOM     27  C   UNL     1      23.910   4.563  20.305  0.00  0.00    +0.006 A 
ATOM     28  C   UNL     1      22.795   2.750  21.449  0.00  0.00    +0.006 A 
BRANCH  24  23
ATOM     23  C   UNL     1      25.071   2.356  20.491  0.00  0.00    +0.013 C 
ATOM     29  C   UNL     1      26.378   3.151  20.299  0.00  0.00    +0.012 C 
ATOM     30  C   UNL     1      25.264   1.292  21.587  0.00  0.00    +0.012 C 
ENDBRANCH  24  23
ENDBRANCH  10  20
ENDBRANCH   5  17
ENDBRANCH  14   5
TORSDOF 7
ENDMDL
MODEL 4
REMARK VINA RESULT:      -6.8     15.591     17.075
REMARK  Name = 11884109
REMARK  9 active torsions:
REMARK  status: ('A' for Active; 'I' for Inactive)
REMARK    1  A    between atoms: S_1  and  N_9
REMARK    2  A    between atoms: S_1  and  C_18
REMARK    3  A    between atoms: O_5  and  C_14
REMARK    4  A    between atoms: O_5  and  C_17
REMARK    5  A    between atoms: N_9  and  C_13
REMARK    6  A    between atoms: N_10  and  C_20
REMARK    7  A    between atoms: C_23  and  C_24
REMARK    8  A    between atoms: C_23  and  C_29
REMARK    9  A    between atoms: C_23  and  C_30
REMARK                            x       y       z     vdW  Elec       q    Type
REMARK                         _______ _______ _______ _____ _____    ______ ____
ROOT
ATOM      3  O   UNL     1     -10.907  -8.327  17.786  0.00  0.00    -0.369 OA
ATOM      4  O   UNL     1      -9.734  -9.015  15.027  0.00  0.00    -0.368 OA
ATOM     11  C   UNL     1      -9.117  -8.541  16.242  0.00  0.00    +0.171 C 
ATOM     12  C   UNL     1     -10.090  -7.568  16.879  0.00  0.00    +0.191 C 
ATOM     13  C   UNL     1      -9.021  -9.667  17.242  0.00  0.00    +0.133 C 
ATOM     14  C   UNL     1     -10.884  -7.073  15.692  0.00  0.00    +0.235 C 
ATOM     15  C   UNL     1     -10.394  -9.664  17.885  0.00  0.00    +0.183 C 
ATOM     16  C   UNL     1     -10.968  -8.311  14.828  0.00  0.00    +0.207 C 
ENDROOT
BRANCH  13   9
ATOM      9  N   UNL     1      -7.990  -9.352  18.260  0.00  0.00    -0.182 NA
ATOM     31  H   UNL     1      -8.221  -8.592  18.912  0.00  0.00    +0.149 HD
BRANCH   9   1
ATOM      1  S   UNL     1      -7.006 -10.634  18.821  0.00  0.00    +0.065 S 
ATOM      6  O   UNL     1      -7.680 -11.896  18.588  0.00  0.00    -0.153 OA
ATOM      7  O   UNL     1      -6.487 -10.287  20.128  0.00  0.00    -0.153 OA
BRANCH   1  18
ATOM      2  S   UNL     1      -4.324 -11.701  18.359  0.00  0.00    -0.077 S 
ATOM     18  C   UNL     1      -5.545 -10.674  17.782  0.00  0.00    +0.142 A 
ATOM     19  C   UNL     1      -5.237 -10.040  16.625  0.00  0.00    +0.036 A 
ATOM     21  C   UNL     1      -3.934 -10.403  16.177  0.00  0.00    +0.010 A 
ATOM     22  C   UNL     1      -3.325 -11.301  17.027  0.00  0.00    +0.047 A 
ENDBRANCH   1  18
ENDBRANCH   9   1
ENDBRANCH  13   9
BRANCH  14   5
ATOM      5  O   UNL     1     -12.157  -6.576  16.035  0.00  0.00    -0.442 OA
BRANCH   5  17
ATOM      8  O   UNL     1     -14.012  -6.886  14.734  0.00  0.00    -0.226 OA
ATOM     10  N   UNL     1     -12.516  -5.128  14.343  0.00  0.00    -0.251 N 
ATOM     17  C   UNL     1     -12.999  -6.247  14.994  0.00  0.00    +0.405 C 
ATOM     32  H   UNL     1     -11.652  -4.734  14.710  0.00  0.00    +0.158 HD
BRANCH  10  20
ATOM     20  C   UNL     1     -13.071  -4.461  13.228  0.00  0.00    +0.036 A 
ATOM     24  C   UNL     1     -14.161  -3.154  11.040  0.00  0.00    -0.045 A 
ATOM     25  C   UNL     1     -12.322  -4.338  12.068  0.00  0.00    +0.024 A 
ATOM     26  C   UNL     1     -14.354  -3.944  13.316  0.00  0.00    +0.024 A 
ATOM     27  C   UNL     1     -12.871  -3.680  10.968  0.00  0.00    +0.006 A 
ATOM     28  C   UNL     1     -14.902  -3.286  12.215  0.00  0.00    +0.006 A 
BRANCH  24  23
ATOM     23  C   UNL     1     -14.747  -2.449   9.863  0.00  0.00    +0.013 C 
ATOM     29  C   UNL     1     -14.865  -3.365   8.630  0.00  0.00    +0.012 C 
ATOM     30  C   UNL     1     -16.116  -1.817  10.176  0.00  0.00    +0.012 C 
ENDBRANCH  24  23
ENDBRANCH  10  20
ENDBRANCH   5  17
ENDBRANCH  14   5
TORSDOF 7
ENDMDL
MODEL 5
REMARK VINA RESULT:      -6.8     30.273     33.184
REMARK  Name = 11884109
REMARK  9 active torsions:
REMARK  status: ('A' for Active; 'I' for Inactive)
REMARK    1  A    between atoms: S_1  and  N_9
REMARK    2  A    between atoms: S_1  and  C_18
REMARK    3  A    between atoms: O_5  and  C_14
REMARK    4  A    between atoms: O_5  and  C_17
REMARK    5  A    between atoms: N_9  and  C_13
REMARK    6  A    between atoms: N_10  and  C_20
REMARK    7  A    between atoms: C_23  and  C_24
REMARK    8  A    between atoms: C_23  and  C_29
REMARK    9  A    between atoms: C_23  and  C_30
REMARK                            x       y       z     vdW  Elec       q    Type
REMARK                         _______ _______ _______ _____ _____    ______ ____
ROOT
ATOM      3  O   UNL     1      15.751   8.292  21.449  0.00  0.00    -0.369 OA
ATOM      4  O   UNL     1      14.627   6.877  18.959  0.00  0.00    -0.368 OA
ATOM     11  C   UNL     1      14.191   6.892  20.334  0.00  0.00    +0.171 C 
ATOM     12  C   UNL     1      15.441   6.912  21.192  0.00  0.00    +0.191 C 
ATOM     13  C   UNL     1      13.516   8.206  20.644  0.00  0.00    +0.133 C 
ATOM     14  C   UNL     1      16.467   6.266  20.292  0.00  0.00    +0.235 C 
ATOM     15  C   UNL     1      14.685   9.119  20.958  0.00  0.00    +0.183 C 
ATOM     16  C   UNL     1      16.058   6.774  18.928  0.00  0.00    +0.207 C 
ENDROOT
BRANCH  13   9
ATOM      9  N   UNL     1      12.656   8.062  21.843  0.00  0.00    -0.182 NA
ATOM     31  H   UNL     1      13.146   8.037  22.746  0.00  0.00    +0.149 HD
BRANCH   9   1
ATOM      1  S   UNL     1      11.090   8.747  21.787  0.00  0.00    +0.065 S 
ATOM      6  O   UNL     1      10.288   8.207  22.867  0.00  0.00    -0.153 OA
ATOM      7  O   UNL     1      10.620   8.728  20.417  0.00  0.00    -0.153 OA
BRANCH   1  18
ATOM      2  S   UNL     1      10.942  10.892  23.769  0.00  0.00    -0.077 S 
ATOM     18  C   UNL     1      11.263  10.495  22.150  0.00  0.00    +0.142 A 
ATOM     19  C   UNL     1      11.601  11.553  21.375  0.00  0.00    +0.036 A 
ATOM     21  C   UNL     1      11.601  12.759  22.133  0.00  0.00    +0.010 A 
ATOM     22  C   UNL     1      11.261  12.544  23.451  0.00  0.00    +0.047 A 
ENDBRANCH   1  18
ENDBRANCH   9   1
ENDBRANCH  13   9
BRANCH  14   5
ATOM      5  O   UNL     1      17.795   6.613  20.612  0.00  0.00    -0.442 OA
BRANCH   5  17
ATOM      8  O   UNL     1      18.624   4.916  19.324  0.00  0.00    -0.226 OA
ATOM     10  N   UNL     1      19.913   5.937  20.990  0.00  0.00    -0.251 N 
ATOM     17  C   UNL     1      18.782   5.732  20.223  0.00  0.00    +0.405 C 
ATOM     32  H   UNL     1      19.852   6.669  21.694  0.00  0.00    +0.158 HD
BRANCH  10  20
ATOM     20  C   UNL     1      21.148   5.252  20.920  0.00  0.00    +0.036 A 
ATOM     24  C   UNL     1      23.569   3.910  20.782  0.00  0.00    -0.045 A 
ATOM     25  C   UNL     1      21.197   3.906  21.246  0.00  0.00    +0.024 A 
ATOM     26  C   UNL     1      22.284   5.941  20.526  0.00  0.00    +0.024 A 
ATOM     27  C   UNL     1      22.415   3.231  21.177  0.00  0.00    +0.006 A 
ATOM     28  C   UNL     1      23.503   5.265  20.458  0.00  0.00    +0.006 A 
BRANCH  24  23
ATOM     23  C   UNL     1      24.872   3.188  20.710  0.00  0.00    +0.013 C 
ATOM     29  C   UNL     1      24.749   1.712  21.134  0.00  0.00    +0.012 C 
ATOM     30  C   UNL     1      25.519   3.278  19.315  0.00  0.00    +0.012 C 
ENDBRANCH  24  23
ENDBRANCH  10  20
ENDBRANCH   5  17
ENDBRANCH  14   5
TORSDOF 7
ENDMDL
MODEL 6
REMARK VINA RESULT:      -6.8     19.126     21.811
REMARK  Name = 11884109
REMARK  9 active torsions:
REMARK  status: ('A' for Active; 'I' for Inactive)
REMARK    1  A    between atoms: S_1  and  N_9
REMARK    2  A    between atoms: S_1  and  C_18
REMARK    3  A    between atoms: O_5  and  C_14
REMARK    4  A    between atoms: O_5  and  C_17
REMARK    5  A    between atoms: N_9  and  C_13
REMARK    6  A    between atoms: N_10  and  C_20
REMARK    7  A    between atoms: C_23  and  C_24
REMARK    8  A    between atoms: C_23  and  C_29
REMARK    9  A    between atoms: C_23  and  C_30
REMARK                            x       y       z     vdW  Elec       q    Type
REMARK                         _______ _______ _______ _____ _____    ______ ____
ROOT
ATOM      3  O   UNL     1      -3.124 -10.414  16.766  0.00  0.00    -0.369 OA
ATOM      4  O   UNL     1      -4.453 -12.912  15.559  0.00  0.00    -0.368 OA
ATOM     11  C   UNL     1      -4.292 -11.570  15.053  0.00  0.00    +0.171 C 
ATOM     12  C   UNL     1      -4.442 -10.633  16.236  0.00  0.00    +0.191 C 
ATOM     13  C   UNL     1      -2.868 -11.359  14.600  0.00  0.00    +0.133 C 
ATOM     14  C   UNL     1      -5.300 -11.437  17.185  0.00  0.00    +0.235 C 
ATOM     15  C   UNL     1      -2.153 -11.007  15.890  0.00  0.00    +0.183 C 
ATOM     16  C   UNL     1      -4.800 -12.845  16.949  0.00  0.00    +0.207 C 
ENDROOT
BRANCH  13   9
ATOM      9  N   UNL     1      -2.801 -10.214  13.661  0.00  0.00    -0.182 NA
ATOM     31  H   UNL     1      -2.501  -9.318  14.066  0.00  0.00    +0.149 HD
BRANCH   9   1
ATOM      1  S   UNL     1      -2.400 -10.543  12.031  0.00  0.00    +0.065 S 
ATOM      6  O   UNL     1      -2.553 -11.962  11.774  0.00  0.00    -0.153 OA
ATOM      7  O   UNL     1      -1.175  -9.845  11.700  0.00  0.00    -0.153 OA
BRANCH   1  18
ATOM      2  S   UNL     1      -5.208  -9.828  11.640  0.00  0.00    -0.077 S 
ATOM     18  C   UNL     1      -3.635  -9.738  11.010  0.00  0.00    +0.142 A 
ATOM     19  C   UNL     1      -3.546  -9.073   9.832  0.00  0.00    +0.036 A 
ATOM     21  C   UNL     1      -4.825  -8.608   9.412  0.00  0.00    +0.010 A 
ATOM     22  C   UNL     1      -5.819  -8.949  10.303  0.00  0.00    +0.047 A 
ENDBRANCH   1  18
ENDBRANCH   9   1
ENDBRANCH  13   9
BRANCH  14   5
ATOM      5  O   UNL     1      -5.168 -11.045  18.532  0.00  0.00    -0.442 OA
BRANCH   5  17
ATOM      8  O   UNL     1      -6.347 -10.435  20.393  0.00  0.00    -0.226 OA
ATOM     10  N   UNL     1      -7.394 -10.747  18.323  0.00  0.00    -0.251 N 
ATOM     17  C   UNL     1      -6.328 -10.713  19.201  0.00  0.00    +0.405 C 
ATOM     32  H   UNL     1      -7.177 -11.002  17.362  0.00  0.00    +0.158 HD
BRANCH  10  20
ATOM     20  C   UNL     1      -8.754 -10.474  18.594  0.00  0.00    +0.036 A 
ATOM     24  C   UNL     1     -11.421  -9.938  19.127  0.00  0.00    -0.045 A 
ATOM     25  C   UNL     1      -9.381 -11.124  19.646  0.00  0.00    +0.024 A 
ATOM     26  C   UNL     1      -9.434  -9.560  17.804  0.00  0.00    +0.024 A 
ATOM     27  C   UNL     1     -10.722 -10.855  19.913  0.00  0.00    +0.006 A 
ATOM     28  C   UNL     1     -10.776  -9.291  18.072  0.00  0.00    +0.006 A 
BRANCH  24  23
ATOM     23  C   UNL     1     -12.856  -9.650  19.413  0.00  0.00    +0.013 C 
ATOM     29  C   UNL     1     -13.790 -10.158  18.298  0.00  0.00    +0.012 C 
ATOM     30  C   UNL     1     -13.311 -10.214  20.772  0.00  0.00    +0.012 C 
ENDBRANCH  24  23
ENDBRANCH  10  20
ENDBRANCH   5  17
ENDBRANCH  14   5
TORSDOF 7
ENDMDL
MODEL 7
REMARK VINA RESULT:      -6.7     18.512     20.019
REMARK  Name = 11884109
REMARK  9 active torsions:
REMARK  status: ('A' for Active; 'I' for Inactive)
REMARK    1  A    between atoms: S_1  and  N_9
REMARK    2  A    between atoms: S_1  and  C_18
REMARK    3  A    between atoms: O_5  and  C_14
REMARK    4  A    between atoms: O_5  and  C_17
REMARK    5  A    between atoms: N_9  and  C_13
REMARK    6  A    between atoms: N_10  and  C_20
REMARK    7  A    between atoms: C_23  and  C_24
REMARK    8  A    between atoms: C_23  and  C_29
REMARK    9  A    between atoms: C_23  and  C_30
REMARK                            x       y       z     vdW  Elec       q    Type
REMARK                         _______ _______ _______ _____ _____    ______ ____
ROOT
ATOM      3  O   UNL     1      -7.509 -13.203  18.397  0.00  0.00    -0.369 OA
ATOM      4  O   UNL     1      -6.965 -10.713  20.120  0.00  0.00    -0.368 OA
ATOM     11  C   UNL     1      -7.889 -10.949  19.036  0.00  0.00    +0.171 C 
ATOM     12  C   UNL     1      -7.180 -11.849  18.043  0.00  0.00    +0.191 C 
ATOM     13  C   UNL     1      -9.048 -11.783  19.521  0.00  0.00    +0.133 C 
ATOM     14  C   UNL     1      -5.724 -11.542  18.301  0.00  0.00    +0.235 C 
ATOM     15  C   UNL     1      -8.508 -13.197  19.428  0.00  0.00    +0.183 C 
ATOM     16  C   UNL     1      -5.706 -11.320  19.796  0.00  0.00    +0.207 C 
ENDROOT
BRANCH  13   9
ATOM      9  N   UNL     1     -10.203 -11.626  18.605  0.00  0.00    -0.182 NA
ATOM     31  H   UNL     1     -10.522 -12.483  18.136  0.00  0.00    +0.149 HD
BRANCH   9   1
ATOM      1  S   UNL     1     -11.360 -10.424  18.980  0.00  0.00    +0.065 S 
ATOM      6  O   UNL     1     -11.059  -9.853  20.278  0.00  0.00    -0.153 OA
ATOM      7  O   UNL     1     -12.680 -10.932  18.668  0.00  0.00    -0.153 OA
BRANCH   1  18
ATOM      2  S   UNL     1     -12.464  -8.844  16.782  0.00  0.00    -0.077 S 
ATOM     18  C   UNL     1     -11.133  -9.087  17.807  0.00  0.00    +0.142 A 
ATOM     19  C   UNL     1     -10.101  -8.237  17.588  0.00  0.00    +0.036 A 
ATOM     21  C   UNL     1     -10.401  -7.335  16.528  0.00  0.00    +0.010 A 
ATOM     22  C   UNL     1     -11.654  -7.554  15.999  0.00  0.00    +0.047 A 
ENDBRANCH   1  18
ENDBRANCH   9   1
ENDBRANCH  13   9
BRANCH  14   5
ATOM      5  O   UNL     1      -4.852 -12.576  17.905  0.00  0.00    -0.442 OA
BRANCH   5  17
ATOM      8  O   UNL     1      -4.593 -13.651  15.904  0.00  0.00    -0.226 OA
ATOM     10  N   UNL     1      -4.083 -11.380  16.154  0.00  0.00    -0.251 N 
ATOM     17  C   UNL     1      -4.509 -12.627  16.571  0.00  0.00    +0.405 C 
ATOM     32  H   UNL     1      -4.084 -10.647  16.860  0.00  0.00    +0.158 HD
BRANCH  10  20
ATOM     20  C   UNL     1      -3.644 -10.995  14.867  0.00  0.00    +0.036 A 
ATOM     24  C   UNL     1      -2.781 -10.241  12.344  0.00  0.00    -0.045 A 
ATOM     25  C   UNL     1      -2.294 -10.761  14.652  0.00  0.00    +0.024 A 
ATOM     26  C   UNL     1      -4.570 -10.859  13.846  0.00  0.00    +0.024 A 
ATOM     27  C   UNL     1      -1.861 -10.382  13.383  0.00  0.00    +0.006 A 
ATOM     28  C   UNL     1      -4.136 -10.479  12.576  0.00  0.00    +0.006 A 
BRANCH  24  23
ATOM     23  C   UNL     1      -2.317  -9.834  10.986  0.00  0.00    +0.013 C 
ATOM     29  C   UNL     1      -3.399  -9.067  10.201  0.00  0.00    +0.012 C 
ATOM     30  C   UNL     1      -1.019  -9.006  11.030  0.00  0.00    +0.012 C 
ENDBRANCH  24  23
ENDBRANCH  10  20
ENDBRANCH   5  17
ENDBRANCH  14   5
TORSDOF 7
ENDMDL
MODEL 8
REMARK VINA RESULT:      -6.5     18.433     20.983
REMARK  Name = 11884109
REMARK  9 active torsions:
REMARK  status: ('A' for Active; 'I' for Inactive)
REMARK    1  A    between atoms: S_1  and  N_9
REMARK    2  A    between atoms: S_1  and  C_18
REMARK    3  A    between atoms: O_5  and  C_14
REMARK    4  A    between atoms: O_5  and  C_17
REMARK    5  A    between atoms: N_9  and  C_13
REMARK    6  A    between atoms: N_10  and  C_20
REMARK    7  A    between atoms: C_23  and  C_24
REMARK    8  A    between atoms: C_23  and  C_29
REMARK    9  A    between atoms: C_23  and  C_30
REMARK                            x       y       z     vdW  Elec       q    Type
REMARK                         _______ _______ _______ _____ _____    ______ ____
ROOT
ATOM      3  O   UNL     1      -5.576 -10.258  16.561  0.00  0.00    -0.369 OA
ATOM      4  O   UNL     1      -4.374 -11.768  18.957  0.00  0.00    -0.368 OA
ATOM     11  C   UNL     1      -4.536 -12.137  17.572  0.00  0.00    +0.171 C 
ATOM     12  C   UNL     1      -5.859 -11.555  17.113  0.00  0.00    +0.191 C 
ATOM     13  C   UNL     1      -3.511 -11.423  16.726  0.00  0.00    +0.133 C 
ATOM     14  C   UNL     1      -6.639 -11.456  18.402  0.00  0.00    +0.235 C 
ATOM     15  C   UNL     1      -4.155 -10.071  16.487  0.00  0.00    +0.183 C 
ATOM     16  C   UNL     1      -5.562 -11.094  19.399  0.00  0.00    +0.207 C 
ENDROOT
BRANCH  13   9
ATOM      9  N   UNL     1      -3.338 -12.131  15.435  0.00  0.00    -0.182 NA
ATOM     31  H   UNL     1      -4.204 -12.365  14.932  0.00  0.00    +0.149 HD
BRANCH   9   1
ATOM      1  S   UNL     1      -1.933 -11.789  14.521  0.00  0.00    +0.065 S 
ATOM      6  O   UNL     1      -1.344 -13.031  14.060  0.00  0.00    -0.153 OA
ATOM      7  O   UNL     1      -1.147 -10.798  15.226  0.00  0.00    -0.153 OA
BRANCH   1  18
ATOM      2  S   UNL     1      -4.149 -10.839  12.867  0.00  0.00    -0.077 S 
ATOM     18  C   UNL     1      -2.463 -10.933  13.037  0.00  0.00    +0.142 A 
ATOM     19  C   UNL     1      -1.770 -10.349  12.030  0.00  0.00    +0.036 A 
ATOM     21  C   UNL     1      -2.653  -9.792  11.061  0.00  0.00    +0.010 A 
ATOM     22  C   UNL     1      -3.976  -9.987  11.392  0.00  0.00    +0.047 A 
ENDBRANCH   1  18
ENDBRANCH   9   1
ENDBRANCH  13   9
BRANCH  14   5
ATOM      5  O   UNL     1      -7.671 -10.497  18.364  0.00  0.00    -0.442 OA
BRANCH   5  17
ATOM      8  O   UNL     1      -9.117 -12.008  19.289  0.00  0.00    -0.226 OA
ATOM     10  N   UNL     1      -9.788  -9.828  18.761  0.00  0.00    -0.251 N 
ATOM     17  C   UNL     1      -8.902 -10.885  18.851  0.00  0.00    +0.405 C 
ATOM     32  H   UNL     1      -9.420  -8.966  18.367  0.00  0.00    +0.158 HD
BRANCH  10  20
ATOM     20  C   UNL     1     -11.147  -9.797  19.149  0.00  0.00    +0.036 A 
ATOM     24  C   UNL     1     -13.812  -9.736  19.908  0.00  0.00    -0.045 A 
ATOM     25  C   UNL     1     -11.475  -9.942  20.487  0.00  0.00    +0.024 A 
ATOM     26  C   UNL     1     -12.125  -9.623  18.182  0.00  0.00    +0.024 A 
ATOM     27  C   UNL     1     -12.816  -9.911  20.869  0.00  0.00    +0.006 A 
ATOM     28  C   UNL     1     -13.466  -9.593  18.564  0.00  0.00    +0.006 A 
BRANCH  24  23
ATOM     23  C   UNL     1     -15.246  -9.705  20.317  0.00  0.00    +0.013 C 
ATOM     29  C   UNL     1     -15.620 -10.881  21.240  0.00  0.00    +0.012 C 
ATOM     30  C   UNL     1     -15.640  -8.373  20.983  0.00  0.00    +0.012 C 
ENDBRANCH  24  23
ENDBRANCH  10  20
ENDBRANCH   5  17
ENDBRANCH  14   5
TORSDOF 7
ENDMDL
MODEL 9
REMARK VINA RESULT:      -6.5     19.140     21.194
REMARK  Name = 11884109
REMARK  9 active torsions:
REMARK  status: ('A' for Active; 'I' for Inactive)
REMARK    1  A    between atoms: S_1  and  N_9
REMARK    2  A    between atoms: S_1  and  C_18
REMARK    3  A    between atoms: O_5  and  C_14
REMARK    4  A    between atoms: O_5  and  C_17
REMARK    5  A    between atoms: N_9  and  C_13
REMARK    6  A    between atoms: N_10  and  C_20
REMARK    7  A    between atoms: C_23  and  C_24
REMARK    8  A    between atoms: C_23  and  C_29
REMARK    9  A    between atoms: C_23  and  C_30
REMARK                            x       y       z     vdW  Elec       q    Type
REMARK                         _______ _______ _______ _____ _____    ______ ____
ROOT
ATOM      3  O   UNL     1      -6.253 -12.572  16.328  0.00  0.00    -0.369 OA
ATOM      4  O   UNL     1      -4.435 -10.647  17.894  0.00  0.00    -0.368 OA
ATOM     11  C   UNL     1      -4.163 -11.901  17.233  0.00  0.00    +0.171 C 
ATOM     12  C   UNL     1      -5.378 -12.783  17.449  0.00  0.00    +0.191 C 
ATOM     13  C   UNL     1      -4.123 -11.696  15.739  0.00  0.00    +0.133 C 
ATOM     14  C   UNL     1      -5.963 -12.229  18.727  0.00  0.00    +0.235 C 
ATOM     15  C   UNL     1      -5.588 -11.756  15.351  0.00  0.00    +0.183 C 
ATOM     16  C   UNL     1      -5.686 -10.750  18.588  0.00  0.00    +0.207 C 
ENDROOT
BRANCH  13   9
ATOM      9  N   UNL     1      -3.387 -12.810  15.095  0.00  0.00    -0.182 NA
ATOM     31  H   UNL     1      -3.965 -13.582  14.737  0.00  0.00    +0.149 HD
BRANCH   9   1
ATOM      1  S   UNL     1      -1.932 -12.438  14.278  0.00  0.00    +0.065 S 
ATOM      6  O   UNL     1      -1.316 -13.662  13.806  0.00  0.00    -0.153 OA
ATOM      7  O   UNL     1      -1.188 -11.474  15.064  0.00  0.00    -0.153 OA
BRANCH   1  18
ATOM      2  S   UNL     1      -3.544 -12.299  11.843  0.00  0.00    -0.077 S 
ATOM     18  C   UNL     1      -2.374 -11.525  12.799  0.00  0.00    +0.142 A 
ATOM     19  C   UNL     1      -1.949 -10.338  12.304  0.00  0.00    +0.036 A 
ATOM     21  C   UNL     1      -2.607 -10.033  11.078  0.00  0.00    +0.010 A 
ATOM     22  C   UNL     1      -3.501 -11.014  10.711  0.00  0.00    +0.047 A 
ENDBRANCH   1  18
ENDBRANCH   9   1
ENDBRANCH  13   9
BRANCH  14   5
ATOM      5  O   UNL     1      -7.337 -12.501  18.880  0.00  0.00    -0.442 OA
BRANCH   5  17
ATOM      8  O   UNL     1      -8.499 -10.913  20.044  0.00  0.00    -0.226 OA
ATOM     10  N   UNL     1      -8.572 -11.022  17.707  0.00  0.00    -0.251 N 
ATOM     17  C   UNL     1      -8.182 -11.414  18.973  0.00  0.00    +0.405 C 
ATOM     32  H   UNL     1      -8.199 -11.567  16.934  0.00  0.00    +0.158 HD
BRANCH  10  20
ATOM     20  C   UNL     1      -9.429  -9.956  17.352  0.00  0.00    +0.036 A 
ATOM     24  C   UNL     1     -11.110  -7.865  16.656  0.00  0.00    -0.045 A 
ATOM     25  C   UNL     1      -8.881  -8.758  16.923  0.00  0.00    +0.024 A 
ATOM     26  C   UNL     1     -10.801 -10.130  17.440  0.00  0.00    +0.024 A 
ATOM     27  C   UNL     1      -9.726  -7.706  16.573  0.00  0.00    +0.006 A 
ATOM     28  C   UNL     1     -11.647  -9.077  17.090  0.00  0.00    +0.006 A 
BRANCH  24  23
ATOM     23  C   UNL     1     -12.014  -6.739  16.282  0.00  0.00    +0.013 C 
ATOM     29  C   UNL     1     -11.451  -5.893  15.124  0.00  0.00    +0.012 C 
ATOM     30  C   UNL     1     -13.437  -7.216  15.937  0.00  0.00    +0.012 C 
ENDBRANCH  24  23
ENDBRANCH  10  20
ENDBRANCH   5  17
ENDBRANCH  14   5
TORSDOF 7
ENDMDL
MODEL 10
REMARK VINA RESULT:      -6.4     20.345     22.017
REMARK  Name = 11884109
REMARK  9 active torsions:
REMARK  status: ('A' for Active; 'I' for Inactive)
REMARK    1  A    between atoms: S_1  and  N_9
REMARK    2  A    between atoms: S_1  and  C_18
REMARK    3  A    between atoms: O_5  and  C_14
REMARK    4  A    between atoms: O_5  and  C_17
REMARK    5  A    between atoms: N_9  and  C_13
REMARK    6  A    between atoms: N_10  and  C_20
REMARK    7  A    between atoms: C_23  and  C_24
REMARK    8  A    between atoms: C_23  and  C_29
REMARK    9  A    between atoms: C_23  and  C_30
REMARK                            x       y       z     vdW  Elec       q    Type
REMARK                         _______ _______ _______ _____ _____    ______ ____
ROOT
ATOM      3  O   UNL     1      -4.131 -12.143  14.816  0.00  0.00    -0.369 OA
ATOM      4  O   UNL     1      -2.084 -10.754  16.644  0.00  0.00    -0.368 OA
ATOM     11  C   UNL     1      -3.449 -10.428  16.309  0.00  0.00    +0.171 C 
ATOM     12  C   UNL     1      -3.642 -10.792  14.850  0.00  0.00    +0.191 C 
ATOM     13  C   UNL     1      -4.392 -11.351  17.042  0.00  0.00    +0.133 C 
ATOM     14  C   UNL     1      -2.240 -10.690  14.298  0.00  0.00    +0.235 C 
ATOM     15  C   UNL     1      -4.419 -12.580  16.153  0.00  0.00    +0.183 C 
ATOM     16  C   UNL     1      -1.405 -11.187  15.457  0.00  0.00    +0.207 C 
ENDROOT
BRANCH  13   9
ATOM      9  N   UNL     1      -5.744 -10.747  17.104  0.00  0.00    -0.182 NA
ATOM     31  H   UNL     1      -6.233 -10.649  16.205  0.00  0.00    +0.149 HD
BRANCH   9   1
ATOM      1  S   UNL     1      -6.677 -11.024  18.511  0.00  0.00    +0.065 S 
ATOM      6  O   UNL     1      -6.088 -10.313  19.628  0.00  0.00    -0.153 OA
ATOM      7  O   UNL     1      -6.986 -12.437  18.596  0.00  0.00    -0.153 OA
BRANCH   1  18
ATOM      2  S   UNL     1      -9.504 -10.873  19.242  0.00  0.00    -0.077 S 
ATOM     18  C   UNL     1      -8.275 -10.256  18.246  0.00  0.00    +0.142 A 
ATOM     19  C   UNL     1      -8.684  -9.279  17.401  0.00  0.00    +0.036 A 
ATOM     21  C   UNL     1     -10.073  -9.010  17.567  0.00  0.00    +0.010 A 
ATOM     22  C   UNL     1     -10.643  -9.806  18.536  0.00  0.00    +0.047 A 
ENDBRANCH   1  18
ENDBRANCH   9   1
ENDBRANCH  13   9
BRANCH  14   5
ATOM      5  O   UNL     1      -2.037 -11.454  13.131  0.00  0.00    -0.442 OA
BRANCH   5  17
ATOM      8  O   UNL     1      -1.530  -9.956  11.480  0.00  0.00    -0.226 OA
ATOM     10  N   UNL     1      -3.417 -11.335  11.351  0.00  0.00    -0.251 N 
ATOM     17  C   UNL     1      -2.268 -10.825  11.925  0.00  0.00    +0.405 C 
ATOM     32  H   UNL     1      -3.899 -12.060  11.878  0.00  0.00    +0.158 HD
BRANCH  10  20
ATOM     20  C   UNL     1      -4.010 -10.971  10.120  0.00  0.00    +0.036 A 
ATOM     24  C   UNL     1      -5.171 -10.259   7.707  0.00  0.00    -0.045 A 
ATOM     25  C   UNL     1      -4.053 -11.895   9.088  0.00  0.00    +0.024 A 
ATOM     26  C   UNL     1      -4.535  -9.698   9.970  0.00  0.00    +0.024 A 
ATOM     27  C   UNL     1      -4.637 -11.537   7.874  0.00  0.00    +0.006 A 
ATOM     28  C   UNL     1      -5.119  -9.339   8.755  0.00  0.00    +0.006 A 
BRANCH  24  23
ATOM     23  C   UNL     1      -5.795  -9.875   6.408  0.00  0.00    +0.013 C 
ATOM     29  C   UNL     1      -5.795 -11.033   5.391  0.00  0.00    +0.012 C 
ATOM     30  C   UNL     1      -7.226  -9.331   6.578  0.00  0.00    +0.012 C 
ENDBRANCH  24  23
ENDBRANCH  10  20
ENDBRANCH   5  17
ENDBRANCH  14   5
TORSDOF 7
ENDMDL
