MODEL 1
REMARK VINA RESULT:      -7.0      0.000      0.000
REMARK  Name = 40586210
REMARK  7 active torsions:
REMARK  status: ('A' for Active; 'I' for Inactive)
REMARK    1  A    between atoms: N_4  and  C_11
REMARK    2  A    between atoms: N_5  and  C_12
REMARK    3  A    between atoms: N_8  and  C_31
REMARK    4  A    between atoms: N_8  and  C_32
REMARK    5  A    between atoms: N_8  and  C_33
REMARK    6  A    between atoms: C_15  and  C_16
REMARK    7  A    between atoms: C_23  and  C_26
REMARK                            x       y       z     vdW  Elec       q    Type
REMARK                         _______ _______ _______ _____ _____    ______ ____
ROOT
ATOM      1  O   UNL     1      -7.045 -12.305  15.779  0.00  0.00    -0.370 OA
ATOM      2  O   UNL     1      -5.826 -12.662  18.630  0.00  0.00    -0.370 OA
ATOM      9  C   UNL     1      -6.402 -11.540  17.938  0.00  0.00    +0.171 C 
ATOM     10  C   UNL     1      -5.981 -11.644  16.484  0.00  0.00    +0.171 C 
ATOM     11  C   UNL     1      -7.908 -11.666  17.896  0.00  0.00    +0.130 C 
ATOM     12  C   UNL     1      -4.750 -12.517  16.517  0.00  0.00    +0.130 C 
ATOM     13  C   UNL     1      -8.125 -12.561  16.689  0.00  0.00    +0.185 C 
ATOM     14  C   UNL     1      -5.005 -13.407  17.719  0.00  0.00    +0.185 C 
ENDROOT
BRANCH  12   5
ATOM      5  N   UNL     1      -3.573 -11.706  16.736  0.00  0.00    -0.306 N 
ATOM      6  N   UNL     1      -3.305 -11.310  14.463  0.00  0.00    -0.214 NA
ATOM      7  N   UNL     1      -1.779 -10.383  16.083  0.00  0.00    -0.223 NA
ATOM     22  C   UNL     1      -2.854 -11.108  15.716  0.00  0.00    +0.216 A 
ATOM     23  C   UNL     1      -2.583 -10.709  13.495  0.00  0.00    +0.076 A 
ATOM     24  C   UNL     1      -1.105  -9.811  15.064  0.00  0.00    +0.116 A 
ATOM     25  C   UNL     1      -1.463  -9.940  13.738  0.00  0.00    +0.048 A 
ATOM     35  H   UNL     1      -3.270 -11.513  17.684  0.00  0.00    +0.149 HD
BRANCH  23  26
ATOM     26  C   UNL     1      -3.063 -10.922  12.150  0.00  0.00    +0.001 A 
ATOM     27  C   UNL     1      -3.187 -12.220  11.652  0.00  0.00    +0.012 A 
ATOM     28  C   UNL     1      -3.405  -9.832  11.350  0.00  0.00    +0.012 A 
ATOM     29  C   UNL     1      -3.653 -12.426  10.353  0.00  0.00    +0.024 A 
ATOM     30  C   UNL     1      -3.870 -10.039  10.052  0.00  0.00    +0.024 A 
ATOM     31  C   UNL     1      -3.993 -11.336   9.553  0.00  0.00    +0.029 A 
BRANCH  31   8
ATOM      8  N   UNL     1      -4.463 -11.545   8.240  0.00  0.00    -0.336 N 
ATOM     32  C   UNL     1      -4.305 -12.836   7.600  0.00  0.00    +0.129 C 
ATOM     33  C   UNL     1      -5.117 -10.474   7.515  0.00  0.00    +0.129 C 
ENDBRANCH  31   8
ENDBRANCH  23  26
ENDBRANCH  12   5
BRANCH  11   4
ATOM      3  O   UNL     1     -10.687 -10.972  18.368  0.00  0.00    -0.276 OA
ATOM      4  N   UNL     1      -8.533 -10.379  17.711  0.00  0.00    -0.307 N 
ATOM     16  C   UNL     1      -9.875 -10.142  17.965  0.00  0.00    +0.216 C 
ATOM     34  H   UNL     1      -7.939  -9.599  17.444  0.00  0.00    +0.149 HD
BRANCH  16  15
ATOM     15  C   UNL     1     -10.261  -8.713  17.715  0.00  0.00    +0.075 C 
ATOM     17  C   UNL     1      -9.395  -8.095  16.615  0.00  0.00    +0.013 C 
ATOM     18  C   UNL     1     -11.758  -8.618  17.413  0.00  0.00    +0.013 C 
ATOM     19  C   UNL     1      -9.784  -8.547  15.209  0.00  0.00    +0.001 C 
ATOM     20  C   UNL     1     -12.115  -9.081  16.001  0.00  0.00    +0.001 C 
ATOM     21  C   UNL     1     -11.275  -8.369  14.946  0.00  0.00    +0.000 C 
ENDBRANCH  16  15
ENDBRANCH  11   4
TORSDOF 5
ENDMDL
MODEL 2
REMARK VINA RESULT:      -7.0      3.329      9.502
REMARK  Name = 40586210
REMARK  7 active torsions:
REMARK  status: ('A' for Active; 'I' for Inactive)
REMARK    1  A    between atoms: N_4  and  C_11
REMARK    2  A    between atoms: N_5  and  C_12
REMARK    3  A    between atoms: N_8  and  C_31
REMARK    4  A    between atoms: N_8  and  C_32
REMARK    5  A    between atoms: N_8  and  C_33
REMARK    6  A    between atoms: C_15  and  C_16
REMARK    7  A    between atoms: C_23  and  C_26
REMARK                            x       y       z     vdW  Elec       q    Type
REMARK                         _______ _______ _______ _____ _____    ______ ____
ROOT
ATOM      1  O   UNL     1      -5.794 -11.774  10.073  0.00  0.00    -0.370 OA
ATOM      2  O   UNL     1      -4.815  -8.810  10.121  0.00  0.00    -0.370 OA
ATOM      9  C   UNL     1      -4.341  -9.993   9.456  0.00  0.00    +0.171 C 
ATOM     10  C   UNL     1      -4.539 -11.156  10.409  0.00  0.00    +0.171 C 
ATOM     11  C   UNL     1      -5.229 -10.326   8.279  0.00  0.00    +0.130 C 
ATOM     12  C   UNL     1      -4.620 -10.509  11.770  0.00  0.00    +0.130 C 
ATOM     13  C   UNL     1      -6.355 -11.107   8.932  0.00  0.00    +0.185 C 
ATOM     14  C   UNL     1      -5.215  -9.149  11.457  0.00  0.00    +0.185 C 
ENDROOT
BRANCH  12   5
ATOM      5  N   UNL     1      -3.294 -10.358  12.327  0.00  0.00    -0.306 N 
ATOM      6  N   UNL     1      -4.060 -10.703  14.493  0.00  0.00    -0.214 NA
ATOM      7  N   UNL     1      -1.728 -10.288  14.041  0.00  0.00    -0.223 NA
ATOM     22  C   UNL     1      -3.016 -10.453  13.679  0.00  0.00    +0.216 A 
ATOM     23  C   UNL     1      -3.751 -10.793  15.803  0.00  0.00    +0.076 A 
ATOM     24  C   UNL     1      -1.492 -10.391  15.366  0.00  0.00    +0.116 A 
ATOM     25  C   UNL     1      -2.472 -10.645  16.302  0.00  0.00    +0.048 A 
ATOM     35  H   UNL     1      -2.505 -10.224  11.705  0.00  0.00    +0.149 HD
BRANCH  23  26
ATOM     26  C   UNL     1      -4.866 -11.062  16.678  0.00  0.00    +0.001 A 
ATOM     27  C   UNL     1      -6.138 -11.268  16.143  0.00  0.00    +0.012 A 
ATOM     28  C   UNL     1      -4.673 -11.118  18.058  0.00  0.00    +0.012 A 
ATOM     29  C   UNL     1      -7.217 -11.528  16.990  0.00  0.00    +0.024 A 
ATOM     30  C   UNL     1      -5.751 -11.378  18.904  0.00  0.00    +0.024 A 
ATOM     31  C   UNL     1      -7.023 -11.583  18.370  0.00  0.00    +0.029 A 
BRANCH  31   8
ATOM      8  N   UNL     1      -8.113 -11.846  19.225  0.00  0.00    -0.336 N 
ATOM     32  C   UNL     1      -8.156 -13.068  20.005  0.00  0.00    +0.129 C 
ATOM     33  C   UNL     1      -9.201 -10.896  19.342  0.00  0.00    +0.129 C 
ENDBRANCH  31   8
ENDBRANCH  23  26
ENDBRANCH  12   5
BRANCH  11   4
ATOM      3  O   UNL     1      -5.835 -10.605   5.453  0.00  0.00    -0.276 OA
ATOM      4  N   UNL     1      -4.529 -11.131   7.307  0.00  0.00    -0.307 N 
ATOM     16  C   UNL     1      -4.894 -11.201   5.972  0.00  0.00    +0.216 C 
ATOM     34  H   UNL     1      -3.690 -11.616   7.614  0.00  0.00    +0.149 HD
BRANCH  16  15
ATOM     15  C   UNL     1      -3.984 -12.091   5.177  0.00  0.00    +0.075 C 
ATOM     17  C   UNL     1      -3.639 -13.362   5.956  0.00  0.00    +0.013 C 
ATOM     18  C   UNL     1      -4.600 -12.385   3.808  0.00  0.00    +0.013 C 
ATOM     19  C   UNL     1      -4.774 -14.385   5.982  0.00  0.00    +0.001 C 
ATOM     20  C   UNL     1      -5.734 -13.407   3.868  0.00  0.00    +0.001 C 
ATOM     21  C   UNL     1      -5.304 -14.683   4.584  0.00  0.00    +0.000 C 
ENDBRANCH  16  15
ENDBRANCH  11   4
TORSDOF 5
ENDMDL
MODEL 3
REMARK VINA RESULT:      -7.0     25.467     28.230
REMARK  Name = 40586210
REMARK  7 active torsions:
REMARK  status: ('A' for Active; 'I' for Inactive)
REMARK    1  A    between atoms: N_4  and  C_11
REMARK    2  A    between atoms: N_5  and  C_12
REMARK    3  A    between atoms: N_8  and  C_31
REMARK    4  A    between atoms: N_8  and  C_32
REMARK    5  A    between atoms: N_8  and  C_33
REMARK    6  A    between atoms: C_15  and  C_16
REMARK    7  A    between atoms: C_23  and  C_26
REMARK                            x       y       z     vdW  Elec       q    Type
REMARK                         _______ _______ _______ _____ _____    ______ ____
ROOT
ATOM      1  O   UNL     1      18.558  -5.636  26.842  0.00  0.00    -0.370 OA
ATOM      2  O   UNL     1      17.281  -8.261  25.738  0.00  0.00    -0.370 OA
ATOM      9  C   UNL     1      16.895  -6.878  25.677  0.00  0.00    +0.171 C 
ATOM     10  C   UNL     1      17.267  -6.248  27.006  0.00  0.00    +0.171 C 
ATOM     11  C   UNL     1      17.745  -6.138  24.669  0.00  0.00    +0.130 C 
ATOM     12  C   UNL     1      17.358  -7.417  27.957  0.00  0.00    +0.130 C 
ATOM     13  C   UNL     1      18.981  -5.791  25.479  0.00  0.00    +0.185 C 
ATOM     14  C   UNL     1      17.790  -8.553  27.047  0.00  0.00    +0.185 C 
ENDROOT
BRANCH  12   5
ATOM      5  N   UNL     1      16.057  -7.697  28.523  0.00  0.00    -0.306 N 
ATOM      6  N   UNL     1      16.011  -5.672  29.661  0.00  0.00    -0.214 NA
ATOM      7  N   UNL     1      14.183  -7.236  29.816  0.00  0.00    -0.223 NA
ATOM     22  C   UNL     1      15.389  -6.831  29.371  0.00  0.00    +0.216 A 
ATOM     23  C   UNL     1      15.328  -4.851  30.486  0.00  0.00    +0.076 A 
ATOM     24  C   UNL     1      13.558  -6.366  30.637  0.00  0.00    +0.116 A 
ATOM     25  C   UNL     1      14.087  -5.148  31.010  0.00  0.00    +0.048 A 
ATOM     35  H   UNL     1      15.571  -8.547  28.260  0.00  0.00    +0.149 HD
BRANCH  23  26
ATOM     26  C   UNL     1      15.991  -3.607  30.798  0.00  0.00    +0.001 A 
ATOM     27  C   UNL     1      15.764  -2.985  32.026  0.00  0.00    +0.012 A 
ATOM     28  C   UNL     1      16.861  -3.029  29.874  0.00  0.00    +0.012 A 
ATOM     29  C   UNL     1      16.405  -1.784  32.328  0.00  0.00    +0.024 A 
ATOM     30  C   UNL     1      17.502  -1.828  30.176  0.00  0.00    +0.024 A 
ATOM     31  C   UNL     1      17.274  -1.205  31.403  0.00  0.00    +0.029 A 
BRANCH  31   8
ATOM      8  N   UNL     1      17.922   0.010  31.709  0.00  0.00    -0.336 N 
ATOM     32  C   UNL     1      17.160   1.152  32.175  0.00  0.00    +0.129 C 
ATOM     33  C   UNL     1      19.359   0.131  31.568  0.00  0.00    +0.129 C 
ENDBRANCH  31   8
ENDBRANCH  23  26
ENDBRANCH  12   5
BRANCH  11   4
ATOM      3  O   UNL     1      18.640  -4.323  22.588  0.00  0.00    -0.276 OA
ATOM      4  N   UNL     1      17.078  -4.950  24.196  0.00  0.00    -0.307 N 
ATOM     16  C   UNL     1      17.586  -4.142  23.191  0.00  0.00    +0.216 C 
ATOM     34  H   UNL     1      16.160  -4.739  24.580  0.00  0.00    +0.149 HD
BRANCH  16  15
ATOM     15  C   UNL     1      16.681  -2.985  22.876  0.00  0.00    +0.075 C 
ATOM     17  C   UNL     1      15.758  -2.672  24.055  0.00  0.00    +0.013 C 
ATOM     18  C   UNL     1      17.509  -1.776  22.434  0.00  0.00    +0.013 C 
ATOM     19  C   UNL     1      16.459  -1.937  25.197  0.00  0.00    +0.001 C 
ATOM     20  C   UNL     1      18.199  -1.066  23.598  0.00  0.00    +0.001 C 
ATOM     21  C   UNL     1      17.213  -0.708  24.704  0.00  0.00    +0.000 C 
ENDBRANCH  16  15
ENDBRANCH  11   4
TORSDOF 5
ENDMDL
MODEL 4
REMARK VINA RESULT:      -6.9      3.039      6.256
REMARK  Name = 40586210
REMARK  7 active torsions:
REMARK  status: ('A' for Active; 'I' for Inactive)
REMARK    1  A    between atoms: N_4  and  C_11
REMARK    2  A    between atoms: N_5  and  C_12
REMARK    3  A    between atoms: N_8  and  C_31
REMARK    4  A    between atoms: N_8  and  C_32
REMARK    5  A    between atoms: N_8  and  C_33
REMARK    6  A    between atoms: C_15  and  C_16
REMARK    7  A    between atoms: C_23  and  C_26
REMARK                            x       y       z     vdW  Elec       q    Type
REMARK                         _______ _______ _______ _____ _____    ______ ____
ROOT
ATOM      1  O   UNL     1      -2.685 -12.866  12.531  0.00  0.00    -0.370 OA
ATOM      2  O   UNL     1      -1.828  -9.947  13.228  0.00  0.00    -0.370 OA
ATOM      9  C   UNL     1      -2.862 -10.814  13.723  0.00  0.00    +0.171 C 
ATOM     10  C   UNL     1      -3.385 -11.611  12.543  0.00  0.00    +0.171 C 
ATOM     11  C   UNL     1      -2.276 -11.861  14.642  0.00  0.00    +0.130 C 
ATOM     12  C   UNL     1      -3.000 -10.784  11.339  0.00  0.00    +0.130 C 
ATOM     13  C   UNL     1      -1.808 -12.925  13.666  0.00  0.00    +0.185 C 
ATOM     14  C   UNL     1      -1.733 -10.091  11.803  0.00  0.00    +0.185 C 
ENDROOT
BRANCH  12   5
ATOM      5  N   UNL     1      -4.030  -9.808  11.058  0.00  0.00    -0.306 N 
ATOM      6  N   UNL     1      -4.391 -10.660   8.927  0.00  0.00    -0.214 NA
ATOM      7  N   UNL     1      -5.651  -8.778   9.752  0.00  0.00    -0.223 NA
ATOM     22  C   UNL     1      -4.720  -9.746   9.860  0.00  0.00    +0.216 A 
ATOM     23  C   UNL     1      -5.086 -10.572   7.775  0.00  0.00    +0.076 A 
ATOM     24  C   UNL     1      -6.306  -8.748   8.573  0.00  0.00    +0.116 A 
ATOM     25  C   UNL     1      -6.064  -9.627   7.538  0.00  0.00    +0.048 A 
ATOM     35  H   UNL     1      -4.310  -9.157  11.783  0.00  0.00    +0.149 HD
BRANCH  23  26
ATOM     26  C   UNL     1      -4.737 -11.551   6.773  0.00  0.00    +0.001 A 
ATOM     27  C   UNL     1      -5.103 -11.348   5.442  0.00  0.00    +0.012 A 
ATOM     28  C   UNL     1      -4.033 -12.699   7.135  0.00  0.00    +0.012 A 
ATOM     29  C   UNL     1      -4.765 -12.294   4.473  0.00  0.00    +0.024 A 
ATOM     30  C   UNL     1      -3.695 -13.644   6.166  0.00  0.00    +0.024 A 
ATOM     31  C   UNL     1      -4.062 -13.442   4.836  0.00  0.00    +0.029 A 
BRANCH  31   8
ATOM      8  N   UNL     1      -3.720 -14.398   3.857  0.00  0.00    -0.336 N 
ATOM     32  C   UNL     1      -2.818 -15.487   4.178  0.00  0.00    +0.129 C 
ATOM     33  C   UNL     1      -4.273 -14.310   2.520  0.00  0.00    +0.129 C 
ENDBRANCH  31   8
ENDBRANCH  23  26
ENDBRANCH  12   5
BRANCH  11   4
ATOM      3  O   UNL     1      -3.583 -10.462  16.825  0.00  0.00    -0.276 OA
ATOM      4  N   UNL     1      -3.274 -12.381  15.545  0.00  0.00    -0.307 N 
ATOM     16  C   UNL     1      -3.844 -11.633  16.562  0.00  0.00    +0.216 C 
ATOM     34  H   UNL     1      -3.616 -13.324  15.376  0.00  0.00    +0.149 HD
BRANCH  16  15
ATOM     15  C   UNL     1      -4.871 -12.408  17.335  0.00  0.00    +0.075 C 
ATOM     17  C   UNL     1      -4.924 -11.949  18.794  0.00  0.00    +0.013 C 
ATOM     18  C   UNL     1      -6.230 -12.321  16.638  0.00  0.00    +0.013 C 
ATOM     19  C   UNL     1      -5.646 -10.617  18.986  0.00  0.00    +0.001 C 
ATOM     20  C   UNL     1      -6.925 -10.976  16.846  0.00  0.00    +0.001 C 
ATOM     21  C   UNL     1      -7.019 -10.613  18.324  0.00  0.00    +0.000 C 
ENDBRANCH  16  15
ENDBRANCH  11   4
TORSDOF 5
ENDMDL
MODEL 5
REMARK VINA RESULT:      -6.8      5.378      9.346
REMARK  Name = 40586210
REMARK  7 active torsions:
REMARK  status: ('A' for Active; 'I' for Inactive)
REMARK    1  A    between atoms: N_4  and  C_11
REMARK    2  A    between atoms: N_5  and  C_12
REMARK    3  A    between atoms: N_8  and  C_31
REMARK    4  A    between atoms: N_8  and  C_32
REMARK    5  A    between atoms: N_8  and  C_33
REMARK    6  A    between atoms: C_15  and  C_16
REMARK    7  A    between atoms: C_23  and  C_26
REMARK                            x       y       z     vdW  Elec       q    Type
REMARK                         _______ _______ _______ _____ _____    ______ ____
ROOT
ATOM      1  O   UNL     1     -12.342  -8.012  14.566  0.00  0.00    -0.370 OA
ATOM      2  O   UNL     1     -10.972  -6.182  16.690  0.00  0.00    -0.370 OA
ATOM      9  C   UNL     1     -10.962  -6.199  15.253  0.00  0.00    +0.171 C 
ATOM     10  C   UNL     1     -10.973  -7.653  14.820  0.00  0.00    +0.171 C 
ATOM     11  C   UNL     1     -12.259  -5.644  14.711  0.00  0.00    +0.130 C 
ATOM     12  C   UNL     1     -10.449  -8.400  16.023  0.00  0.00    +0.130 C 
ATOM     13  C   UNL     1     -13.173  -6.857  14.751  0.00  0.00    +0.185 C 
ATOM     14  C   UNL     1     -10.902  -7.529  17.180  0.00  0.00    +0.185 C 
ENDROOT
BRANCH  12   5
ATOM      5  N   UNL     1      -9.005  -8.461  15.978  0.00  0.00    -0.306 N 
ATOM      6  N   UNL     1      -8.929 -10.137  17.585  0.00  0.00    -0.214 NA
ATOM      7  N   UNL     1      -6.913  -9.259  16.598  0.00  0.00    -0.223 NA
ATOM     22  C   UNL     1      -8.250  -9.323  16.755  0.00  0.00    +0.216 A 
ATOM     23  C   UNL     1      -8.162 -10.965  18.324  0.00  0.00    +0.076 A 
ATOM     24  C   UNL     1      -6.209 -10.115  17.367  0.00  0.00    +0.116 A 
ATOM     25  C   UNL     1      -6.784 -10.999  18.256  0.00  0.00    +0.048 A 
ATOM     35  H   UNL     1      -8.502  -7.884  15.313  0.00  0.00    +0.149 HD
BRANCH  23  26
ATOM     26  C   UNL     1      -8.886 -11.840  19.214  0.00  0.00    +0.001 A 
ATOM     27  C   UNL     1     -10.161 -11.485  19.656  0.00  0.00    +0.012 A 
ATOM     28  C   UNL     1      -8.313 -13.041  19.631  0.00  0.00    +0.012 A 
ATOM     29  C   UNL     1     -10.862 -12.331  20.516  0.00  0.00    +0.024 A 
ATOM     30  C   UNL     1      -9.014 -13.887  20.491  0.00  0.00    +0.024 A 
ATOM     31  C   UNL     1     -10.288 -13.532  20.934  0.00  0.00    +0.029 A 
BRANCH  31   8
ATOM      8  N   UNL     1     -10.996 -14.387  21.804  0.00  0.00    -0.336 N 
ATOM     32  C   UNL     1     -12.241 -13.953  22.407  0.00  0.00    +0.129 C 
ATOM     33  C   UNL     1     -10.492 -15.713  22.100  0.00  0.00    +0.129 C 
ENDBRANCH  31   8
ENDBRANCH  23  26
ENDBRANCH  12   5
BRANCH  11   4
ATOM      3  O   UNL     1     -13.790  -3.560  13.392  0.00  0.00    -0.276 OA
ATOM      4  N   UNL     1     -12.096  -5.156  13.363  0.00  0.00    -0.307 N 
ATOM     16  C   UNL     1     -12.880  -4.151  12.818  0.00  0.00    +0.216 C 
ATOM     34  H   UNL     1     -11.325  -5.529  12.817  0.00  0.00    +0.149 HD
BRANCH  16  15
ATOM     15  C   UNL     1     -12.483  -3.819  11.409  0.00  0.00    +0.075 C 
ATOM     17  C   UNL     1     -11.892  -5.040  10.702  0.00  0.00    +0.013 C 
ATOM     18  C   UNL     1     -13.672  -3.217  10.657  0.00  0.00    +0.013 C 
ATOM     19  C   UNL     1     -12.945  -6.059  10.267  0.00  0.00    +0.001 C 
ATOM     20  C   UNL     1     -14.708  -4.261  10.240  0.00  0.00    +0.001 C 
ATOM     21  C   UNL     1     -14.069  -5.411   9.469  0.00  0.00    +0.000 C 
ENDBRANCH  16  15
ENDBRANCH  11   4
TORSDOF 5
ENDMDL
MODEL 6
REMARK VINA RESULT:      -6.8     25.591     28.784
REMARK  Name = 40586210
REMARK  7 active torsions:
REMARK  status: ('A' for Active; 'I' for Inactive)
REMARK    1  A    between atoms: N_4  and  C_11
REMARK    2  A    between atoms: N_5  and  C_12
REMARK    3  A    between atoms: N_8  and  C_31
REMARK    4  A    between atoms: N_8  and  C_32
REMARK    5  A    between atoms: N_8  and  C_33
REMARK    6  A    between atoms: C_15  and  C_16
REMARK    7  A    between atoms: C_23  and  C_26
REMARK                            x       y       z     vdW  Elec       q    Type
REMARK                         _______ _______ _______ _____ _____    ______ ____
ROOT
ATOM      1  O   UNL     1      18.093  -9.671  -2.283  0.00  0.00    -0.370 OA
ATOM      2  O   UNL     1      20.690  -9.182  -0.622  0.00  0.00    -0.370 OA
ATOM      9  C   UNL     1      19.293  -9.186  -0.286  0.00  0.00    +0.171 C 
ATOM     10  C   UNL     1      18.545  -8.583  -1.460  0.00  0.00    +0.171 C 
ATOM     11  C   UNL     1      18.774 -10.604  -0.210  0.00  0.00    +0.130 C 
ATOM     12  C   UNL     1      19.592  -7.773  -2.187  0.00  0.00    +0.130 C 
ATOM     13  C   UNL     1      18.457 -10.913  -1.662  0.00  0.00    +0.185 C 
ATOM     14  C   UNL     1      20.869  -8.537  -1.892  0.00  0.00    +0.185 C 
ENDROOT
BRANCH  12   5
ATOM      5  N   UNL     1      19.665  -6.441  -1.628  0.00  0.00    -0.306 N 
ATOM      6  N   UNL     1      17.801  -5.734  -2.820  0.00  0.00    -0.214 NA
ATOM      7  N   UNL     1      18.979  -4.241  -1.338  0.00  0.00    -0.223 NA
ATOM     22  C   UNL     1      18.777  -5.428  -1.944  0.00  0.00    +0.216 A 
ATOM     23  C   UNL     1      16.951  -4.724  -3.101  0.00  0.00    +0.076 A 
ATOM     24  C   UNL     1      18.092  -3.278  -1.666  0.00  0.00    +0.116 A 
ATOM     25  C   UNL     1      17.049  -3.463  -2.549  0.00  0.00    +0.048 A 
ATOM     35  H   UNL     1      20.369  -6.232  -0.928  0.00  0.00    +0.149 HD
BRANCH  23  26
ATOM     26  C   UNL     1      15.904  -5.048  -4.039  0.00  0.00    +0.001 A 
ATOM     27  C   UNL     1      16.163  -5.020  -5.410  0.00  0.00    +0.012 A 
ATOM     28  C   UNL     1      14.634  -5.391  -3.576  0.00  0.00    +0.012 A 
ATOM     29  C   UNL     1      15.150  -5.334  -6.318  0.00  0.00    +0.024 A 
ATOM     30  C   UNL     1      13.622  -5.705  -4.484  0.00  0.00    +0.024 A 
ATOM     31  C   UNL     1      13.880  -5.676  -5.854  0.00  0.00    +0.029 A 
BRANCH  31   8
ATOM      8  N   UNL     1      12.857  -5.993  -6.771  0.00  0.00    -0.336 N 
ATOM     32  C   UNL     1      11.953  -4.964  -7.248  0.00  0.00    +0.129 C 
ATOM     33  C   UNL     1      12.698  -7.350  -7.254  0.00  0.00    +0.129 C 
ENDBRANCH  31   8
ENDBRANCH  23  26
ENDBRANCH  12   5
BRANCH  11   4
ATOM      3  O   UNL     1      18.602 -11.466   2.558  0.00  0.00    -0.276 OA
ATOM      4  N   UNL     1      17.591 -10.684   0.612  0.00  0.00    -0.307 N 
ATOM     16  C   UNL     1      17.608 -11.109   1.931  0.00  0.00    +0.216 C 
ATOM     34  H   UNL     1      16.718 -10.348   0.215  0.00  0.00    +0.149 HD
BRANCH  16  15
ATOM     15  C   UNL     1      16.246 -11.073   2.560  0.00  0.00    +0.075 C 
ATOM     17  C   UNL     1      15.205 -11.739   1.658  0.00  0.00    +0.013 C 
ATOM     18  C   UNL     1      16.296 -11.690   3.960  0.00  0.00    +0.013 C 
ATOM     19  C   UNL     1      15.276 -13.266   1.672  0.00  0.00    +0.001 C 
ATOM     20  C   UNL     1      16.372 -13.216   3.940  0.00  0.00    +0.001 C 
ATOM     21  C   UNL     1      15.260 -13.822   3.090  0.00  0.00    +0.000 C 
ENDBRANCH  16  15
ENDBRANCH  11   4
TORSDOF 5
ENDMDL
MODEL 7
REMARK VINA RESULT:      -6.8      3.249      8.402
REMARK  Name = 40586210
REMARK  7 active torsions:
REMARK  status: ('A' for Active; 'I' for Inactive)
REMARK    1  A    between atoms: N_4  and  C_11
REMARK    2  A    between atoms: N_5  and  C_12
REMARK    3  A    between atoms: N_8  and  C_31
REMARK    4  A    between atoms: N_8  and  C_32
REMARK    5  A    between atoms: N_8  and  C_33
REMARK    6  A    between atoms: C_15  and  C_16
REMARK    7  A    between atoms: C_23  and  C_26
REMARK                            x       y       z     vdW  Elec       q    Type
REMARK                         _______ _______ _______ _____ _____    ______ ____
ROOT
ATOM      1  O   UNL     1      -3.515 -11.134  13.441  0.00  0.00    -0.370 OA
ATOM      2  O   UNL     1      -0.953 -11.416  15.201  0.00  0.00    -0.370 OA
ATOM      9  C   UNL     1      -1.876 -12.369  14.646  0.00  0.00    +0.171 C 
ATOM     10  C   UNL     1      -3.258 -11.749  14.715  0.00  0.00    +0.171 C 
ATOM     11  C   UNL     1      -1.625 -12.543  13.165  0.00  0.00    +0.130 C 
ATOM     12  C   UNL     1      -3.138 -10.696  15.791  0.00  0.00    +0.130 C 
ATOM     13  C   UNL     1      -2.407 -11.388  12.565  0.00  0.00    +0.185 C 
ATOM     14  C   UNL     1      -1.682 -10.281  15.689  0.00  0.00    +0.185 C 
ENDROOT
BRANCH  12   5
ATOM      5  N   UNL     1      -3.401 -11.281  17.088  0.00  0.00    -0.306 N 
ATOM      6  N   UNL     1      -5.588 -10.497  17.103  0.00  0.00    -0.214 NA
ATOM      7  N   UNL     1      -4.706 -11.780  18.944  0.00  0.00    -0.223 NA
ATOM     22  C   UNL     1      -4.618 -11.180  17.740  0.00  0.00    +0.216 A 
ATOM     23  C   UNL     1      -6.761 -10.423  17.766  0.00  0.00    +0.076 A 
ATOM     24  C   UNL     1      -5.906 -11.666  19.549  0.00  0.00    +0.116 A 
ATOM     25  C   UNL     1      -6.980 -10.993  19.004  0.00  0.00    +0.048 A 
ATOM     35  H   UNL     1      -2.685 -11.839  17.538  0.00  0.00    +0.149 HD
BRANCH  23  26
ATOM     26  C   UNL     1      -7.804  -9.692  17.087  0.00  0.00    +0.001 A 
ATOM     27  C   UNL     1      -7.979  -9.844  15.711  0.00  0.00    +0.012 A 
ATOM     28  C   UNL     1      -8.637  -8.835  17.806  0.00  0.00    +0.012 A 
ATOM     29  C   UNL     1      -8.988  -9.138  15.054  0.00  0.00    +0.024 A 
ATOM     30  C   UNL     1      -9.645  -8.130  17.149  0.00  0.00    +0.024 A 
ATOM     31  C   UNL     1      -9.820  -8.281  15.774  0.00  0.00    +0.029 A 
BRANCH  31   8
ATOM      8  N   UNL     1     -10.839  -7.567  15.110  0.00  0.00    -0.336 N 
ATOM     32  C   UNL     1     -11.018  -6.148  15.351  0.00  0.00    +0.129 C 
ATOM     33  C   UNL     1     -11.718  -8.239  14.174  0.00  0.00    +0.129 C 
ENDBRANCH  31   8
ENDBRANCH  23  26
ENDBRANCH  12   5
BRANCH  11   4
ATOM      3  O   UNL     1      -0.324 -15.131  13.358  0.00  0.00    -0.276 OA
ATOM      4  N   UNL     1      -2.125 -13.812  12.697  0.00  0.00    -0.307 N 
ATOM     16  C   UNL     1      -1.428 -15.002  12.835  0.00  0.00    +0.216 C 
ATOM     34  H   UNL     1      -3.063 -13.834  12.306  0.00  0.00    +0.149 HD
BRANCH  16  15
ATOM     15  C   UNL     1      -2.185 -16.175  12.284  0.00  0.00    +0.075 C 
ATOM     17  C   UNL     1      -1.972 -17.421  13.146  0.00  0.00    +0.013 C 
ATOM     18  C   UNL     1      -3.663 -15.816  12.118  0.00  0.00    +0.013 C 
ATOM     19  C   UNL     1      -2.767 -17.400  14.451  0.00  0.00    +0.001 C 
ATOM     20  C   UNL     1      -4.427 -15.799  13.441  0.00  0.00    +0.001 C 
ATOM     21  C   UNL     1      -4.242 -17.099  14.215  0.00  0.00    +0.000 C 
ENDBRANCH  16  15
ENDBRANCH  11   4
TORSDOF 5
ENDMDL
MODEL 8
REMARK VINA RESULT:      -6.7     23.642     28.281
REMARK  Name = 40586210
REMARK  7 active torsions:
REMARK  status: ('A' for Active; 'I' for Inactive)
REMARK    1  A    between atoms: N_4  and  C_11
REMARK    2  A    between atoms: N_5  and  C_12
REMARK    3  A    between atoms: N_8  and  C_31
REMARK    4  A    between atoms: N_8  and  C_32
REMARK    5  A    between atoms: N_8  and  C_33
REMARK    6  A    between atoms: C_15  and  C_16
REMARK    7  A    between atoms: C_23  and  C_26
REMARK                            x       y       z     vdW  Elec       q    Type
REMARK                         _______ _______ _______ _____ _____    ______ ____
ROOT
ATOM      1  O   UNL     1     -14.317   6.533  34.439  0.00  0.00    -0.370 OA
ATOM      2  O   UNL     1     -15.331   8.083  31.927  0.00  0.00    -0.370 OA
ATOM      9  C   UNL     1     -14.447   6.963  32.102  0.00  0.00    +0.171 C 
ATOM     10  C   UNL     1     -13.647   7.215  33.366  0.00  0.00    +0.171 C 
ATOM     11  C   UNL     1     -15.237   5.712  32.410  0.00  0.00    +0.130 C 
ATOM     12  C   UNL     1     -13.728   8.710  33.563  0.00  0.00    +0.130 C 
ATOM     13  C   UNL     1     -15.446   5.821  33.910  0.00  0.00    +0.185 C 
ATOM     14  C   UNL     1     -15.073   9.054  32.951  0.00  0.00    +0.185 C 
ENDROOT
BRANCH  12   5
ATOM      5  N   UNL     1     -12.664   9.364  32.833  0.00  0.00    -0.306 N 
ATOM      6  N   UNL     1     -11.234   9.293  34.662  0.00  0.00    -0.214 NA
ATOM      7  N   UNL     1     -10.541  10.268  32.569  0.00  0.00    -0.223 NA
ATOM     22  C   UNL     1     -11.426   9.655  33.379  0.00  0.00    +0.216 A 
ATOM     23  C   UNL     1     -10.015   9.588  35.160  0.00  0.00    +0.076 A 
ATOM     24  C   UNL     1      -9.344  10.533  33.133  0.00  0.00    +0.116 A 
ATOM     25  C   UNL     1      -9.021  10.213  34.435  0.00  0.00    +0.048 A 
ATOM     35  H   UNL     1     -12.796   9.586  31.852  0.00  0.00    +0.149 HD
BRANCH  23  26
ATOM     26  C   UNL     1      -9.805   9.200  36.534  0.00  0.00    +0.001 A 
ATOM     27  C   UNL     1     -10.594   8.202  37.106  0.00  0.00    +0.012 A 
ATOM     28  C   UNL     1      -8.811   9.823  37.290  0.00  0.00    +0.012 A 
ATOM     29  C   UNL     1     -10.390   7.827  38.434  0.00  0.00    +0.024 A 
ATOM     30  C   UNL     1      -8.607   9.447  38.617  0.00  0.00    +0.024 A 
ATOM     31  C   UNL     1      -9.397   8.450  39.190  0.00  0.00    +0.029 A 
BRANCH  31   8
ATOM      8  N   UNL     1      -9.190   8.071  40.532  0.00  0.00    -0.336 N 
ATOM     32  C   UNL     1      -9.934   6.967  41.106  0.00  0.00    +0.129 C 
ATOM     33  C   UNL     1      -8.227   8.776  41.354  0.00  0.00    +0.129 C 
ENDBRANCH  31   8
ENDBRANCH  23  26
ENDBRANCH  12   5
BRANCH  11   4
ATOM      3  O   UNL     1     -15.416   4.149  29.970  0.00  0.00    -0.276 OA
ATOM      4  N   UNL     1     -14.489   4.525  32.072  0.00  0.00    -0.307 N 
ATOM     16  C   UNL     1     -14.643   3.844  30.875  0.00  0.00    +0.216 C 
ATOM     34  H   UNL     1     -13.769   4.220  32.722  0.00  0.00    +0.149 HD
BRANCH  16  15
ATOM     15  C   UNL     1     -13.727   2.660  30.769  0.00  0.00    +0.075 C 
ATOM     17  C   UNL     1     -13.471   2.038  32.143  0.00  0.00    +0.013 C 
ATOM     18  C   UNL     1     -14.281   1.655  29.758  0.00  0.00    +0.013 C 
ATOM     19  C   UNL     1     -14.644   1.204  32.660  0.00  0.00    +0.001 C 
ATOM     20  C   UNL     1     -15.454   0.842  30.303  0.00  0.00    +0.001 C 
ATOM     21  C   UNL     1     -15.110   0.180  31.633  0.00  0.00    +0.000 C 
ENDBRANCH  16  15
ENDBRANCH  11   4
TORSDOF 5
ENDMDL
MODEL 9
REMARK VINA RESULT:      -6.7     22.794     27.225
REMARK  Name = 40586210
REMARK  7 active torsions:
REMARK  status: ('A' for Active; 'I' for Inactive)
REMARK    1  A    between atoms: N_4  and  C_11
REMARK    2  A    between atoms: N_5  and  C_12
REMARK    3  A    between atoms: N_8  and  C_31
REMARK    4  A    between atoms: N_8  and  C_32
REMARK    5  A    between atoms: N_8  and  C_33
REMARK    6  A    between atoms: C_15  and  C_16
REMARK    7  A    between atoms: C_23  and  C_26
REMARK                            x       y       z     vdW  Elec       q    Type
REMARK                         _______ _______ _______ _____ _____    ______ ____
ROOT
ATOM      1  O   UNL     1     -13.452   6.356  33.881  0.00  0.00    -0.370 OA
ATOM      2  O   UNL     1     -16.248   7.085  32.702  0.00  0.00    -0.370 OA
ATOM      9  C   UNL     1     -15.170   6.254  32.238  0.00  0.00    +0.171 C 
ATOM     10  C   UNL     1     -13.874   6.936  32.635  0.00  0.00    +0.171 C 
ATOM     11  C   UNL     1     -15.147   4.948  32.999  0.00  0.00    +0.130 C 
ATOM     12  C   UNL     1     -14.262   8.381  32.833  0.00  0.00    +0.130 C 
ATOM     13  C   UNL     1     -14.368   5.315  34.250  0.00  0.00    +0.185 C 
ATOM     14  C   UNL     1     -15.707   8.279  33.285  0.00  0.00    +0.185 C 
ENDROOT
BRANCH  12   5
ATOM      5  N   UNL     1     -14.180   9.093  31.576  0.00  0.00    -0.306 N 
ATOM      6  N   UNL     1     -12.099   9.979  32.104  0.00  0.00    -0.214 NA
ATOM      7  N   UNL     1     -13.180  10.485  30.010  0.00  0.00    -0.223 NA
ATOM     22  C   UNL     1     -13.106   9.888  31.215  0.00  0.00    +0.216 A 
ATOM     23  C   UNL     1     -11.067  10.758  31.717  0.00  0.00    +0.076 A 
ATOM     24  C   UNL     1     -12.115  11.249  29.688  0.00  0.00    +0.116 A 
ATOM     25  C   UNL     1     -11.020  11.424  30.509  0.00  0.00    +0.048 A 
ATOM     35  H   UNL     1     -14.917   8.978  30.890  0.00  0.00    +0.149 HD
BRANCH  23  26
ATOM     26  C   UNL     1      -9.985  10.858  32.666  0.00  0.00    +0.001 A 
ATOM     27  C   UNL     1      -9.830   9.883  33.652  0.00  0.00    +0.012 A 
ATOM     28  C   UNL     1      -9.093  11.928  32.597  0.00  0.00    +0.012 A 
ATOM     29  C   UNL     1      -8.783   9.979  34.570  0.00  0.00    +0.024 A 
ATOM     30  C   UNL     1      -8.046  12.023  33.514  0.00  0.00    +0.024 A 
ATOM     31  C   UNL     1      -7.891  11.049  34.501  0.00  0.00    +0.029 A 
BRANCH  31   8
ATOM      8  N   UNL     1      -6.833  11.147  35.428  0.00  0.00    -0.336 N 
ATOM     32  C   UNL     1      -6.463  12.432  35.986  0.00  0.00    +0.129 C 
ATOM     33  C   UNL     1      -6.107   9.963  35.840  0.00  0.00    +0.129 C 
ENDBRANCH  31   8
ENDBRANCH  23  26
ENDBRANCH  12   5
BRANCH  11   4
ATOM      3  O   UNL     1     -15.334   2.077  33.384  0.00  0.00    -0.276 OA
ATOM      4  N   UNL     1     -14.474   3.918  32.247  0.00  0.00    -0.307 N 
ATOM     16  C   UNL     1     -14.627   2.564  32.506  0.00  0.00    +0.216 C 
ATOM     34  H   UNL     1     -13.914   4.206  31.449  0.00  0.00    +0.149 HD
BRANCH  16  15
ATOM     15  C   UNL     1     -13.834   1.709  31.560  0.00  0.00    +0.075 C 
ATOM     17  C   UNL     1     -14.450   0.315  31.432  0.00  0.00    +0.013 C 
ATOM     18  C   UNL     1     -13.683   2.417  30.212  0.00  0.00    +0.013 C 
ATOM     19  C   UNL     1     -15.704   0.283  30.559  0.00  0.00    +0.001 C 
ATOM     20  C   UNL     1     -14.955   2.371  29.366  0.00  0.00    +0.001 C 
ATOM     21  C   UNL     1     -15.474   0.946  29.207  0.00  0.00    +0.000 C 
ENDBRANCH  16  15
ENDBRANCH  11   4
TORSDOF 5
ENDMDL
MODEL 10
REMARK VINA RESULT:      -6.6     20.277     23.745
REMARK  Name = 40586210
REMARK  7 active torsions:
REMARK  status: ('A' for Active; 'I' for Inactive)
REMARK    1  A    between atoms: N_4  and  C_11
REMARK    2  A    between atoms: N_5  and  C_12
REMARK    3  A    between atoms: N_8  and  C_31
REMARK    4  A    between atoms: N_8  and  C_32
REMARK    5  A    between atoms: N_8  and  C_33
REMARK    6  A    between atoms: C_15  and  C_16
REMARK    7  A    between atoms: C_23  and  C_26
REMARK                            x       y       z     vdW  Elec       q    Type
REMARK                         _______ _______ _______ _____ _____    ______ ____
ROOT
ATOM      1  O   UNL     1     -15.654  10.976  22.921  0.00  0.00    -0.370 OA
ATOM      2  O   UNL     1     -17.367  10.066  25.366  0.00  0.00    -0.370 OA
ATOM      9  C   UNL     1     -15.954  10.228  25.160  0.00  0.00    +0.171 C 
ATOM     10  C   UNL     1     -15.653   9.793  23.738  0.00  0.00    +0.171 C 
ATOM     11  C   UNL     1     -15.583  11.693  25.182  0.00  0.00    +0.130 C 
ATOM     12  C   UNL     1     -16.815   8.900  23.372  0.00  0.00    +0.130 C 
ATOM     13  C   UNL     1     -15.873  12.123  23.755  0.00  0.00    +0.185 C 
ATOM     14  C   UNL     1     -17.951   9.478  24.195  0.00  0.00    +0.185 C 
ENDROOT
BRANCH  12   5
ATOM      5  N   UNL     1     -16.542   7.540  23.781  0.00  0.00    -0.306 N 
ATOM      6  N   UNL     1     -14.818   7.321  22.240  0.00  0.00    -0.214 NA
ATOM      7  N   UNL     1     -15.422   5.506  23.707  0.00  0.00    -0.223 NA
ATOM     22  C   UNL     1     -15.551   6.755  23.217  0.00  0.00    +0.216 A 
ATOM     23  C   UNL     1     -13.859   6.529  21.717  0.00  0.00    +0.076 A 
ATOM     24  C   UNL     1     -14.444   4.771  23.138  0.00  0.00    +0.116 A 
ATOM     25  C   UNL     1     -13.624   5.233  22.130  0.00  0.00    +0.048 A 
ATOM     35  H   UNL     1     -17.062   7.138  24.553  0.00  0.00    +0.149 HD
BRANCH  23  26
ATOM     26  C   UNL     1     -13.069   7.132  20.670  0.00  0.00    +0.001 A 
ATOM     27  C   UNL     1     -11.685   7.237  20.812  0.00  0.00    +0.012 A 
ATOM     28  C   UNL     1     -13.690   7.607  19.515  0.00  0.00    +0.012 A 
ATOM     29  C   UNL     1     -10.922   7.819  19.800  0.00  0.00    +0.024 A 
ATOM     30  C   UNL     1     -12.926   8.189  18.503  0.00  0.00    +0.024 A 
ATOM     31  C   UNL     1     -11.543   8.295  18.645  0.00  0.00    +0.029 A 
BRANCH  31   8
ATOM      8  N   UNL     1     -10.772   8.884  17.622  0.00  0.00    -0.336 N 
ATOM     32  C   UNL     1     -10.166  10.187  17.816  0.00  0.00    +0.129 C 
ATOM     33  C   UNL     1     -10.569   8.192  16.365  0.00  0.00    +0.129 C 
ENDBRANCH  31   8
ENDBRANCH  23  26
ENDBRANCH  12   5
BRANCH  11   4
ATOM      3  O   UNL     1     -14.454  12.359  27.773  0.00  0.00    -0.276 OA
ATOM      4  N   UNL     1     -14.191  11.875  25.511  0.00  0.00    -0.307 N 
ATOM     16  C   UNL     1     -13.745  12.193  26.784  0.00  0.00    +0.216 C 
ATOM     34  H   UNL     1     -13.506  11.695  24.781  0.00  0.00    +0.149 HD
BRANCH  16  15
ATOM     15  C   UNL     1     -12.249  12.300  26.856  0.00  0.00    +0.075 C 
ATOM     17  C   UNL     1     -11.775  12.423  28.305  0.00  0.00    +0.013 C 
ATOM     18  C   UNL     1     -11.602  11.125  26.119  0.00  0.00    +0.013 C 
ATOM     19  C   UNL     1     -11.812  11.102  29.071  0.00  0.00    +0.001 C 
ATOM     20  C   UNL     1     -11.660   9.818  26.909  0.00  0.00    +0.001 C 
ATOM     21  C   UNL     1     -11.099   9.986  28.317  0.00  0.00    +0.000 C 
ENDBRANCH  16  15
ENDBRANCH  11   4
TORSDOF 5
ENDMDL
