MODEL 1
REMARK VINA RESULT:      -7.1      0.000      0.000
REMARK  Name = 44716827
REMARK  12 active torsions:
REMARK  status: ('A' for Active; 'I' for Inactive)
REMARK    1  A    between atoms: S_1  and  N_8
REMARK    2  A    between atoms: S_1  and  C_26
REMARK    3  A    between atoms: N_8  and  C_16
REMARK    4  A    between atoms: N_9  and  C_23
REMARK    5  A    between atoms: N_10  and  C_34
REMARK    6  A    between atoms: N_13  and  C_40
REMARK    7  A    between atoms: C_17  and  C_21
REMARK    8  A    between atoms: C_22  and  C_24
REMARK    9  A    between atoms: C_23  and  C_25
REMARK   10  A    between atoms: C_23  and  C_29
REMARK   11  A    between atoms: C_25  and  C_27
REMARK   12  A    between atoms: C_31  and  C_38
REMARK                            x       y       z     vdW  Elec       q    Type
REMARK                         _______ _______ _______ _____ _____    ______ ____
ROOT
ATOM      3  O   UNL     1      -4.867 -12.708   9.958  0.00  0.00    -0.268 OA
ATOM      7  N   UNL     1      -5.950 -11.627  11.736  0.00  0.00    -0.285 N 
ATOM     16  C   UNL     1      -8.411 -11.076  13.188  0.00  0.00    +0.080 C 
ATOM     17  C   UNL     1      -5.931 -10.608  12.800  0.00  0.00    +0.164 C 
ATOM     18  C   UNL     1      -7.314 -10.015  13.082  0.00  0.00    +0.052 C 
ATOM     19  C   UNL     1      -8.388 -11.996  11.973  0.00  0.00    +0.039 C 
ATOM     20  C   UNL     1      -7.015 -12.634  11.806  0.00  0.00    +0.110 C 
ATOM     22  C   UNL     1      -4.946 -11.788  10.771  0.00  0.00    +0.265 C 
ENDROOT
BRANCH  22  24
ATOM     10  N   UNL     1      -3.927  -9.637   9.951  0.00  0.00    -0.262 N 
ATOM     12  N   UNL     1      -2.826  -8.874  10.060  0.00  0.00    -0.176 NA
ATOM     24  C   UNL     1      -3.885 -10.776  10.700  0.00  0.00    +0.123 A 
ATOM     28  C   UNL     1      -2.672 -10.757  11.344  0.00  0.00    +0.057 A 
ATOM     31  C   UNL     1      -2.064  -9.563  10.913  0.00  0.00    +0.061 A 
ATOM     34  C   UNL     1      -5.004  -9.204   9.091  0.00  0.00    +0.173 C 
ATOM     38  C   UNL     1      -0.741  -9.042  11.297  0.00  0.00    +0.067 C 
ENDBRANCH  22  24
BRANCH  17  21
ATOM      2  O   UNL     1      -5.771 -12.312  14.466  0.00  0.00    -0.274 OA
ATOM      9  N   UNL     1      -4.292 -10.516  14.544  0.00  0.00    -0.302 N 
ATOM     21  C   UNL     1      -5.335 -11.255  14.016  0.00  0.00    +0.234 C 
ATOM     44  H   UNL     1      -3.980  -9.681  14.056  0.00  0.00    +0.150 HD
BRANCH   9  23
ATOM     23  C   UNL     1      -3.563 -10.911  15.729  0.00  0.00    +0.163 C 
BRANCH  23  29
ATOM      6  O   UNL     1      -1.695  -9.946  14.510  0.00  0.00    -0.274 OA
ATOM     15  N   UNL     1      -1.281 -10.968  16.525  0.00  0.00    -0.328 N 
ATOM     29  C   UNL     1      -2.101 -10.563  15.492  0.00  0.00    +0.231 C 
ATOM     46  H   UNL     1      -0.284 -10.785  16.500  0.00  0.00    +0.145 HD
ATOM     47  H   UNL     1      -1.634 -11.456  17.342  0.00  0.00    +0.145 HD
ENDBRANCH  23  29
BRANCH  23  25
ATOM     25  C   UNL     1      -4.082 -10.209  16.989  0.00  0.00    +0.069 C 
BRANCH  25  27
ATOM     14  N   UNL     1      -6.111 -12.614  18.903  0.00  0.00    -0.360 N 
ATOM     27  C   UNL     1      -5.131 -11.015  17.717  0.00  0.00    -0.020 A 
ATOM     32  C   UNL     1      -6.510 -10.690  17.847  0.00  0.00    +0.003 A 
ATOM     33  C   UNL     1      -4.917 -12.204  18.375  0.00  0.00    +0.087 A 
ATOM     35  C   UNL     1      -7.102 -11.709  18.596  0.00  0.00    +0.047 A 
ATOM     37  C   UNL     1      -7.313  -9.623  17.400  0.00  0.00    +0.010 A 
ATOM     39  C   UNL     1      -8.463 -11.715  18.920  0.00  0.00    +0.026 A 
ATOM     41  C   UNL     1      -8.676  -9.614  17.717  0.00  0.00    +0.001 A 
ATOM     42  C   UNL     1      -9.241 -10.646  18.465  0.00  0.00    +0.002 A 
ATOM     45  H   UNL     1      -6.247 -13.461  19.438  0.00  0.00    +0.165 HD
ENDBRANCH  25  27
ENDBRANCH  23  25
ENDBRANCH   9  23
ENDBRANCH  17  21
BRANCH  16   8
ATOM      8  N   UNL     1      -9.734 -10.410  13.275  0.00  0.00    -0.185 NA
ATOM     43  H   UNL     1      -9.717  -9.401  13.074  0.00  0.00    +0.148 HD
BRANCH   8   1
ATOM      1  S   UNL     1     -10.892 -10.971  14.381  0.00  0.00    +0.077 S 
ATOM      4  O   UNL     1     -10.266 -11.891  15.312  0.00  0.00    -0.152 OA
ATOM      5  O   UNL     1     -12.081 -11.369  13.651  0.00  0.00    -0.152 OA
BRANCH   1  26
ATOM     11  N   UNL     1     -12.116  -9.504  16.366  0.00  0.00    -0.216 NA
ATOM     13  N   UNL     1     -11.448  -7.432  15.929  0.00  0.00    -0.338 N 
ATOM     26  C   UNL     1     -11.299  -9.495  15.264  0.00  0.00    +0.211 A 
ATOM     30  C   UNL     1     -10.873  -8.220  14.973  0.00  0.00    +0.135 A 
ATOM     36  C   UNL     1     -12.185  -8.247  16.743  0.00  0.00    +0.201 A 
ATOM     40  C   UNL     1     -11.305  -6.002  16.057  0.00  0.00    +0.150 C 
ENDBRANCH   1  26
ENDBRANCH   8   1
ENDBRANCH  16   8
TORSDOF 9
ENDMDL
MODEL 2
REMARK VINA RESULT:      -7.1     24.279     29.520
REMARK  Name = 44716827
REMARK  12 active torsions:
REMARK  status: ('A' for Active; 'I' for Inactive)
REMARK    1  A    between atoms: S_1  and  N_8
REMARK    2  A    between atoms: S_1  and  C_26
REMARK    3  A    between atoms: N_8  and  C_16
REMARK    4  A    between atoms: N_9  and  C_23
REMARK    5  A    between atoms: N_10  and  C_34
REMARK    6  A    between atoms: N_13  and  C_40
REMARK    7  A    between atoms: C_17  and  C_21
REMARK    8  A    between atoms: C_22  and  C_24
REMARK    9  A    between atoms: C_23  and  C_25
REMARK   10  A    between atoms: C_23  and  C_29
REMARK   11  A    between atoms: C_25  and  C_27
REMARK   12  A    between atoms: C_31  and  C_38
REMARK                            x       y       z     vdW  Elec       q    Type
REMARK                         _______ _______ _______ _____ _____    ______ ____
ROOT
ATOM      3  O   UNL     1      17.691  10.840   3.518  0.00  0.00    -0.268 OA
ATOM      7  N   UNL     1      16.176   9.137   4.070  0.00  0.00    -0.285 N 
ATOM     16  C   UNL     1      13.693   8.333   5.358  0.00  0.00    +0.080 C 
ATOM     17  C   UNL     1      15.870   7.700   4.186  0.00  0.00    +0.164 C 
ATOM     18  C   UNL     1      14.895   7.387   5.322  0.00  0.00    +0.052 C 
ATOM     19  C   UNL     1      14.153   9.787   5.344  0.00  0.00    +0.039 C 
ATOM     20  C   UNL     1      15.037  10.060   4.134  0.00  0.00    +0.110 C 
ATOM     22  C   UNL     1      17.438   9.660   3.752  0.00  0.00    +0.265 C 
ENDROOT
BRANCH  22  24
ATOM     10  N   UNL     1      19.140   8.243   2.556  0.00  0.00    -0.262 N 
ATOM     12  N   UNL     1      20.172   7.411   2.775  0.00  0.00    -0.176 NA
ATOM     24  C   UNL     1      18.576   8.734   3.695  0.00  0.00    +0.123 A 
ATOM     28  C   UNL     1      19.288   8.185   4.734  0.00  0.00    +0.057 A 
ATOM     31  C   UNL     1      20.258   7.381   4.107  0.00  0.00    +0.061 A 
ATOM     34  C   UNL     1      18.739   8.529   1.197  0.00  0.00    +0.173 C 
ATOM     38  C   UNL     1      21.294   6.559   4.754  0.00  0.00    +0.067 C 
ENDBRANCH  22  24
BRANCH  17  21
ATOM      2  O   UNL     1      15.419   7.971   1.856  0.00  0.00    -0.274 OA
ATOM      9  N   UNL     1      14.775   5.997   2.907  0.00  0.00    -0.302 N 
ATOM     21  C   UNL     1      15.346   7.256   2.852  0.00  0.00    +0.234 C 
ATOM     44  H   UNL     1      14.817   5.472   3.775  0.00  0.00    +0.150 HD
BRANCH   9  23
ATOM     23  C   UNL     1      14.176   5.349   1.761  0.00  0.00    +0.163 C 
BRANCH  23  29
ATOM      6  O   UNL     1      15.799   4.533   0.148  0.00  0.00    -0.274 OA
ATOM     15  N   UNL     1      15.439   3.309   2.058  0.00  0.00    -0.328 N 
ATOM     29  C   UNL     1      15.205   4.372   1.211  0.00  0.00    +0.231 C 
ATOM     46  H   UNL     1      16.114   2.591   1.817  0.00  0.00    +0.145 HD
ATOM     47  H   UNL     1      14.956   3.202   2.944  0.00  0.00    +0.145 HD
ENDBRANCH  23  29
BRANCH  23  25
ATOM     25  C   UNL     1      12.881   4.614   2.122  0.00  0.00    +0.069 C 
BRANCH  25  27
ATOM     14  N   UNL     1      10.369   6.646   3.889  0.00  0.00    -0.360 N 
ATOM     27  C   UNL     1      11.788   5.547   2.584  0.00  0.00    -0.020 A 
ATOM     32  C   UNL     1      11.002   6.403   1.764  0.00  0.00    +0.003 A 
ATOM     33  C   UNL     1      11.375   5.718   3.885  0.00  0.00    +0.087 A 
ATOM     35  C   UNL     1      10.120   7.082   2.607  0.00  0.00    +0.047 A 
ATOM     37  C   UNL     1      10.957   6.667   0.381  0.00  0.00    +0.010 A 
ATOM     39  C   UNL     1       9.190   8.014   2.134  0.00  0.00    +0.026 A 
ATOM     41  C   UNL     1      10.033   7.598  -0.107  0.00  0.00    +0.001 A 
ATOM     42  C   UNL     1       9.163   8.260   0.758  0.00  0.00    +0.002 A 
ATOM     45  H   UNL     1       9.877   6.964   4.713  0.00  0.00    +0.165 HD
ENDBRANCH  25  27
ENDBRANCH  23  25
ENDBRANCH   9  23
ENDBRANCH  17  21
BRANCH  16   8
ATOM      8  N   UNL     1      12.903   8.081   6.589  0.00  0.00    -0.185 NA
ATOM     43  H   UNL     1      13.044   7.149   7.002  0.00  0.00    +0.148 HD
BRANCH   8   1
ATOM      1  S   UNL     1      11.378   8.800   6.777  0.00  0.00    +0.077 S 
ATOM      4  O   UNL     1      10.808   9.075   5.472  0.00  0.00    -0.152 OA
ATOM      5  O   UNL     1      11.479   9.858   7.765  0.00  0.00    -0.152 OA
BRANCH   1  26
ATOM     11  N   UNL     1       9.205   7.698   8.063  0.00  0.00    -0.216 NA
ATOM     13  N   UNL     1       9.782   5.563   8.261  0.00  0.00    -0.338 N 
ATOM     26  C   UNL     1      10.445   7.492   7.514  0.00  0.00    +0.211 A 
ATOM     30  C   UNL     1      10.825   6.175   7.626  0.00  0.00    +0.135 A 
ATOM     36  C   UNL     1       8.833   6.517   8.503  0.00  0.00    +0.201 A 
ATOM     40  C   UNL     1       9.696   4.167   8.613  0.00  0.00    +0.150 C 
ENDBRANCH   1  26
ENDBRANCH   8   1
ENDBRANCH  16   8
TORSDOF 9
ENDMDL
MODEL 3
REMARK VINA RESULT:      -7.0      3.475      6.240
REMARK  Name = 44716827
REMARK  12 active torsions:
REMARK  status: ('A' for Active; 'I' for Inactive)
REMARK    1  A    between atoms: S_1  and  N_8
REMARK    2  A    between atoms: S_1  and  C_26
REMARK    3  A    between atoms: N_8  and  C_16
REMARK    4  A    between atoms: N_9  and  C_23
REMARK    5  A    between atoms: N_10  and  C_34
REMARK    6  A    between atoms: N_13  and  C_40
REMARK    7  A    between atoms: C_17  and  C_21
REMARK    8  A    between atoms: C_22  and  C_24
REMARK    9  A    between atoms: C_23  and  C_25
REMARK   10  A    between atoms: C_23  and  C_29
REMARK   11  A    between atoms: C_25  and  C_27
REMARK   12  A    between atoms: C_31  and  C_38
REMARK                            x       y       z     vdW  Elec       q    Type
REMARK                         _______ _______ _______ _____ _____    ______ ____
ROOT
ATOM      3  O   UNL     1      -3.047 -12.450  10.858  0.00  0.00    -0.268 OA
ATOM      7  N   UNL     1      -4.631 -10.721  10.907  0.00  0.00    -0.285 N 
ATOM     16  C   UNL     1      -6.374  -8.898   9.455  0.00  0.00    +0.080 C 
ATOM     17  C   UNL     1      -5.323  -9.656  11.654  0.00  0.00    +0.164 C 
ATOM     18  C   UNL     1      -5.723  -8.471  10.772  0.00  0.00    +0.052 C 
ATOM     19  C   UNL     1      -5.504  -9.919   8.731  0.00  0.00    +0.039 C 
ATOM     20  C   UNL     1      -5.226 -11.120   9.626  0.00  0.00    +0.110 C 
ATOM     22  C   UNL     1      -3.555 -11.471  11.402  0.00  0.00    +0.265 C 
ENDROOT
BRANCH  22  24
ATOM     10  N   UNL     1      -1.896 -10.223  12.826  0.00  0.00    -0.262 N 
ATOM     12  N   UNL     1      -1.542 -10.011  14.105  0.00  0.00    -0.176 NA
ATOM     24  C   UNL     1      -2.959 -11.065  12.680  0.00  0.00    +0.123 A 
ATOM     28  C   UNL     1      -3.325 -11.430  13.953  0.00  0.00    +0.057 A 
ATOM     31  C   UNL     1      -2.419 -10.751  14.789  0.00  0.00    +0.061 A 
ATOM     34  C   UNL     1      -1.155  -9.571  11.771  0.00  0.00    +0.173 C 
ATOM     38  C   UNL     1      -2.359 -10.784  16.259  0.00  0.00    +0.067 C 
ENDBRANCH  22  24
BRANCH  17  21
ATOM      2  O   UNL     1      -6.757 -11.486  12.201  0.00  0.00    -0.274 OA
ATOM      9  N   UNL     1      -7.257  -9.373  13.039  0.00  0.00    -0.302 N 
ATOM     21  C   UNL     1      -6.508 -10.289  12.322  0.00  0.00    +0.234 C 
ATOM     44  H   UNL     1      -6.926  -8.415  13.115  0.00  0.00    +0.150 HD
BRANCH   9  23
ATOM     23  C   UNL     1      -8.462  -9.724  13.757  0.00  0.00    +0.163 C 
BRANCH  23  29
ATOM      6  O   UNL     1      -9.948  -9.368  11.868  0.00  0.00    -0.274 OA
ATOM     15  N   UNL     1      -9.842 -11.464  12.802  0.00  0.00    -0.328 N 
ATOM     29  C   UNL     1      -9.498 -10.130  12.720  0.00  0.00    +0.231 C 
ATOM     46  H   UNL     1     -10.514 -11.868  12.159  0.00  0.00    +0.145 HD
ATOM     47  H   UNL     1      -9.445 -12.087  13.497  0.00  0.00    +0.145 HD
ENDBRANCH  23  29
BRANCH  23  25
ATOM     25  C   UNL     1      -8.230 -10.863  14.755  0.00  0.00    +0.069 C 
BRANCH  25  27
ATOM     14  N   UNL     1      -7.877  -9.159  18.001  0.00  0.00    -0.360 N 
ATOM     27  C   UNL     1      -7.888 -10.367  16.140  0.00  0.00    -0.020 A 
ATOM     32  C   UNL     1      -6.933 -10.932  17.030  0.00  0.00    +0.003 A 
ATOM     33  C   UNL     1      -8.451  -9.279  16.765  0.00  0.00    +0.087 A 
ATOM     35  C   UNL     1      -6.946 -10.156  18.191  0.00  0.00    +0.047 A 
ATOM     37  C   UNL     1      -6.057 -12.033  16.961  0.00  0.00    +0.010 A 
ATOM     39  C   UNL     1      -6.123 -10.426  19.289  0.00  0.00    +0.026 A 
ATOM     41  C   UNL     1      -5.228 -12.317  18.052  0.00  0.00    +0.001 A 
ATOM     42  C   UNL     1      -5.261 -11.524  19.198  0.00  0.00    +0.002 A 
ATOM     45  H   UNL     1      -8.101  -8.442  18.678  0.00  0.00    +0.165 HD
ENDBRANCH  25  27
ENDBRANCH  23  25
ENDBRANCH   9  23
ENDBRANCH  17  21
BRANCH  16   8
ATOM      8  N   UNL     1      -6.558  -7.708   8.588  0.00  0.00    -0.185 NA
ATOM     43  H   UNL     1      -5.834  -6.985   8.697  0.00  0.00    +0.148 HD
BRANCH   8   1
ATOM      1  S   UNL     1      -8.122  -7.195   8.175  0.00  0.00    +0.077 S 
ATOM      4  O   UNL     1      -8.211  -5.754   8.311  0.00  0.00    -0.152 OA
ATOM      5  O   UNL     1      -9.085  -8.050   8.844  0.00  0.00    -0.152 OA
BRANCH   1  26
ATOM     11  N   UNL     1      -7.200  -8.295   5.823  0.00  0.00    -0.216 NA
ATOM     13  N   UNL     1      -8.800  -7.769   4.376  0.00  0.00    -0.338 N 
ATOM     26  C   UNL     1      -8.193  -7.587   6.453  0.00  0.00    +0.211 A 
ATOM     30  C   UNL     1      -9.196  -7.249   5.575  0.00  0.00    +0.135 A 
ATOM     36  C   UNL     1      -7.597  -8.387   4.574  0.00  0.00    +0.201 A 
ATOM     40  C   UNL     1      -9.518  -7.682   3.128  0.00  0.00    +0.150 C 
ENDBRANCH   1  26
ENDBRANCH   8   1
ENDBRANCH  16   8
TORSDOF 9
ENDMDL
MODEL 4
REMARK VINA RESULT:      -7.0      3.404      5.296
REMARK  Name = 44716827
REMARK  12 active torsions:
REMARK  status: ('A' for Active; 'I' for Inactive)
REMARK    1  A    between atoms: S_1  and  N_8
REMARK    2  A    between atoms: S_1  and  C_26
REMARK    3  A    between atoms: N_8  and  C_16
REMARK    4  A    between atoms: N_9  and  C_23
REMARK    5  A    between atoms: N_10  and  C_34
REMARK    6  A    between atoms: N_13  and  C_40
REMARK    7  A    between atoms: C_17  and  C_21
REMARK    8  A    between atoms: C_22  and  C_24
REMARK    9  A    between atoms: C_23  and  C_25
REMARK   10  A    between atoms: C_23  and  C_29
REMARK   11  A    between atoms: C_25  and  C_27
REMARK   12  A    between atoms: C_31  and  C_38
REMARK                            x       y       z     vdW  Elec       q    Type
REMARK                         _______ _______ _______ _____ _____    ______ ____
ROOT
ATOM      3  O   UNL     1      -3.307 -12.561  10.792  0.00  0.00    -0.268 OA
ATOM      7  N   UNL     1      -4.888 -10.830  10.878  0.00  0.00    -0.285 N 
ATOM     16  C   UNL     1      -6.708  -9.046   9.473  0.00  0.00    +0.080 C 
ATOM     17  C   UNL     1      -5.539  -9.745  11.633  0.00  0.00    +0.164 C 
ATOM     18  C   UNL     1      -5.988  -8.584  10.741  0.00  0.00    +0.052 C 
ATOM     19  C   UNL     1      -5.877 -10.088   8.732  0.00  0.00    +0.039 C 
ATOM     20  C   UNL     1      -5.550 -11.264   9.643  0.00  0.00    +0.110 C 
ATOM     22  C   UNL     1      -3.786 -11.566  11.335  0.00  0.00    +0.265 C 
ENDROOT
BRANCH  22  24
ATOM     10  N   UNL     1      -2.055 -10.280  12.633  0.00  0.00    -0.262 N 
ATOM     12  N   UNL     1      -1.632 -10.033  13.885  0.00  0.00    -0.176 NA
ATOM     24  C   UNL     1      -3.122 -11.126  12.568  0.00  0.00    +0.123 A 
ATOM     28  C   UNL     1      -3.418 -11.457  13.868  0.00  0.00    +0.057 A 
ATOM     31  C   UNL     1      -2.470 -10.755  14.635  0.00  0.00    +0.061 A 
ATOM     34  C   UNL     1      -1.373  -9.656  11.523  0.00  0.00    +0.173 C 
ATOM     38  C   UNL     1      -2.329 -10.748  16.100  0.00  0.00    +0.067 C 
ENDBRANCH  22  24
BRANCH  17  21
ATOM      2  O   UNL     1      -6.973 -11.547  12.265  0.00  0.00    -0.274 OA
ATOM      9  N   UNL     1      -7.356  -9.434  13.163  0.00  0.00    -0.302 N 
ATOM     21  C   UNL     1      -6.686 -10.358  12.381  0.00  0.00    +0.234 C 
ATOM     44  H   UNL     1      -6.997  -8.485  13.224  0.00  0.00    +0.150 HD
BRANCH   9  23
ATOM     23  C   UNL     1      -8.512  -9.766  13.965  0.00  0.00    +0.163 C 
BRANCH  23  29
ATOM      6  O   UNL     1     -10.108  -9.343  12.183  0.00  0.00    -0.274 OA
ATOM     15  N   UNL     1     -10.036 -11.440  13.117  0.00  0.00    -0.328 N 
ATOM     29  C   UNL     1      -9.636 -10.124  13.004  0.00  0.00    +0.231 C 
ATOM     46  H   UNL     1     -10.769 -11.813  12.523  0.00  0.00    +0.145 HD
ATOM     47  H   UNL     1      -9.621 -12.081  13.785  0.00  0.00    +0.145 HD
ENDBRANCH  23  29
BRANCH  23  25
ATOM     25  C   UNL     1      -8.237 -10.930  14.924  0.00  0.00    +0.069 C 
BRANCH  25  27
ATOM     14  N   UNL     1      -7.842  -9.327  18.216  0.00  0.00    -0.360 N 
ATOM     27  C   UNL     1      -7.869 -10.469  16.313  0.00  0.00    -0.020 A 
ATOM     32  C   UNL     1      -6.864 -11.027  17.152  0.00  0.00    +0.003 A 
ATOM     33  C   UNL     1      -8.452  -9.426  16.994  0.00  0.00    +0.087 A 
ATOM     35  C   UNL     1      -6.869 -10.292  18.340  0.00  0.00    +0.047 A 
ATOM     37  C   UNL     1      -5.951 -12.090  17.016  0.00  0.00    +0.010 A 
ATOM     39  C   UNL     1      -6.000 -10.568  19.401  0.00  0.00    +0.026 A 
ATOM     41  C   UNL     1      -5.076 -12.379  18.070  0.00  0.00    +0.001 A 
ATOM     42  C   UNL     1      -5.102 -11.628  19.244  0.00  0.00    +0.002 A 
ATOM     45  H   UNL     1      -8.071  -8.643  18.924  0.00  0.00    +0.165 HD
ENDBRANCH  25  27
ENDBRANCH  23  25
ENDBRANCH   9  23
ENDBRANCH  17  21
BRANCH  16   8
ATOM      8  N   UNL     1      -6.939  -7.880   8.585  0.00  0.00    -0.185 NA
ATOM     43  H   UNL     1      -6.628  -6.980   8.974  0.00  0.00    +0.148 HD
BRANCH   8   1
ATOM      1  S   UNL     1      -8.278  -7.865   7.542  0.00  0.00    +0.077 S 
ATOM      4  O   UNL     1      -8.920  -9.165   7.559  0.00  0.00    -0.152 OA
ATOM      5  O   UNL     1      -7.881  -7.265   6.282  0.00  0.00    -0.152 OA
BRANCH   1  26
ATOM     11  N   UNL     1      -9.202  -5.357   8.213  0.00  0.00    -0.216 NA
ATOM     13  N   UNL     1     -10.930  -5.808   9.533  0.00  0.00    -0.338 N 
ATOM     26  C   UNL     1      -9.354  -6.715   8.345  0.00  0.00    +0.211 A 
ATOM     30  C   UNL     1     -10.419  -7.018   9.160  0.00  0.00    +0.135 A 
ATOM     36  C   UNL     1     -10.167  -4.841   8.940  0.00  0.00    +0.201 A 
ATOM     40  C   UNL     1     -12.066  -5.589  10.395  0.00  0.00    +0.150 C 
ENDBRANCH   1  26
ENDBRANCH   8   1
ENDBRANCH  16   8
TORSDOF 9
ENDMDL
MODEL 5
REMARK VINA RESULT:      -6.8     26.435     29.672
REMARK  Name = 44716827
REMARK  12 active torsions:
REMARK  status: ('A' for Active; 'I' for Inactive)
REMARK    1  A    between atoms: S_1  and  N_8
REMARK    2  A    between atoms: S_1  and  C_26
REMARK    3  A    between atoms: N_8  and  C_16
REMARK    4  A    between atoms: N_9  and  C_23
REMARK    5  A    between atoms: N_10  and  C_34
REMARK    6  A    between atoms: N_13  and  C_40
REMARK    7  A    between atoms: C_17  and  C_21
REMARK    8  A    between atoms: C_22  and  C_24
REMARK    9  A    between atoms: C_23  and  C_25
REMARK   10  A    between atoms: C_23  and  C_29
REMARK   11  A    between atoms: C_25  and  C_27
REMARK   12  A    between atoms: C_31  and  C_38
REMARK                            x       y       z     vdW  Elec       q    Type
REMARK                         _______ _______ _______ _____ _____    ______ ____
ROOT
ATOM      3  O   UNL     1      17.209  10.837   3.976  0.00  0.00    -0.268 OA
ATOM      7  N   UNL     1      15.847   8.969   4.373  0.00  0.00    -0.285 N 
ATOM     16  C   UNL     1      13.472   7.838   5.617  0.00  0.00    +0.080 C 
ATOM     17  C   UNL     1      15.658   7.508   4.341  0.00  0.00    +0.164 C 
ATOM     18  C   UNL     1      14.742   7.000   5.457  0.00  0.00    +0.052 C 
ATOM     19  C   UNL     1      13.817   9.317   5.749  0.00  0.00    +0.039 C 
ATOM     20  C   UNL     1      14.642   9.786   4.558  0.00  0.00    +0.110 C 
ATOM     22  C   UNL     1      17.055   9.622   4.088  0.00  0.00    +0.265 C 
ENDROOT
BRANCH  22  24
ATOM     10  N   UNL     1      18.805   8.447   2.713  0.00  0.00    -0.262 N 
ATOM     12  N   UNL     1      19.911   7.690   2.822  0.00  0.00    -0.176 NA
ATOM     24  C   UNL     1      18.260   8.802   3.911  0.00  0.00    +0.123 A 
ATOM     28  C   UNL     1      19.064   8.238   4.871  0.00  0.00    +0.057 A 
ATOM     31  C   UNL     1      20.064   7.567   4.143  0.00  0.00    +0.061 A 
ATOM     34  C   UNL     1      18.318   8.799   1.399  0.00  0.00    +0.173 C 
ATOM     38  C   UNL     1      21.193   6.789   4.679  0.00  0.00    +0.067 C 
ENDBRANCH  22  24
BRANCH  17  21
ATOM      2  O   UNL     1      15.000   8.016   2.102  0.00  0.00    -0.274 OA
ATOM      9  N   UNL     1      14.812   5.824   2.863  0.00  0.00    -0.302 N 
ATOM     21  C   UNL     1      15.133   7.165   2.978  0.00  0.00    +0.234 C 
ATOM     44  H   UNL     1      15.013   5.199   3.638  0.00  0.00    +0.150 HD
BRANCH   9  23
ATOM     23  C   UNL     1      14.265   5.242   1.658  0.00  0.00    +0.163 C 
BRANCH  23  29
ATOM      6  O   UNL     1      15.701   4.090   0.071  0.00  0.00    -0.274 OA
ATOM     15  N   UNL     1      15.569   3.286   2.219  0.00  0.00    -0.328 N 
ATOM     29  C   UNL     1      15.232   4.158   1.205  0.00  0.00    +0.231 C 
ATOM     46  H   UNL     1      16.217   2.523   2.054  0.00  0.00    +0.145 HD
ATOM     47  H   UNL     1      15.190   3.368   3.157  0.00  0.00    +0.145 HD
ENDBRANCH  23  29
BRANCH  23  25
ATOM     25  C   UNL     1      12.868   4.653   1.881  0.00  0.00    +0.069 C 
BRANCH  25  27
ATOM     14  N   UNL     1      10.384   5.790  -0.589  0.00  0.00    -0.360 N 
ATOM     27  C   UNL     1      11.939   4.892   0.715  0.00  0.00    -0.020 A 
ATOM     32  C   UNL     1      11.840   4.104  -0.465  0.00  0.00    +0.003 A 
ATOM     33  C   UNL     1      11.032   5.921   0.610  0.00  0.00    +0.087 A 
ATOM     35  C   UNL     1      10.858   4.690  -1.267  0.00  0.00    +0.047 A 
ATOM     37  C   UNL     1      12.494   2.946  -0.930  0.00  0.00    +0.010 A 
ATOM     39  C   UNL     1      10.495   4.171  -2.515  0.00  0.00    +0.026 A 
ATOM     41  C   UNL     1      12.142   2.417  -2.177  0.00  0.00    +0.001 A 
ATOM     42  C   UNL     1      11.157   3.022  -2.956  0.00  0.00    +0.002 A 
ATOM     45  H   UNL     1       9.662   6.410  -0.928  0.00  0.00    +0.165 HD
ENDBRANCH  25  27
ENDBRANCH  23  25
ENDBRANCH   9  23
ENDBRANCH  17  21
BRANCH  16   8
ATOM      8  N   UNL     1      12.740   7.395   6.829  0.00  0.00    -0.185 NA
ATOM     43  H   UNL     1      13.343   7.090   7.605  0.00  0.00    +0.148 HD
BRANCH   8   1
ATOM      1  S   UNL     1      11.223   6.649   6.675  0.00  0.00    +0.077 S 
ATOM      4  O   UNL     1      10.852   6.042   7.939  0.00  0.00    -0.152 OA
ATOM      5  O   UNL     1      11.212   5.860   5.457  0.00  0.00    -0.152 OA
BRANCH   1  26
ATOM     11  N   UNL     1      10.199   9.153   7.196  0.00  0.00    -0.216 NA
ATOM     13  N   UNL     1       8.657   9.391   5.617  0.00  0.00    -0.338 N 
ATOM     26  C   UNL     1      10.160   8.034   6.403  0.00  0.00    +0.211 A 
ATOM     30  C   UNL     1       9.210   8.159   5.416  0.00  0.00    +0.135 A 
ATOM     36  C   UNL     1       9.283   9.951   6.696  0.00  0.00    +0.201 A 
ATOM     40  C   UNL     1       7.606   9.994   4.834  0.00  0.00    +0.150 C 
ENDBRANCH   1  26
ENDBRANCH   8   1
ENDBRANCH  16   8
TORSDOF 9
ENDMDL
MODEL 6
REMARK VINA RESULT:      -6.7      3.436      5.853
REMARK  Name = 44716827
REMARK  12 active torsions:
REMARK  status: ('A' for Active; 'I' for Inactive)
REMARK    1  A    between atoms: S_1  and  N_8
REMARK    2  A    between atoms: S_1  and  C_26
REMARK    3  A    between atoms: N_8  and  C_16
REMARK    4  A    between atoms: N_9  and  C_23
REMARK    5  A    between atoms: N_10  and  C_34
REMARK    6  A    between atoms: N_13  and  C_40
REMARK    7  A    between atoms: C_17  and  C_21
REMARK    8  A    between atoms: C_22  and  C_24
REMARK    9  A    between atoms: C_23  and  C_25
REMARK   10  A    between atoms: C_23  and  C_29
REMARK   11  A    between atoms: C_25  and  C_27
REMARK   12  A    between atoms: C_31  and  C_38
REMARK                            x       y       z     vdW  Elec       q    Type
REMARK                         _______ _______ _______ _____ _____    ______ ____
ROOT
ATOM      3  O   UNL     1      -3.387 -12.696  11.188  0.00  0.00    -0.268 OA
ATOM      7  N   UNL     1      -4.727 -10.773  11.111  0.00  0.00    -0.285 N 
ATOM     16  C   UNL     1      -6.350  -8.929   9.550  0.00  0.00    +0.080 C 
ATOM     17  C   UNL     1      -5.205  -9.534  11.750  0.00  0.00    +0.164 C 
ATOM     18  C   UNL     1      -5.531  -8.430  10.742  0.00  0.00    +0.052 C 
ATOM     19  C   UNL     1      -5.687 -10.146   8.915  0.00  0.00    +0.039 C 
ATOM     20  C   UNL     1      -5.483 -11.248   9.946  0.00  0.00    +0.110 C 
ATOM     22  C   UNL     1      -3.713 -11.593  11.625  0.00  0.00    +0.265 C 
ENDROOT
BRANCH  22  24
ATOM     10  N   UNL     1      -1.920 -10.225  12.743  0.00  0.00    -0.262 N 
ATOM     12  N   UNL     1      -1.392  -9.946  13.947  0.00  0.00    -0.176 NA
ATOM     24  C   UNL     1      -2.954 -11.112  12.786  0.00  0.00    +0.123 A 
ATOM     28  C   UNL     1      -3.115 -11.437  14.111  0.00  0.00    +0.057 A 
ATOM     31  C   UNL     1      -2.127 -10.689  14.779  0.00  0.00    +0.061 A 
ATOM     34  C   UNL     1      -1.370  -9.590  11.567  0.00  0.00    +0.173 C 
ATOM     38  C   UNL     1      -1.850 -10.658  16.224  0.00  0.00    +0.067 C 
ENDBRANCH  22  24
BRANCH  17  21
ATOM      2  O   UNL     1      -7.464 -10.236  12.081  0.00  0.00    -0.274 OA
ATOM      9  N   UNL     1      -6.134  -9.803  13.942  0.00  0.00    -0.302 N 
ATOM     21  C   UNL     1      -6.394  -9.905  12.587  0.00  0.00    +0.234 C 
ATOM     44  H   UNL     1      -5.193  -9.570  14.249  0.00  0.00    +0.150 HD
BRANCH   9  23
ATOM     23  C   UNL     1      -7.121 -10.083  14.961  0.00  0.00    +0.163 C 
BRANCH  23  29
ATOM      6  O   UNL     1      -6.362 -12.324  15.516  0.00  0.00    -0.274 OA
ATOM     15  N   UNL     1      -8.468 -12.064  14.638  0.00  0.00    -0.328 N 
ATOM     29  C   UNL     1      -7.242 -11.596  15.063  0.00  0.00    +0.231 C 
ATOM     46  H   UNL     1      -8.685 -13.054  14.666  0.00  0.00    +0.145 HD
ATOM     47  H   UNL     1      -9.194 -11.448  14.286  0.00  0.00    +0.145 HD
ENDBRANCH  23  29
BRANCH  23  25
ATOM     25  C   UNL     1      -6.737  -9.485  16.319  0.00  0.00    +0.069 C 
BRANCH  25  27
ATOM     14  N   UNL     1      -8.603 -10.608  19.288  0.00  0.00    -0.360 N 
ATOM     27  C   UNL     1      -7.728  -9.822  17.407  0.00  0.00    -0.020 A 
ATOM     32  C   UNL     1      -9.113  -9.496  17.423  0.00  0.00    +0.003 A 
ATOM     33  C   UNL     1      -7.445 -10.506  18.567  0.00  0.00    +0.087 A 
ATOM     35  C   UNL     1      -9.638 -10.000  18.615  0.00  0.00    +0.047 A 
ATOM     37  C   UNL     1      -9.971  -8.818  16.536  0.00  0.00    +0.010 A 
ATOM     39  C   UNL     1     -10.986  -9.860  18.964  0.00  0.00    +0.026 A 
ATOM     41  C   UNL     1     -11.322  -8.669  16.872  0.00  0.00    +0.001 A 
ATOM     42  C   UNL     1     -11.820  -9.183  18.069  0.00  0.00    +0.002 A 
ATOM     45  H   UNL     1      -8.688 -11.066  20.186  0.00  0.00    +0.165 HD
ENDBRANCH  25  27
ENDBRANCH  23  25
ENDBRANCH   9  23
ENDBRANCH  17  21
BRANCH  16   8
ATOM      8  N   UNL     1      -6.460  -7.847   8.540  0.00  0.00    -0.185 NA
ATOM     43  H   UNL     1      -5.617  -7.266   8.444  0.00  0.00    +0.148 HD
BRANCH   8   1
ATOM      1  S   UNL     1      -7.960  -7.107   8.255  0.00  0.00    +0.077 S 
ATOM      4  O   UNL     1      -7.803  -5.666   8.291  0.00  0.00    -0.152 OA
ATOM      5  O   UNL     1      -8.964  -7.751   9.081  0.00  0.00    -0.152 OA
BRANCH   1  26
ATOM     11  N   UNL     1      -9.359  -7.085   5.881  0.00  0.00    -0.216 NA
ATOM     13  N   UNL     1      -8.195  -8.488   4.613  0.00  0.00    -0.338 N 
ATOM     26  C   UNL     1      -8.288  -7.578   6.583  0.00  0.00    +0.211 A 
ATOM     30  C   UNL     1      -7.552  -8.451   5.817  0.00  0.00    +0.135 A 
ATOM     36  C   UNL     1      -9.274  -7.652   4.699  0.00  0.00    +0.201 A 
ATOM     40  C   UNL     1      -7.809  -9.266   3.461  0.00  0.00    +0.150 C 
ENDBRANCH   1  26
ENDBRANCH   8   1
ENDBRANCH  16   8
TORSDOF 9
ENDMDL
MODEL 7
REMARK VINA RESULT:      -6.6     26.345     29.711
REMARK  Name = 44716827
REMARK  12 active torsions:
REMARK  status: ('A' for Active; 'I' for Inactive)
REMARK    1  A    between atoms: S_1  and  N_8
REMARK    2  A    between atoms: S_1  and  C_26
REMARK    3  A    between atoms: N_8  and  C_16
REMARK    4  A    between atoms: N_9  and  C_23
REMARK    5  A    between atoms: N_10  and  C_34
REMARK    6  A    between atoms: N_13  and  C_40
REMARK    7  A    between atoms: C_17  and  C_21
REMARK    8  A    between atoms: C_22  and  C_24
REMARK    9  A    between atoms: C_23  and  C_25
REMARK   10  A    between atoms: C_23  and  C_29
REMARK   11  A    between atoms: C_25  and  C_27
REMARK   12  A    between atoms: C_31  and  C_38
REMARK                            x       y       z     vdW  Elec       q    Type
REMARK                         _______ _______ _______ _____ _____    ______ ____
ROOT
ATOM      3  O   UNL     1      17.429  10.815   4.444  0.00  0.00    -0.268 OA
ATOM      7  N   UNL     1      16.048   8.942   4.735  0.00  0.00    -0.285 N 
ATOM     16  C   UNL     1      13.700   7.746   5.971  0.00  0.00    +0.080 C 
ATOM     17  C   UNL     1      15.829   7.492   4.587  0.00  0.00    +0.164 C 
ATOM     18  C   UNL     1      14.947   6.906   5.691  0.00  0.00    +0.052 C 
ATOM     19  C   UNL     1      14.077   9.204   6.214  0.00  0.00    +0.039 C 
ATOM     20  C   UNL     1      14.866   9.759   5.035  0.00  0.00    +0.110 C 
ATOM     22  C   UNL     1      17.256   9.597   4.459  0.00  0.00    +0.265 C 
ENDROOT
BRANCH  22  24
ATOM     10  N   UNL     1      18.899   8.471   2.920  0.00  0.00    -0.262 N 
ATOM     12  N   UNL     1      20.000   7.701   2.922  0.00  0.00    -0.176 NA
ATOM     24  C   UNL     1      18.437   8.777   4.166  0.00  0.00    +0.123 A 
ATOM     28  C   UNL     1      19.297   8.164   5.045  0.00  0.00    +0.057 A 
ATOM     31  C   UNL     1      20.239   7.518   4.223  0.00  0.00    +0.061 A 
ATOM     34  C   UNL     1      18.329   8.885   1.658  0.00  0.00    +0.173 C 
ATOM     38  C   UNL     1      21.392   6.707   4.648  0.00  0.00    +0.067 C 
ENDBRANCH  22  24
BRANCH  17  21
ATOM      2  O   UNL     1      15.031   8.208   2.453  0.00  0.00    -0.274 OA
ATOM      9  N   UNL     1      14.977   5.940   2.974  0.00  0.00    -0.302 N 
ATOM     21  C   UNL     1      15.247   7.275   3.222  0.00  0.00    +0.234 C 
ATOM     44  H   UNL     1      15.246   5.245   3.664  0.00  0.00    +0.150 HD
BRANCH   9  23
ATOM     23  C   UNL     1      14.391   5.467   1.739  0.00  0.00    +0.163 C 
BRANCH  23  29
ATOM      6  O   UNL     1      14.661   3.057   1.885  0.00  0.00    -0.274 OA
ATOM     15  N   UNL     1      16.071   4.239   0.509  0.00  0.00    -0.328 N 
ATOM     29  C   UNL     1      15.040   4.129   1.420  0.00  0.00    +0.231 C 
ATOM     46  H   UNL     1      16.580   3.418   0.199  0.00  0.00    +0.145 HD
ATOM     47  H   UNL     1      16.358   5.129   0.116  0.00  0.00    +0.145 HD
ENDBRANCH  23  29
BRANCH  23  25
ATOM     25  C   UNL     1      12.870   5.313   1.841  0.00  0.00    +0.069 C 
BRANCH  25  27
ATOM     14  N   UNL     1      11.558   7.859  -0.474  0.00  0.00    -0.360 N 
ATOM     27  C   UNL     1      12.122   6.385   1.086  0.00  0.00    -0.020 A 
ATOM     32  C   UNL     1      10.915   7.021   1.491  0.00  0.00    +0.003 A 
ATOM     33  C   UNL     1      12.492   6.922  -0.125  0.00  0.00    +0.087 A 
ATOM     35  C   UNL     1      10.583   7.940   0.494  0.00  0.00    +0.047 A 
ATOM     37  C   UNL     1      10.070   6.900   2.611  0.00  0.00    +0.010 A 
ATOM     39  C   UNL     1       9.444   8.751   0.564  0.00  0.00    +0.026 A 
ATOM     41  C   UNL     1       8.927   7.704   2.695  0.00  0.00    +0.001 A 
ATOM     42  C   UNL     1       8.620   8.614   1.685  0.00  0.00    +0.002 A 
ATOM     45  H   UNL     1      11.581   8.413  -1.319  0.00  0.00    +0.165 HD
ENDBRANCH  25  27
ENDBRANCH  23  25
ENDBRANCH   9  23
ENDBRANCH  17  21
BRANCH  16   8
ATOM      8  N   UNL     1      13.005   7.214   7.169  0.00  0.00    -0.185 NA
ATOM     43  H   UNL     1      13.629   6.798   7.874  0.00  0.00    +0.148 HD
BRANCH   8   1
ATOM      1  S   UNL     1      11.444   6.565   7.023  0.00  0.00    +0.077 S 
ATOM      4  O   UNL     1      11.122   5.804   8.215  0.00  0.00    -0.152 OA
ATOM      5  O   UNL     1      11.312   5.956   5.712  0.00  0.00    -0.152 OA
BRANCH   1  26
ATOM     11  N   UNL     1       9.330   8.141   6.222  0.00  0.00    -0.216 NA
ATOM     13  N   UNL     1       9.616   9.989   7.419  0.00  0.00    -0.338 N 
ATOM     26  C   UNL     1      10.442   8.021   7.018  0.00  0.00    +0.211 A 
ATOM     30  C   UNL     1      10.639   9.156   7.769  0.00  0.00    +0.135 A 
ATOM     36  C   UNL     1       8.856   9.337   6.488  0.00  0.00    +0.201 A 
ATOM     40  C   UNL     1       9.379  11.315   7.936  0.00  0.00    +0.150 C 
ENDBRANCH   1  26
ENDBRANCH   8   1
ENDBRANCH  16   8
TORSDOF 9
ENDMDL
MODEL 8
REMARK VINA RESULT:      -6.6      3.304      4.950
REMARK  Name = 44716827
REMARK  12 active torsions:
REMARK  status: ('A' for Active; 'I' for Inactive)
REMARK    1  A    between atoms: S_1  and  N_8
REMARK    2  A    between atoms: S_1  and  C_26
REMARK    3  A    between atoms: N_8  and  C_16
REMARK    4  A    between atoms: N_9  and  C_23
REMARK    5  A    between atoms: N_10  and  C_34
REMARK    6  A    between atoms: N_13  and  C_40
REMARK    7  A    between atoms: C_17  and  C_21
REMARK    8  A    between atoms: C_22  and  C_24
REMARK    9  A    between atoms: C_23  and  C_25
REMARK   10  A    between atoms: C_23  and  C_29
REMARK   11  A    between atoms: C_25  and  C_27
REMARK   12  A    between atoms: C_31  and  C_38
REMARK                            x       y       z     vdW  Elec       q    Type
REMARK                         _______ _______ _______ _____ _____    ______ ____
ROOT
ATOM      3  O   UNL     1      -4.011 -12.973  11.745  0.00  0.00    -0.268 OA
ATOM      7  N   UNL     1      -5.455 -11.137  11.953  0.00  0.00    -0.285 N 
ATOM     16  C   UNL     1      -7.522  -9.449  10.791  0.00  0.00    +0.080 C 
ATOM     17  C   UNL     1      -5.849  -9.907  12.664  0.00  0.00    +0.164 C 
ATOM     18  C   UNL     1      -6.478  -8.860  11.742  0.00  0.00    +0.052 C 
ATOM     19  C   UNL     1      -6.950 -10.646  10.039  0.00  0.00    +0.039 C 
ATOM     20  C   UNL     1      -6.433 -11.697  11.013  0.00  0.00    +0.110 C 
ATOM     22  C   UNL     1      -4.296 -11.877  12.226  0.00  0.00    +0.265 C 
ENDROOT
BRANCH  22  24
ATOM     10  N   UNL     1      -2.342 -10.413  12.839  0.00  0.00    -0.262 N 
ATOM     12  N   UNL     1      -1.573 -10.050  13.879  0.00  0.00    -0.176 NA
ATOM     24  C   UNL     1      -3.317 -11.311  13.161  0.00  0.00    +0.123 A 
ATOM     28  C   UNL     1      -3.175 -11.552  14.506  0.00  0.00    +0.057 A 
ATOM     31  C   UNL     1      -2.087 -10.748  14.895  0.00  0.00    +0.061 A 
ATOM     34  C   UNL     1      -2.080  -9.848  11.536  0.00  0.00    +0.173 C 
ATOM     38  C   UNL     1      -1.504 -10.620  16.240  0.00  0.00    +0.067 C 
ENDBRANCH  22  24
BRANCH  17  21
ATOM      2  O   UNL     1      -7.761 -11.025  13.558  0.00  0.00    -0.274 OA
ATOM      9  N   UNL     1      -6.400  -9.796  14.992  0.00  0.00    -0.302 N 
ATOM     21  C   UNL     1      -6.778 -10.319  13.768  0.00  0.00    +0.234 C 
ATOM     44  H   UNL     1      -5.535  -9.267  15.059  0.00  0.00    +0.150 HD
BRANCH   9  23
ATOM     23  C   UNL     1      -7.140 -10.025  16.213  0.00  0.00    +0.163 C 
BRANCH  23  29
ATOM      6  O   UNL     1      -4.906 -10.266  17.137  0.00  0.00    -0.274 OA
ATOM     15  N   UNL     1      -6.706 -10.488  18.545  0.00  0.00    -0.328 N 
ATOM     29  C   UNL     1      -6.121 -10.283  17.313  0.00  0.00    +0.231 C 
ATOM     46  H   UNL     1      -6.138 -10.658  19.369  0.00  0.00    +0.145 HD
ATOM     47  H   UNL     1      -7.712 -10.477  18.680  0.00  0.00    +0.145 HD
ENDBRANCH  23  29
BRANCH  23  25
ATOM     25  C   UNL     1      -8.034  -8.836  16.580  0.00  0.00    +0.069 C 
BRANCH  25  27
ATOM     14  N   UNL     1     -11.422 -10.191  16.088  0.00  0.00    -0.360 N 
ATOM     27  C   UNL     1      -9.500  -9.115  16.358  0.00  0.00    -0.020 A 
ATOM     32  C   UNL     1     -10.528  -8.149  16.167  0.00  0.00    +0.003 A 
ATOM     33  C   UNL     1     -10.081 -10.361  16.303  0.00  0.00    +0.087 A 
ATOM     35  C   UNL     1     -11.723  -8.851  16.001  0.00  0.00    +0.047 A 
ATOM     37  C   UNL     1     -10.555  -6.742  16.122  0.00  0.00    +0.010 A 
ATOM     39  C   UNL     1     -12.950  -8.212  15.789  0.00  0.00    +0.026 A 
ATOM     41  C   UNL     1     -11.775  -6.089  15.911  0.00  0.00    +0.001 A 
ATOM     42  C   UNL     1     -12.953  -6.815  15.747  0.00  0.00    +0.002 A 
ATOM     45  H   UNL     1     -12.095 -10.941  16.003  0.00  0.00    +0.165 HD
ENDBRANCH  25  27
ENDBRANCH  23  25
ENDBRANCH   9  23
ENDBRANCH  17  21
BRANCH  16   8
ATOM      8  N   UNL     1      -7.941  -8.412   9.816  0.00  0.00    -0.185 NA
ATOM     43  H   UNL     1      -7.525  -7.484   9.975  0.00  0.00    +0.148 HD
BRANCH   8   1
ATOM      1  S   UNL     1      -9.495  -8.469   9.136  0.00  0.00    +0.077 S 
ATOM      4  O   UNL     1     -10.405  -9.112  10.064  0.00  0.00    -0.152 OA
ATOM      5  O   UNL     1      -9.390  -8.947   7.770  0.00  0.00    -0.152 OA
BRANCH   1  26
ATOM     11  N   UNL     1      -9.069  -5.815   8.531  0.00  0.00    -0.216 NA
ATOM     13  N   UNL     1     -10.951  -4.850   9.207  0.00  0.00    -0.338 N 
ATOM     26  C   UNL     1      -9.921  -6.756   9.053  0.00  0.00    +0.211 A 
ATOM     30  C   UNL     1     -11.095  -6.180   9.480  0.00  0.00    +0.135 A 
ATOM     36  C   UNL     1      -9.720  -4.678   8.638  0.00  0.00    +0.201 A 
ATOM     40  C   UNL     1     -11.920  -3.814   9.470  0.00  0.00    +0.150 C 
ENDBRANCH   1  26
ENDBRANCH   8   1
ENDBRANCH  16   8
TORSDOF 9
ENDMDL
MODEL 9
REMARK VINA RESULT:      -6.4     27.525     31.350
REMARK  Name = 44716827
REMARK  12 active torsions:
REMARK  status: ('A' for Active; 'I' for Inactive)
REMARK    1  A    between atoms: S_1  and  N_8
REMARK    2  A    between atoms: S_1  and  C_26
REMARK    3  A    between atoms: N_8  and  C_16
REMARK    4  A    between atoms: N_9  and  C_23
REMARK    5  A    between atoms: N_10  and  C_34
REMARK    6  A    between atoms: N_13  and  C_40
REMARK    7  A    between atoms: C_17  and  C_21
REMARK    8  A    between atoms: C_22  and  C_24
REMARK    9  A    between atoms: C_23  and  C_25
REMARK   10  A    between atoms: C_23  and  C_29
REMARK   11  A    between atoms: C_25  and  C_27
REMARK   12  A    between atoms: C_31  and  C_38
REMARK                            x       y       z     vdW  Elec       q    Type
REMARK                         _______ _______ _______ _____ _____    ______ ____
ROOT
ATOM      3  O   UNL     1      19.163  11.378  19.992  0.00  0.00    -0.268 OA
ATOM      7  N   UNL     1      17.025  11.090  20.910  0.00  0.00    -0.285 N 
ATOM     16  C   UNL     1      14.398  12.196  21.502  0.00  0.00    +0.080 C 
ATOM     17  C   UNL     1      16.101  10.311  21.754  0.00  0.00    +0.164 C 
ATOM     18  C   UNL     1      15.046  11.180  22.443  0.00  0.00    +0.052 C 
ATOM     19  C   UNL     1      15.463  13.009  20.772  0.00  0.00    +0.039 C 
ATOM     20  C   UNL     1      16.421  12.092  20.023  0.00  0.00    +0.110 C 
ATOM     22  C   UNL     1      18.398  10.835  20.786  0.00  0.00    +0.265 C 
ENDROOT
BRANCH  22  24
ATOM     10  N   UNL     1      19.538  10.095  22.905  0.00  0.00    -0.262 N 
ATOM     12  N   UNL     1      20.025   9.007  23.524  0.00  0.00    -0.176 NA
ATOM     24  C   UNL     1      18.999   9.837  21.679  0.00  0.00    +0.123 A 
ATOM     28  C   UNL     1      19.145   8.486  21.482  0.00  0.00    +0.057 A 
ATOM     31  C   UNL     1      19.782   8.027  22.650  0.00  0.00    +0.061 A 
ATOM     34  C   UNL     1      19.623  11.379  23.562  0.00  0.00    +0.173 C 
ATOM     38  C   UNL     1      20.179   6.645  22.970  0.00  0.00    +0.067 C 
ENDBRANCH  22  24
BRANCH  17  21
ATOM      2  O   UNL     1      16.128   8.693  19.997  0.00  0.00    -0.274 OA
ATOM      9  N   UNL     1      14.148   9.056  21.167  0.00  0.00    -0.302 N 
ATOM     21  C   UNL     1      15.485   9.263  20.876  0.00  0.00    +0.234 C 
ATOM     44  H   UNL     1      13.731   9.547  21.953  0.00  0.00    +0.150 HD
BRANCH   9  23
ATOM     23  C   UNL     1      13.318   8.114  20.449  0.00  0.00    +0.163 C 
BRANCH  23  29
ATOM      6  O   UNL     1      11.731   8.035  22.287  0.00  0.00    -0.274 OA
ATOM     15  N   UNL     1      12.441   6.055  21.364  0.00  0.00    -0.328 N 
ATOM     29  C   UNL     1      12.427   7.431  21.475  0.00  0.00    +0.231 C 
ATOM     46  H   UNL     1      11.878   5.478  21.980  0.00  0.00    +0.145 HD
ATOM     47  H   UNL     1      13.004   5.570  20.673  0.00  0.00    +0.145 HD
ENDBRANCH  23  29
BRANCH  23  25
ATOM     25  C   UNL     1      12.469   8.794  19.371  0.00  0.00    +0.069 C 
BRANCH  25  27
ATOM     14  N   UNL     1      14.154   8.421  16.117  0.00  0.00    -0.360 N 
ATOM     27  C   UNL     1      13.193   8.926  18.053  0.00  0.00    -0.020 A 
ATOM     32  C   UNL     1      13.681  10.130  17.471  0.00  0.00    +0.003 A 
ATOM     33  C   UNL     1      13.499   7.893  17.197  0.00  0.00    +0.087 A 
ATOM     35  C   UNL     1      14.278   9.785  16.257  0.00  0.00    +0.047 A 
ATOM     37  C   UNL     1      13.670  11.483  17.861  0.00  0.00    +0.010 A 
ATOM     39  C   UNL     1      14.870  10.730  15.412  0.00  0.00    +0.026 A 
ATOM     41  C   UNL     1      14.257  12.440  17.026  0.00  0.00    +0.001 A 
ATOM     42  C   UNL     1      14.847  12.067  15.819  0.00  0.00    +0.002 A 
ATOM     45  H   UNL     1      14.498   7.887  15.331  0.00  0.00    +0.165 HD
ENDBRANCH  25  27
ENDBRANCH  23  25
ENDBRANCH   9  23
ENDBRANCH  17  21
BRANCH  16   8
ATOM      8  N   UNL     1      13.533  13.112  22.285  0.00  0.00    -0.185 NA
ATOM     43  H   UNL     1      13.972  13.491  23.135  0.00  0.00    +0.148 HD
BRANCH   8   1
ATOM      1  S   UNL     1      11.853  12.874  22.309  0.00  0.00    +0.077 S 
ATOM      4  O   UNL     1      11.563  11.459  22.168  0.00  0.00    -0.152 OA
ATOM      5  O   UNL     1      11.232  13.837  21.419  0.00  0.00    -0.152 OA
BRANCH   1  26
ATOM     11  N   UNL     1      10.431  12.748  24.666  0.00  0.00    -0.216 NA
ATOM     13  N   UNL     1      11.380  14.334  25.896  0.00  0.00    -0.338 N 
ATOM     26  C   UNL     1      11.439  13.354  23.959  0.00  0.00    +0.211 A 
ATOM     30  C   UNL     1      12.042  14.342  24.702  0.00  0.00    +0.135 A 
ATOM     36  C   UNL     1      10.421  13.362  25.828  0.00  0.00    +0.201 A 
ATOM     40  C   UNL     1      11.642  15.195  27.024  0.00  0.00    +0.150 C 
ENDBRANCH   1  26
ENDBRANCH   8   1
ENDBRANCH  16   8
TORSDOF 9
ENDMDL
MODEL 10
REMARK VINA RESULT:      -6.4      2.503      5.790
REMARK  Name = 44716827
REMARK  12 active torsions:
REMARK  status: ('A' for Active; 'I' for Inactive)
REMARK    1  A    between atoms: S_1  and  N_8
REMARK    2  A    between atoms: S_1  and  C_26
REMARK    3  A    between atoms: N_8  and  C_16
REMARK    4  A    between atoms: N_9  and  C_23
REMARK    5  A    between atoms: N_10  and  C_34
REMARK    6  A    between atoms: N_13  and  C_40
REMARK    7  A    between atoms: C_17  and  C_21
REMARK    8  A    between atoms: C_22  and  C_24
REMARK    9  A    between atoms: C_23  and  C_25
REMARK   10  A    between atoms: C_23  and  C_29
REMARK   11  A    between atoms: C_25  and  C_27
REMARK   12  A    between atoms: C_31  and  C_38
REMARK                            x       y       z     vdW  Elec       q    Type
REMARK                         _______ _______ _______ _____ _____    ______ ____
ROOT
ATOM      3  O   UNL     1      -1.782 -10.783  11.885  0.00  0.00    -0.268 OA
ATOM      7  N   UNL     1      -3.505 -11.321  13.382  0.00  0.00    -0.285 N 
ATOM     16  C   UNL     1      -4.405 -11.652  16.130  0.00  0.00    +0.080 C 
ATOM     17  C   UNL     1      -4.835 -11.906  13.627  0.00  0.00    +0.164 C 
ATOM     18  C   UNL     1      -4.964 -12.538  15.015  0.00  0.00    +0.052 C 
ATOM     19  C   UNL     1      -2.984 -11.206  15.802  0.00  0.00    +0.039 C 
ATOM     20  C   UNL     1      -2.941 -10.495  14.455  0.00  0.00    +0.110 C 
ATOM     22  C   UNL     1      -2.826 -11.373  12.157  0.00  0.00    +0.265 C 
ENDROOT
BRANCH  22  24
ATOM     10  N   UNL     1      -3.325 -13.567  11.027  0.00  0.00    -0.262 N 
ATOM     12  N   UNL     1      -3.920 -14.092   9.943  0.00  0.00    -0.176 NA
ATOM     24  C   UNL     1      -3.390 -12.207  11.088  0.00  0.00    +0.123 A 
ATOM     28  C   UNL     1      -4.076 -11.814   9.964  0.00  0.00    +0.057 A 
ATOM     31  C   UNL     1      -4.377 -13.016   9.298  0.00  0.00    +0.061 A 
ATOM     34  C   UNL     1      -2.699 -14.449  11.985  0.00  0.00    +0.173 C 
ATOM     38  C   UNL     1      -5.107 -13.179   8.029  0.00  0.00    +0.067 C 
ENDBRANCH  22  24
BRANCH  17  21
ATOM      2  O   UNL     1      -5.547  -9.771  12.830  0.00  0.00    -0.274 OA
ATOM      9  N   UNL     1      -7.078 -11.125  13.944  0.00  0.00    -0.302 N 
ATOM     21  C   UNL     1      -5.841 -10.814  13.408  0.00  0.00    +0.234 C 
ATOM     44  H   UNL     1      -7.222 -12.043  14.356  0.00  0.00    +0.150 HD
BRANCH   9  23
ATOM     23  C   UNL     1      -8.212 -10.231  13.888  0.00  0.00    +0.163 C 
BRANCH  23  29
ATOM      6  O   UNL     1      -9.807 -11.216  12.341  0.00  0.00    -0.274 OA
ATOM     15  N   UNL     1      -8.360  -9.615  11.555  0.00  0.00    -0.328 N 
ATOM     29  C   UNL     1      -8.877 -10.437  12.535  0.00  0.00    +0.231 C 
ATOM     46  H   UNL     1      -8.724  -9.642  10.609  0.00  0.00    +0.145 HD
ATOM     47  H   UNL     1      -7.606  -8.959  11.735  0.00  0.00    +0.145 HD
ENDBRANCH  23  29
BRANCH  23  25
ATOM     25  C   UNL     1      -9.212 -10.490  15.020  0.00  0.00    +0.069 C 
BRANCH  25  27
ATOM     14  N   UNL     1      -9.524  -7.689  17.390  0.00  0.00    -0.360 N 
ATOM     27  C   UNL     1      -9.539  -9.245  15.808  0.00  0.00    -0.020 A 
ATOM     32  C   UNL     1     -10.495  -8.250  15.461  0.00  0.00    +0.003 A 
ATOM     33  C   UNL     1      -8.960  -8.873  16.999  0.00  0.00    +0.087 A 
ATOM     35  C   UNL     1     -10.465  -7.285  16.470  0.00  0.00    +0.047 A 
ATOM     37  C   UNL     1     -11.383  -8.075  14.382  0.00  0.00    +0.010 A 
ATOM     39  C   UNL     1     -11.284  -6.151  16.454  0.00  0.00    +0.026 A 
ATOM     41  C   UNL     1     -12.208  -6.945  14.352  0.00  0.00    +0.001 A 
ATOM     42  C   UNL     1     -12.158  -5.998  15.374  0.00  0.00    +0.002 A 
ATOM     45  H   UNL     1      -9.287  -7.186  18.234  0.00  0.00    +0.165 HD
ENDBRANCH  25  27
ENDBRANCH  23  25
ENDBRANCH   9  23
ENDBRANCH  17  21
BRANCH  16   8
ATOM      8  N   UNL     1      -4.398 -12.411  17.405  0.00  0.00    -0.185 NA
ATOM     43  H   UNL     1      -4.564 -13.421  17.302  0.00  0.00    +0.148 HD
BRANCH   8   1
ATOM      1  S   UNL     1      -4.938 -11.669  18.833  0.00  0.00    +0.077 S 
ATOM      4  O   UNL     1      -4.936 -10.229  18.661  0.00  0.00    -0.152 OA
ATOM      5  O   UNL     1      -4.249 -12.269  19.961  0.00  0.00    -0.152 OA
BRANCH   1  26
ATOM     11  N   UNL     1      -7.262 -12.431  20.103  0.00  0.00    -0.216 NA
ATOM     13  N   UNL     1      -8.635 -12.843  18.407  0.00  0.00    -0.338 N 
ATOM     26  C   UNL     1      -6.620 -12.207  18.911  0.00  0.00    +0.211 A 
ATOM     30  C   UNL     1      -7.452 -12.457  17.844  0.00  0.00    +0.135 A 
ATOM     36  C   UNL     1      -8.473 -12.812  19.764  0.00  0.00    +0.201 A 
ATOM     40  C   UNL     1      -9.836 -13.216  17.700  0.00  0.00    +0.150 C 
ENDBRANCH   1  26
ENDBRANCH   8   1
ENDBRANCH  16   8
TORSDOF 9
ENDMDL
