MODEL 1
REMARK VINA RESULT:      -6.5      0.000      0.000
REMARK  Name = 11941491
REMARK  5 active torsions:
REMARK  status: ('A' for Active; 'I' for Inactive)
REMARK    1  A    between atoms: S_1  and  C_21
REMARK    2  A    between atoms: S_1  and  C_26
REMARK    3  A    between atoms: N_7  and  C_9
REMARK    4  A    between atoms: C_17  and  C_21
REMARK    5  A    between atoms: C_20  and  C_23
REMARK                            x       y       z     vdW  Elec       q    Type
REMARK                         _______ _______ _______ _____ _____    ______ ____
ROOT
ATOM      3  O   UNL     1      -0.659 -10.808  15.460  0.00  0.00    -0.273 OA
ATOM      4  O   UNL     1      -5.788 -10.078  14.501  0.00  0.00    -0.270 OA
ATOM      6  N   UNL     1      -3.690 -10.962  14.177  0.00  0.00    -0.284 N 
ATOM      8  N   UNL     1      -2.453 -11.027  16.846  0.00  0.00    -0.283 N 
ATOM      9  C   UNL     1      -1.831 -12.083  13.236  0.00  0.00    +0.104 C 
ATOM     10  C   UNL     1      -2.617 -11.870  14.538  0.00  0.00    +0.183 C 
ATOM     11  C   UNL     1      -2.097 -10.800  12.447  0.00  0.00    +0.043 C 
ATOM     12  C   UNL     1      -3.526 -10.442  12.827  0.00  0.00    +0.111 C 
ATOM     13  C   UNL     1      -1.829 -11.159  15.623  0.00  0.00    +0.240 C 
ATOM     14  C   UNL     1      -4.829 -10.727  14.918  0.00  0.00    +0.249 C 
ATOM     15  C   UNL     1      -4.887 -11.268  16.301  0.00  0.00    +0.059 A 
ATOM     16  C   UNL     1      -3.795 -11.308  17.183  0.00  0.00    +0.046 A 
ATOM     18  C   UNL     1      -6.171 -11.596  16.775  0.00  0.00    +0.024 A 
ATOM     19  C   UNL     1      -4.027 -11.611  18.536  0.00  0.00    +0.024 A 
ATOM     20  C   UNL     1      -6.374 -11.940  18.110  0.00  0.00    -0.010 A 
ATOM     22  C   UNL     1      -5.303 -11.935  18.994  0.00  0.00    +0.011 A 
ATOM     29  H   UNL     1      -1.844 -10.772  17.621  0.00  0.00    +0.155 HD
ENDROOT
BRANCH  20  23
ATOM      2  S   UNL     1      -9.017 -12.141  17.496  0.00  0.00    -0.097 S 
ATOM     23  C   UNL     1      -7.696 -12.277  18.578  0.00  0.00    +0.019 A 
ATOM     24  C   UNL     1      -8.092 -12.716  19.823  0.00  0.00    +0.016 A 
ATOM     25  C   UNL     1      -9.498 -12.943  19.888  0.00  0.00    +0.008 A 
ATOM     27  C   UNL     1     -10.123 -12.670  18.691  0.00  0.00    +0.046 A 
ENDBRANCH  20  23
BRANCH   9   7
ATOM      5  O   UNL     1      -1.059 -14.841  13.657  0.00  0.00    -0.275 OA
ATOM      7  N   UNL     1      -2.314 -13.244  12.526  0.00  0.00    -0.309 N 
ATOM     17  C   UNL     1      -1.885 -14.533  12.799  0.00  0.00    +0.223 C 
ATOM     28  H   UNL     1      -3.044 -13.110  11.832  0.00  0.00    +0.149 HD
BRANCH  17  21
ATOM     21  C   UNL     1      -2.525 -15.569  11.906  0.00  0.00    +0.164 C 
BRANCH  21   1
ATOM      1  S   UNL     1      -1.649 -17.139  12.106  0.00  0.00    -0.155 S 
ATOM     26  C   UNL     1      -0.497 -16.983  10.722  0.00  0.00    +0.085 C 
ENDBRANCH  21   1
ENDBRANCH  17  21
ENDBRANCH   9   7
TORSDOF 4
ENDMDL
MODEL 2
REMARK VINA RESULT:      -6.3      3.252      7.915
REMARK  Name = 11941491
REMARK  5 active torsions:
REMARK  status: ('A' for Active; 'I' for Inactive)
REMARK    1  A    between atoms: S_1  and  C_21
REMARK    2  A    between atoms: S_1  and  C_26
REMARK    3  A    between atoms: N_7  and  C_9
REMARK    4  A    between atoms: C_17  and  C_21
REMARK    5  A    between atoms: C_20  and  C_23
REMARK                            x       y       z     vdW  Elec       q    Type
REMARK                         _______ _______ _______ _____ _____    ______ ____
ROOT
ATOM      3  O   UNL     1      -1.844 -10.699  16.665  0.00  0.00    -0.273 OA
ATOM      4  O   UNL     1      -4.707 -13.575  13.304  0.00  0.00    -0.270 OA
ATOM      6  N   UNL     1      -4.326 -12.227  15.129  0.00  0.00    -0.284 N 
ATOM      8  N   UNL     1      -2.013 -10.563  14.398  0.00  0.00    -0.283 N 
ATOM      9  C   UNL     1      -4.599 -11.041  17.157  0.00  0.00    +0.104 C 
ATOM     10  C   UNL     1      -4.052 -10.934  15.726  0.00  0.00    +0.183 C 
ATOM     11  C   UNL     1      -4.515 -12.539  17.458  0.00  0.00    +0.043 C 
ATOM     12  C   UNL     1      -4.810 -13.185  16.113  0.00  0.00    +0.111 C 
ATOM     13  C   UNL     1      -2.547 -10.761  15.654  0.00  0.00    +0.240 C 
ATOM     14  C   UNL     1      -4.310 -12.511  13.780  0.00  0.00    +0.249 C 
ATOM     15  C   UNL     1      -3.762 -11.484  12.856  0.00  0.00    +0.059 A 
ATOM     16  C   UNL     1      -2.652 -10.671  13.144  0.00  0.00    +0.046 A 
ATOM     18  C   UNL     1      -4.311 -11.472  11.560  0.00  0.00    +0.024 A 
ATOM     19  C   UNL     1      -2.078  -9.916  12.106  0.00  0.00    +0.024 A 
ATOM     20  C   UNL     1      -3.755 -10.679  10.557  0.00  0.00    -0.010 A 
ATOM     22  C   UNL     1      -2.631  -9.911  10.826  0.00  0.00    +0.011 A 
ATOM     29  H   UNL     1      -1.056 -10.215  14.380  0.00  0.00    +0.155 HD
ENDROOT
BRANCH  20  23
ATOM      2  S   UNL     1      -4.454 -12.156   8.380  0.00  0.00    -0.097 S 
ATOM     23  C   UNL     1      -4.333 -10.677   9.235  0.00  0.00    +0.019 A 
ATOM     24  C   UNL     1      -4.833  -9.619   8.507  0.00  0.00    +0.016 A 
ATOM     25  C   UNL     1      -5.321 -10.029   7.232  0.00  0.00    +0.008 A 
ATOM     27  C   UNL     1      -5.176 -11.384   7.034  0.00  0.00    +0.046 A 
ENDBRANCH  20  23
BRANCH   9   7
ATOM      5  O   UNL     1      -6.121 -10.427  19.541  0.00  0.00    -0.275 OA
ATOM      7  N   UNL     1      -5.962 -10.569  17.226  0.00  0.00    -0.309 N 
ATOM     17  C   UNL     1      -6.612 -10.300  18.420  0.00  0.00    +0.223 C 
ATOM     28  H   UNL     1      -6.444 -10.373  16.354  0.00  0.00    +0.149 HD
BRANCH  17  21
ATOM     21  C   UNL     1      -8.035  -9.836  18.224  0.00  0.00    +0.164 C 
BRANCH  21   1
ATOM      1  S   UNL     1      -8.231  -9.239  16.528  0.00  0.00    -0.155 S 
ATOM     26  C   UNL     1      -9.558  -8.045  16.814  0.00  0.00    +0.085 C 
ENDBRANCH  21   1
ENDBRANCH  17  21
ENDBRANCH   9   7
TORSDOF 4
ENDMDL
MODEL 3
REMARK VINA RESULT:      -6.3      5.277      9.250
REMARK  Name = 11941491
REMARK  5 active torsions:
REMARK  status: ('A' for Active; 'I' for Inactive)
REMARK    1  A    between atoms: S_1  and  C_21
REMARK    2  A    between atoms: S_1  and  C_26
REMARK    3  A    between atoms: N_7  and  C_9
REMARK    4  A    between atoms: C_17  and  C_21
REMARK    5  A    between atoms: C_20  and  C_23
REMARK                            x       y       z     vdW  Elec       q    Type
REMARK                         _______ _______ _______ _____ _____    ______ ____
ROOT
ATOM      3  O   UNL     1     -10.798  -9.851  19.168  0.00  0.00    -0.273 OA
ATOM      4  O   UNL     1      -8.507 -11.603  14.758  0.00  0.00    -0.270 OA
ATOM      6  N   UNL     1      -9.786 -10.194  16.051  0.00  0.00    -0.284 N 
ATOM      8  N   UNL     1      -8.612 -10.331  18.745  0.00  0.00    -0.283 N 
ATOM      9  C   UNL     1     -11.290  -8.504  16.741  0.00  0.00    +0.104 C 
ATOM     10  C   UNL     1      -9.923  -9.139  17.037  0.00  0.00    +0.183 C 
ATOM     11  C   UNL     1     -12.078  -9.644  16.091  0.00  0.00    +0.043 C 
ATOM     12  C   UNL     1     -11.018 -10.400  15.304  0.00  0.00    +0.111 C 
ATOM     13  C   UNL     1      -9.845  -9.828  18.387  0.00  0.00    +0.240 C 
ATOM     14  C   UNL     1      -8.611 -10.830  15.712  0.00  0.00    +0.249 C 
ATOM     15  C   UNL     1      -7.414 -10.587  16.559  0.00  0.00    +0.059 A 
ATOM     16  C   UNL     1      -7.448 -10.450  17.956  0.00  0.00    +0.046 A 
ATOM     18  C   UNL     1      -6.173 -10.672  15.901  0.00  0.00    +0.024 A 
ATOM     19  C   UNL     1      -6.235 -10.469  18.668  0.00  0.00    +0.024 A 
ATOM     20  C   UNL     1      -4.979 -10.641  16.621  0.00  0.00    -0.010 A 
ATOM     22  C   UNL     1      -5.010 -10.553  18.006  0.00  0.00    +0.011 A 
ATOM     29  H   UNL     1      -8.508 -10.572  19.729  0.00  0.00    +0.155 HD
ENDROOT
BRANCH  20  23
ATOM      2  S   UNL     1      -3.710 -10.795  14.219  0.00  0.00    -0.097 S 
ATOM     23  C   UNL     1      -3.716 -10.726  15.930  0.00  0.00    +0.019 A 
ATOM     24  C   UNL     1      -2.441 -10.762  16.452  0.00  0.00    +0.016 A 
ATOM     25  C   UNL     1      -1.448 -10.847  15.433  0.00  0.00    +0.008 A 
ATOM     27  C   UNL     1      -2.000 -10.872  14.171  0.00  0.00    +0.046 A 
ENDBRANCH  20  23
BRANCH   9   7
ATOM      5  O   UNL     1     -13.331  -6.584  16.015  0.00  0.00    -0.275 OA
ATOM      7  N   UNL     1     -11.155  -7.382  15.841  0.00  0.00    -0.309 N 
ATOM     17  C   UNL     1     -12.193  -6.512  15.553  0.00  0.00    +0.223 C 
ATOM     28  H   UNL     1     -10.237  -7.195  15.447  0.00  0.00    +0.149 HD
BRANCH  17  21
ATOM     21  C   UNL     1     -11.802  -5.434  14.571  0.00  0.00    +0.164 C 
BRANCH  21   1
ATOM      1  S   UNL     1     -13.223  -5.058  13.516  0.00  0.00    -0.155 S 
ATOM     26  C   UNL     1     -12.448  -3.818  12.452  0.00  0.00    +0.085 C 
ENDBRANCH  21   1
ENDBRANCH  17  21
ENDBRANCH   9   7
TORSDOF 4
ENDMDL
MODEL 4
REMARK VINA RESULT:      -6.3      3.992      8.078
REMARK  Name = 11941491
REMARK  5 active torsions:
REMARK  status: ('A' for Active; 'I' for Inactive)
REMARK    1  A    between atoms: S_1  and  C_21
REMARK    2  A    between atoms: S_1  and  C_26
REMARK    3  A    between atoms: N_7  and  C_9
REMARK    4  A    between atoms: C_17  and  C_21
REMARK    5  A    between atoms: C_20  and  C_23
REMARK                            x       y       z     vdW  Elec       q    Type
REMARK                         _______ _______ _______ _____ _____    ______ ____
ROOT
ATOM      3  O   UNL     1      -1.626 -10.774  14.678  0.00  0.00    -0.273 OA
ATOM      4  O   UNL     1      -5.481 -12.952  11.823  0.00  0.00    -0.270 OA
ATOM      6  N   UNL     1      -4.541 -11.911  13.646  0.00  0.00    -0.284 N 
ATOM      8  N   UNL     1      -2.330 -10.299  12.565  0.00  0.00    -0.283 N 
ATOM      9  C   UNL     1      -4.196 -11.020  15.809  0.00  0.00    +0.104 C 
ATOM     10  C   UNL     1      -4.009 -10.737  14.311  0.00  0.00    +0.183 C 
ATOM     11  C   UNL     1      -4.184 -12.548  15.887  0.00  0.00    +0.043 C 
ATOM     12  C   UNL     1      -4.858 -12.972  14.591  0.00  0.00    +0.111 C 
ATOM     13  C   UNL     1      -2.557 -10.646  13.881  0.00  0.00    +0.240 C 
ATOM     14  C   UNL     1      -4.882 -11.995  12.312  0.00  0.00    +0.249 C 
ATOM     15  C   UNL     1      -4.481 -10.878  11.417  0.00  0.00    +0.059 A 
ATOM     16  C   UNL     1      -3.263 -10.184  11.513  0.00  0.00    +0.046 A 
ATOM     18  C   UNL     1      -5.326 -10.644  10.316  0.00  0.00    +0.024 A 
ATOM     19  C   UNL     1      -2.892  -9.320  10.467  0.00  0.00    +0.024 A 
ATOM     20  C   UNL     1      -4.961  -9.748   9.313  0.00  0.00    -0.010 A 
ATOM     22  C   UNL     1      -3.738  -9.096   9.381  0.00  0.00    +0.011 A 
ATOM     29  H   UNL     1      -1.378 -10.010  12.348  0.00  0.00    +0.155 HD
ENDROOT
BRANCH  20  23
ATOM      2  S   UNL     1      -7.283  -8.627   8.442  0.00  0.00    -0.097 S 
ATOM     23  C   UNL     1      -5.841  -9.518   8.194  0.00  0.00    +0.019 A 
ATOM     24  C   UNL     1      -5.704  -9.920   6.882  0.00  0.00    +0.016 A 
ATOM     25  C   UNL     1      -6.796  -9.491   6.073  0.00  0.00    +0.008 A 
ATOM     27  C   UNL     1      -7.726  -8.777   6.795  0.00  0.00    +0.046 A 
ENDBRANCH  20  23
BRANCH   9   7
ATOM      5  O   UNL     1      -5.053 -10.733  18.560  0.00  0.00    -0.275 OA
ATOM      7  N   UNL     1      -5.450 -10.482  16.283  0.00  0.00    -0.309 N 
ATOM     17  C   UNL     1      -5.774 -10.383  17.626  0.00  0.00    +0.223 C 
ATOM     28  H   UNL     1      -6.100 -10.109  15.596  0.00  0.00    +0.149 HD
BRANCH  17  21
ATOM     21  C   UNL     1      -7.149  -9.805  17.860  0.00  0.00    +0.164 C 
BRANCH  21   1
ATOM      1  S   UNL     1      -7.977  -9.595  16.266  0.00  0.00    -0.155 S 
ATOM     26  C   UNL     1      -9.283  -8.459  16.788  0.00  0.00    +0.085 C 
ENDBRANCH  21   1
ENDBRANCH  17  21
ENDBRANCH   9   7
TORSDOF 4
ENDMDL
MODEL 5
REMARK VINA RESULT:      -6.2      3.477      8.294
REMARK  Name = 11941491
REMARK  5 active torsions:
REMARK  status: ('A' for Active; 'I' for Inactive)
REMARK    1  A    between atoms: S_1  and  C_21
REMARK    2  A    between atoms: S_1  and  C_26
REMARK    3  A    between atoms: N_7  and  C_9
REMARK    4  A    between atoms: C_17  and  C_21
REMARK    5  A    between atoms: C_20  and  C_23
REMARK                            x       y       z     vdW  Elec       q    Type
REMARK                         _______ _______ _______ _____ _____    ______ ____
ROOT
ATOM      3  O   UNL     1      -6.094 -11.422  20.820  0.00  0.00    -0.273 OA
ATOM      4  O   UNL     1      -6.504 -13.979  16.231  0.00  0.00    -0.270 OA
ATOM      6  N   UNL     1      -7.213 -12.664  17.981  0.00  0.00    -0.284 N 
ATOM      8  N   UNL     1      -4.796 -11.295  18.952  0.00  0.00    -0.283 N 
ATOM      9  C   UNL     1      -8.570 -11.429  19.473  0.00  0.00    +0.104 C 
ATOM     10  C   UNL     1      -7.243 -11.405  18.700  0.00  0.00    +0.183 C 
ATOM     11  C   UNL     1      -8.843 -12.923  19.664  0.00  0.00    +0.043 C 
ATOM     12  C   UNL     1      -8.298 -13.546  18.388  0.00  0.00    +0.111 C 
ATOM     13  C   UNL     1      -6.014 -11.413  19.590  0.00  0.00    +0.240 C 
ATOM     14  C   UNL     1      -6.387 -12.964  16.918  0.00  0.00    +0.249 C 
ATOM     15  C   UNL     1      -5.283 -12.020  16.603  0.00  0.00    +0.059 A 
ATOM     16  C   UNL     1      -4.521 -11.341  17.568  0.00  0.00    +0.046 A 
ATOM     18  C   UNL     1      -4.899 -11.959  15.250  0.00  0.00    +0.024 A 
ATOM     19  C   UNL     1      -3.353 -10.672  17.162  0.00  0.00    +0.024 A 
ATOM     20  C   UNL     1      -3.763 -11.250  14.861  0.00  0.00    -0.010 A 
ATOM     22  C   UNL     1      -2.983 -10.617  15.819  0.00  0.00    +0.011 A 
ATOM     29  H   UNL     1      -4.009 -11.063  19.554  0.00  0.00    +0.155 HD
ENDROOT
BRANCH  20  23
ATOM      2  S   UNL     1      -4.278 -12.116  12.333  0.00  0.00    -0.097 S 
ATOM     23  C   UNL     1      -3.387 -11.195  13.470  0.00  0.00    +0.019 A 
ATOM     24  C   UNL     1      -2.370 -10.482  12.872  0.00  0.00    +0.016 A 
ATOM     25  C   UNL     1      -2.323 -10.695  11.464  0.00  0.00    +0.008 A 
ATOM     27  C   UNL     1      -3.305 -11.562  11.037  0.00  0.00    +0.046 A 
ENDBRANCH  20  23
BRANCH   9   7
ATOM      5  O   UNL     1     -10.824  -9.934  20.505  0.00  0.00    -0.275 OA
ATOM      7  N   UNL     1      -9.623 -10.798  18.712  0.00  0.00    -0.309 N 
ATOM     17  C   UNL     1     -10.667 -10.099  19.296  0.00  0.00    +0.223 C 
ATOM     28  H   UNL     1      -9.560 -10.823  17.698  0.00  0.00    +0.149 HD
BRANCH  17  21
ATOM     21  C   UNL     1     -11.646  -9.550  18.286  0.00  0.00    +0.164 C 
BRANCH  21   1
ATOM      1  S   UNL     1     -10.790  -9.301  16.713  0.00  0.00    -0.155 S 
ATOM     26  C   UNL     1     -10.082  -7.672  17.046  0.00  0.00    +0.085 C 
ENDBRANCH  21   1
ENDBRANCH  17  21
ENDBRANCH   9   7
TORSDOF 4
ENDMDL
MODEL 6
REMARK VINA RESULT:      -6.1     21.402     22.292
REMARK  Name = 11941491
REMARK  5 active torsions:
REMARK  status: ('A' for Active; 'I' for Inactive)
REMARK    1  A    between atoms: S_1  and  C_21
REMARK    2  A    between atoms: S_1  and  C_26
REMARK    3  A    between atoms: N_7  and  C_9
REMARK    4  A    between atoms: C_17  and  C_21
REMARK    5  A    between atoms: C_20  and  C_23
REMARK                            x       y       z     vdW  Elec       q    Type
REMARK                         _______ _______ _______ _____ _____    ______ ____
ROOT
ATOM      3  O   UNL     1     -10.085   9.230  17.346  0.00  0.00    -0.273 OA
ATOM      4  O   UNL     1     -14.907   9.577  19.443  0.00  0.00    -0.270 OA
ATOM      6  N   UNL     1     -13.352   9.255  17.779  0.00  0.00    -0.284 N 
ATOM      8  N   UNL     1     -10.988   8.138  19.129  0.00  0.00    -0.283 N 
ATOM      9  C   UNL     1     -12.332   8.978  15.662  0.00  0.00    +0.104 C 
ATOM     10  C   UNL     1     -12.353   8.448  17.104  0.00  0.00    +0.183 C 
ATOM     11  C   UNL     1     -12.798  10.428  15.810  0.00  0.00    +0.043 C 
ATOM     12  C   UNL     1     -13.807  10.359  16.946  0.00  0.00    +0.111 C 
ATOM     13  C   UNL     1     -11.059   8.680  17.862  0.00  0.00    +0.240 C 
ATOM     14  C   UNL     1     -13.949   8.954  18.984  0.00  0.00    +0.249 C 
ATOM     15  C   UNL     1     -13.389   7.831  19.781  0.00  0.00    +0.059 A 
ATOM     16  C   UNL     1     -12.018   7.545  19.890  0.00  0.00    +0.046 A 
ATOM     18  C   UNL     1     -14.307   7.141  20.593  0.00  0.00    +0.024 A 
ATOM     19  C   UNL     1     -11.595   6.619  20.861  0.00  0.00    +0.024 A 
ATOM     20  C   UNL     1     -13.871   6.191  21.517  0.00  0.00    -0.010 A 
ATOM     22  C   UNL     1     -12.514   5.939  21.660  0.00  0.00    +0.011 A 
ATOM     29  H   UNL     1     -10.054   8.089  19.530  0.00  0.00    +0.155 HD
ENDROOT
BRANCH  20  23
ATOM      2  S   UNL     1     -16.473   5.471  21.863  0.00  0.00    -0.097 S 
ATOM     23  C   UNL     1     -14.827   5.491  22.339  0.00  0.00    +0.019 A 
ATOM     24  C   UNL     1     -14.621   4.794  23.510  0.00  0.00    +0.016 A 
ATOM     25  C   UNL     1     -15.829   4.238  24.023  0.00  0.00    +0.008 A 
ATOM     27  C   UNL     1     -16.913   4.529  23.224  0.00  0.00    +0.046 A 
ENDBRANCH  20  23
BRANCH   9   7
ATOM      5  O   UNL     1     -11.643   7.387  13.344  0.00  0.00    -0.275 OA
ATOM      7  N   UNL     1     -13.231   8.223  14.821  0.00  0.00    -0.309 N 
ATOM     17  C   UNL     1     -12.808   7.487  13.727  0.00  0.00    +0.223 C 
ATOM     28  H   UNL     1     -14.213   8.188  15.082  0.00  0.00    +0.149 HD
BRANCH  17  21
ATOM     21  C   UNL     1     -13.942   6.803  13.001  0.00  0.00    +0.164 C 
BRANCH  21   1
ATOM      1  S   UNL     1     -15.455   6.981  13.977  0.00  0.00    -0.155 S 
ATOM     26  C   UNL     1     -16.321   5.502  13.402  0.00  0.00    +0.085 C 
ENDBRANCH  21   1
ENDBRANCH  17  21
ENDBRANCH   9   7
TORSDOF 4
ENDMDL
MODEL 7
REMARK VINA RESULT:      -6.0     25.349     27.923
REMARK  Name = 11941491
REMARK  5 active torsions:
REMARK  status: ('A' for Active; 'I' for Inactive)
REMARK    1  A    between atoms: S_1  and  C_21
REMARK    2  A    between atoms: S_1  and  C_26
REMARK    3  A    between atoms: N_7  and  C_9
REMARK    4  A    between atoms: C_17  and  C_21
REMARK    5  A    between atoms: C_20  and  C_23
REMARK                            x       y       z     vdW  Elec       q    Type
REMARK                         _______ _______ _______ _____ _____    ______ ____
ROOT
ATOM      3  O   UNL     1      10.128   5.193   7.771  0.00  0.00    -0.273 OA
ATOM      4  O   UNL     1       8.064   7.697   3.621  0.00  0.00    -0.270 OA
ATOM      6  N   UNL     1       9.291   7.482   5.554  0.00  0.00    -0.284 N 
ATOM      8  N   UNL     1      10.267   4.706   5.550  0.00  0.00    -0.283 N 
ATOM      9  C   UNL     1      10.540   7.968   7.503  0.00  0.00    +0.104 C 
ATOM     10  C   UNL     1      10.474   7.051   6.274  0.00  0.00    +0.183 C 
ATOM     11  C   UNL     1       9.079   8.362   7.731  0.00  0.00    +0.043 C 
ATOM     12  C   UNL     1       8.513   8.444   6.321  0.00  0.00    +0.111 C 
ATOM     13  C   UNL     1      10.238   5.590   6.610  0.00  0.00    +0.240 C 
ATOM     14  C   UNL     1       8.992   7.180   4.243  0.00  0.00    +0.249 C 
ATOM     15  C   UNL     1       9.820   6.156   3.555  0.00  0.00    +0.059 A 
ATOM     16  C   UNL     1      10.313   4.992   4.169  0.00  0.00    +0.046 A 
ATOM     18  C   UNL     1       9.957   6.315   2.163  0.00  0.00    +0.024 A 
ATOM     19  C   UNL     1      10.871   3.984   3.362  0.00  0.00    +0.024 A 
ATOM     20  C   UNL     1      10.556   5.324   1.386  0.00  0.00    -0.010 A 
ATOM     22  C   UNL     1      11.002   4.153   1.984  0.00  0.00    +0.011 A 
ATOM     29  H   UNL     1      10.347   3.724   5.804  0.00  0.00    +0.155 HD
ENDROOT
BRANCH  20  23
ATOM      2  S   UNL     1      12.243   5.827  -0.690  0.00  0.00    -0.097 S 
ATOM     23  C   UNL     1      10.691   5.506  -0.038  0.00  0.00    +0.019 A 
ATOM     24  C   UNL     1       9.721   5.460  -1.016  0.00  0.00    +0.016 A 
ATOM     25  C   UNL     1      10.259   5.692  -2.316  0.00  0.00    +0.008 A 
ATOM     27  C   UNL     1      11.619   5.905  -2.283  0.00  0.00    +0.046 A 
ENDBRANCH  20  23
BRANCH   9   7
ATOM      5  O   UNL     1      13.407   8.035   7.115  0.00  0.00    -0.275 OA
ATOM      7  N   UNL     1      11.359   9.128   7.239  0.00  0.00    -0.309 N 
ATOM     17  C   UNL     1      12.732   9.063   7.066  0.00  0.00    +0.223 C 
ATOM     28  H   UNL     1      10.895  10.024   7.120  0.00  0.00    +0.149 HD
BRANCH  17  21
ATOM     21  C   UNL     1      13.360  10.414   6.821  0.00  0.00    +0.164 C 
BRANCH  21   1
ATOM      1  S   UNL     1      15.116  10.187   6.451  0.00  0.00    -0.155 S 
ATOM     26  C   UNL     1      15.045  10.410   4.659  0.00  0.00    +0.085 C 
ENDBRANCH  21   1
ENDBRANCH  17  21
ENDBRANCH   9   7
TORSDOF 4
ENDMDL
MODEL 8
REMARK VINA RESULT:      -5.9     23.020     26.430
REMARK  Name = 11941491
REMARK  5 active torsions:
REMARK  status: ('A' for Active; 'I' for Inactive)
REMARK    1  A    between atoms: S_1  and  C_21
REMARK    2  A    between atoms: S_1  and  C_26
REMARK    3  A    between atoms: N_7  and  C_9
REMARK    4  A    between atoms: C_17  and  C_21
REMARK    5  A    between atoms: C_20  and  C_23
REMARK                            x       y       z     vdW  Elec       q    Type
REMARK                         _______ _______ _______ _____ _____    ______ ____
ROOT
ATOM      3  O   UNL     1     -14.046   4.779  34.749  0.00  0.00    -0.273 OA
ATOM      4  O   UNL     1     -17.256   6.017  30.758  0.00  0.00    -0.270 OA
ATOM      6  N   UNL     1     -15.438   6.248  32.149  0.00  0.00    -0.284 N 
ATOM      8  N   UNL     1     -14.752   3.514  32.992  0.00  0.00    -0.283 N 
ATOM      9  C   UNL     1     -13.539   7.118  33.258  0.00  0.00    +0.104 C 
ATOM     10  C   UNL     1     -14.114   5.858  32.594  0.00  0.00    +0.183 C 
ATOM     11  C   UNL     1     -14.785   7.872  33.728  0.00  0.00    +0.043 C 
ATOM     12  C   UNL     1     -15.811   7.564  32.648  0.00  0.00    +0.111 C 
ATOM     13  C   UNL     1     -14.329   4.701  33.552  0.00  0.00    +0.240 C 
ATOM     14  C   UNL     1     -16.211   5.569  31.231  0.00  0.00    +0.249 C 
ATOM     15  C   UNL     1     -15.768   4.214  30.811  0.00  0.00    +0.059 A 
ATOM     16  C   UNL     1     -15.183   3.270  31.670  0.00  0.00    +0.046 A 
ATOM     18  C   UNL     1     -16.128   3.831  29.505  0.00  0.00    +0.024 A 
ATOM     19  C   UNL     1     -15.033   1.945  31.221  0.00  0.00    +0.024 A 
ATOM     20  C   UNL     1     -15.928   2.524  29.062  0.00  0.00    -0.010 A 
ATOM     22  C   UNL     1     -15.392   1.578  29.925  0.00  0.00    +0.011 A 
ATOM     29  H   UNL     1     -14.665   2.694  33.589  0.00  0.00    +0.155 HD
ENDROOT
BRANCH  20  23
ATOM      2  S   UNL     1     -16.265   3.342  26.488  0.00  0.00    -0.097 S 
ATOM     23  C   UNL     1     -16.299   2.151  27.719  0.00  0.00    +0.019 A 
ATOM     24  C   UNL     1     -16.699   0.923  27.237  0.00  0.00    +0.016 A 
ATOM     25  C   UNL     1     -16.980   0.962  25.841  0.00  0.00    +0.008 A 
ATOM     27  C   UNL     1     -16.784   2.217  25.307  0.00  0.00    +0.046 A 
ENDBRANCH  20  23
BRANCH   9   7
ATOM      5  O   UNL     1     -11.593   9.178  33.849  0.00  0.00    -0.275 OA
ATOM      7  N   UNL     1     -12.780   7.900  32.311  0.00  0.00    -0.309 N 
ATOM     17  C   UNL     1     -11.865   8.870  32.689  0.00  0.00    +0.223 C 
ATOM     28  H   UNL     1     -12.884   7.687  31.323  0.00  0.00    +0.149 HD
BRANCH  17  21
ATOM     21  C   UNL     1     -11.217   9.559  31.512  0.00  0.00    +0.164 C 
BRANCH  21   1
ATOM      1  S   UNL     1     -12.510  10.196  30.420  0.00  0.00    -0.155 S 
ATOM     26  C   UNL     1     -11.555  10.268  28.886  0.00  0.00    +0.085 C 
ENDBRANCH  21   1
ENDBRANCH  17  21
ENDBRANCH   9   7
TORSDOF 4
ENDMDL
MODEL 9
REMARK VINA RESULT:      -5.8     25.056     27.888
REMARK  Name = 11941491
REMARK  5 active torsions:
REMARK  status: ('A' for Active; 'I' for Inactive)
REMARK    1  A    between atoms: S_1  and  C_21
REMARK    2  A    between atoms: S_1  and  C_26
REMARK    3  A    between atoms: N_7  and  C_9
REMARK    4  A    between atoms: C_17  and  C_21
REMARK    5  A    between atoms: C_20  and  C_23
REMARK                            x       y       z     vdW  Elec       q    Type
REMARK                         _______ _______ _______ _____ _____    ______ ____
ROOT
ATOM      3  O   UNL     1      11.834   8.845   7.022  0.00  0.00    -0.273 OA
ATOM      4  O   UNL     1       9.976   4.324   5.056  0.00  0.00    -0.270 OA
ATOM      6  N   UNL     1       9.871   6.497   5.802  0.00  0.00    -0.284 N 
ATOM      8  N   UNL     1      12.509   7.654   5.202  0.00  0.00    -0.283 N 
ATOM      9  C   UNL     1       9.067   8.594   6.544  0.00  0.00    +0.104 C 
ATOM     10  C   UNL     1      10.098   7.919   5.628  0.00  0.00    +0.183 C 
ATOM     11  C   UNL     1       8.819   7.547   7.632  0.00  0.00    +0.043 C 
ATOM     12  C   UNL     1       8.933   6.228   6.884  0.00  0.00    +0.111 C 
ATOM     13  C   UNL     1      11.538   8.157   6.044  0.00  0.00    +0.240 C 
ATOM     14  C   UNL     1      10.327   5.501   4.966  0.00  0.00    +0.249 C 
ATOM     15  C   UNL     1      11.312   5.866   3.915  0.00  0.00    +0.059 A 
ATOM     16  C   UNL     1      12.351   6.796   4.093  0.00  0.00    +0.046 A 
ATOM     18  C   UNL     1      11.271   5.091   2.742  0.00  0.00    +0.024 A 
ATOM     19  C   UNL     1      13.362   6.876   3.118  0.00  0.00    +0.024 A 
ATOM     20  C   UNL     1      12.257   5.219   1.765  0.00  0.00    -0.010 A 
ATOM     22  C   UNL     1      13.310   6.103   1.958  0.00  0.00    +0.011 A 
ATOM     29  H   UNL     1      13.448   8.015   5.354  0.00  0.00    +0.155 HD
ENDROOT
BRANCH  20  23
ATOM      2  S   UNL     1      10.910   4.672  -0.535  0.00  0.00    -0.097 S 
ATOM     23  C   UNL     1      12.196   4.419   0.567  0.00  0.00    +0.019 A 
ATOM     24  C   UNL     1      13.054   3.428   0.139  0.00  0.00    +0.016 A 
ATOM     25  C   UNL     1      12.648   2.870  -1.108  0.00  0.00    +0.008 A 
ATOM     27  C   UNL     1      11.497   3.456  -1.588  0.00  0.00    +0.046 A 
ENDBRANCH  20  23
BRANCH   9   7
ATOM      5  O   UNL     1       8.618  10.794   4.717  0.00  0.00    -0.275 OA
ATOM      7  N   UNL     1       7.854   8.896   5.822  0.00  0.00    -0.309 N 
ATOM     17  C   UNL     1       7.731   9.977   4.964  0.00  0.00    +0.223 C 
ATOM     28  H   UNL     1       7.074   8.251   5.908  0.00  0.00    +0.149 HD
BRANCH  17  21
ATOM     21  C   UNL     1       6.358  10.086   4.345  0.00  0.00    +0.164 C 
BRANCH  21   1
ATOM      1  S   UNL     1       6.518  10.016   2.545  0.00  0.00    -0.155 S 
ATOM     26  C   UNL     1       4.762  10.050   2.117  0.00  0.00    +0.085 C 
ENDBRANCH  21   1
ENDBRANCH  17  21
ENDBRANCH   9   7
TORSDOF 4
ENDMDL
MODEL 10
REMARK VINA RESULT:      -5.6      3.422      8.014
REMARK  Name = 11941491
REMARK  5 active torsions:
REMARK  status: ('A' for Active; 'I' for Inactive)
REMARK    1  A    between atoms: S_1  and  C_21
REMARK    2  A    between atoms: S_1  and  C_26
REMARK    3  A    between atoms: N_7  and  C_9
REMARK    4  A    between atoms: C_17  and  C_21
REMARK    5  A    between atoms: C_20  and  C_23
REMARK                            x       y       z     vdW  Elec       q    Type
REMARK                         _______ _______ _______ _____ _____    ______ ____
ROOT
ATOM      3  O   UNL     1      -4.622 -12.625  18.975  0.00  0.00    -0.273 OA
ATOM      4  O   UNL     1      -6.634 -13.564  14.196  0.00  0.00    -0.270 OA
ATOM      6  N   UNL     1      -6.641 -12.839  16.379  0.00  0.00    -0.284 N 
ATOM      8  N   UNL     1      -3.880 -11.978  16.921  0.00  0.00    -0.283 N 
ATOM      9  C   UNL     1      -7.346 -12.076  18.504  0.00  0.00    +0.104 C 
ATOM     10  C   UNL     1      -6.292 -11.875  17.405  0.00  0.00    +0.183 C 
ATOM     11  C   UNL     1      -7.769 -13.536  18.329  0.00  0.00    +0.043 C 
ATOM     12  C   UNL     1      -7.688 -13.747  16.824  0.00  0.00    +0.111 C 
ATOM     13  C   UNL     1      -4.881 -12.230  17.837  0.00  0.00    +0.240 C 
ATOM     14  C   UNL     1      -6.189 -12.827  15.077  0.00  0.00    +0.249 C 
ATOM     15  C   UNL     1      -5.089 -11.891  14.727  0.00  0.00    +0.059 A 
ATOM     16  C   UNL     1      -4.003 -11.595  15.568  0.00  0.00    +0.046 A 
ATOM     18  C   UNL     1      -5.085 -11.422  13.400  0.00  0.00    +0.024 A 
ATOM     19  C   UNL     1      -2.906 -10.893  15.036  0.00  0.00    +0.024 A 
ATOM     20  C   UNL     1      -4.008 -10.686  12.906  0.00  0.00    -0.010 A 
ATOM     22  C   UNL     1      -2.913 -10.432  13.720  0.00  0.00    +0.011 A 
ATOM     29  H   UNL     1      -2.934 -11.991  17.295  0.00  0.00    +0.155 HD
ENDROOT
BRANCH  20  23
ATOM      2  S   UNL     1      -5.423 -10.466  10.591  0.00  0.00    -0.097 S 
ATOM     23  C   UNL     1      -4.022 -10.211  11.544  0.00  0.00    +0.019 A 
ATOM     24  C   UNL     1      -3.038  -9.547  10.845  0.00  0.00    +0.016 A 
ATOM     25  C   UNL     1      -3.439  -9.244   9.511  0.00  0.00    +0.008 A 
ATOM     27  C   UNL     1      -4.715  -9.687   9.241  0.00  0.00    +0.046 A 
ENDBRANCH  20  23
BRANCH   9   7
ATOM      5  O   UNL     1      -9.359 -11.352  20.454  0.00  0.00    -0.275 OA
ATOM      7  N   UNL     1      -8.464 -11.181  18.315  0.00  0.00    -0.309 N 
ATOM     17  C   UNL     1      -9.382 -10.893  19.313  0.00  0.00    +0.223 C 
ATOM     28  H   UNL     1      -8.546 -10.700  17.424  0.00  0.00    +0.149 HD
BRANCH  17  21
ATOM     21  C   UNL     1     -10.467  -9.945  18.860  0.00  0.00    +0.164 C 
BRANCH  21   1
ATOM      1  S   UNL     1      -9.851  -8.971  17.466  0.00  0.00    -0.155 S 
ATOM     26  C   UNL     1     -10.983  -9.576  16.193  0.00  0.00    +0.085 C 
ENDBRANCH  21   1
ENDBRANCH  17  21
ENDBRANCH   9   7
TORSDOF 4
ENDMDL
