MODEL 1
REMARK VINA RESULT:      -6.7      0.000      0.000
REMARK  Name = 45784354
REMARK  8 active torsions:
REMARK  status: ('A' for Active; 'I' for Inactive)
REMARK    1  A    between atoms: O_2  and  C_20
REMARK    2  A    between atoms: O_2  and  C_26
REMARK    3  A    between atoms: O_3  and  C_25
REMARK    4  A    between atoms: O_3  and  C_27
REMARK    5  A    between atoms: N_5  and  C_11
REMARK    6  A    between atoms: C_7  and  C_12
REMARK    7  A    between atoms: C_11  and  C_13
REMARK    8  A    between atoms: C_18  and  C_25
REMARK                            x       y       z     vdW  Elec       q    Type
REMARK                         _______ _______ _______ _____ _____    ______ ____
ROOT
ATOM      5  N   UNL     1      -3.967 -10.778  14.743  0.00  0.00    -0.297 NA
ATOM      7  C   UNL     1      -5.216  -9.920  16.533  0.00  0.00    +0.090 C 
ATOM      8  C   UNL     1      -4.143 -10.882  17.070  0.00  0.00    +0.029 C 
ATOM      9  C   UNL     1      -5.290 -10.220  15.030  0.00  0.00    +0.097 C 
ATOM     10  C   UNL     1      -3.693 -11.687  15.858  0.00  0.00    +0.085 C 
ENDROOT
BRANCH   7  12
ATOM      1  O   UNL     1      -7.551  -9.241  16.705  0.00  0.00    -0.439 OA
ATOM      6  N   UNL     1      -6.897 -10.763  18.251  0.00  0.00    -0.213 NA
ATOM     12  C   UNL     1      -6.559 -10.019  17.220  0.00  0.00    +0.201 A 
ATOM     14  C   UNL     1      -8.626  -9.525  17.496  0.00  0.00    +0.169 A 
ATOM     15  C   UNL     1      -8.223 -10.456  18.441  0.00  0.00    +0.110 A 
ATOM     18  C   UNL     1      -9.908  -8.996  17.402  0.00  0.00    +0.103 A 
ATOM     19  C   UNL     1      -9.155 -10.915  19.382  0.00  0.00    +0.031 A 
ATOM     22  C   UNL     1     -10.826  -9.464  18.348  0.00  0.00    +0.019 A 
ATOM     23  C   UNL     1     -10.461 -10.404  19.319  0.00  0.00    +0.003 A 
BRANCH  18  25
ATOM      4  O   UNL     1     -10.189  -8.212  15.169  0.00  0.00    -0.245 OA
ATOM     25  C   UNL     1     -10.274  -8.024  16.392  0.00  0.00    +0.343 C 
BRANCH  25   3
ATOM      3  O   UNL     1     -10.731  -6.859  16.951  0.00  0.00    -0.464 OA
ATOM     27  C   UNL     1     -11.525  -6.006  16.119  0.00  0.00    +0.280 C 
ENDBRANCH  25   3
ENDBRANCH  18  25
ENDBRANCH   7  12
BRANCH   5  11
ATOM     11  C   UNL     1      -3.915 -11.450  13.454  0.00  0.00    +0.119 C 
BRANCH  11  13
ATOM     13  C   UNL     1      -3.253 -10.600  12.403  0.00  0.00    -0.030 A 
ATOM     16  C   UNL     1      -4.006 -10.079  11.351  0.00  0.00    +0.050 A 
ATOM     17  C   UNL     1      -1.886 -10.333  12.482  0.00  0.00    +0.005 A 
ATOM     20  C   UNL     1      -3.392  -9.291  10.378  0.00  0.00    +0.120 A 
ATOM     21  C   UNL     1      -1.272  -9.546  11.508  0.00  0.00    +0.004 A 
ATOM     24  C   UNL     1      -2.025  -9.025  10.456  0.00  0.00    +0.045 A 
BRANCH  20   2
ATOM      2  O   UNL     1      -4.127  -8.784   9.351  0.00  0.00    -0.495 OA
ATOM     26  C   UNL     1      -5.427  -8.284   9.668  0.00  0.00    +0.277 C 
ENDBRANCH  20   2
ENDBRANCH  11  13
ENDBRANCH   5  11
TORSDOF 6
ENDMDL
MODEL 2
REMARK VINA RESULT:      -6.7     24.728     28.777
REMARK  Name = 45784354
REMARK  8 active torsions:
REMARK  status: ('A' for Active; 'I' for Inactive)
REMARK    1  A    between atoms: O_2  and  C_20
REMARK    2  A    between atoms: O_2  and  C_26
REMARK    3  A    between atoms: O_3  and  C_25
REMARK    4  A    between atoms: O_3  and  C_27
REMARK    5  A    between atoms: N_5  and  C_11
REMARK    6  A    between atoms: C_7  and  C_12
REMARK    7  A    between atoms: C_11  and  C_13
REMARK    8  A    between atoms: C_18  and  C_25
REMARK                            x       y       z     vdW  Elec       q    Type
REMARK                         _______ _______ _______ _____ _____    ______ ____
ROOT
ATOM      5  N   UNL     1      16.455   8.153   5.128  0.00  0.00    -0.297 NA
ATOM      7  C   UNL     1      14.307   7.259   5.426  0.00  0.00    +0.090 C 
ATOM      8  C   UNL     1      14.541   7.547   3.934  0.00  0.00    +0.029 C 
ATOM      9  C   UNL     1      15.413   8.039   6.151  0.00  0.00    +0.097 C 
ATOM     10  C   UNL     1      15.738   8.489   3.897  0.00  0.00    +0.085 C 
ENDROOT
BRANCH   7  12
ATOM      1  O   UNL     1      12.274   6.606   6.602  0.00  0.00    -0.439 OA
ATOM      6  N   UNL     1      12.261   8.728   5.805  0.00  0.00    -0.213 NA
ATOM     12  C   UNL     1      12.923   7.598   5.929  0.00  0.00    +0.201 A 
ATOM     14  C   UNL     1      11.078   7.173   6.935  0.00  0.00    +0.169 A 
ATOM     15  C   UNL     1      11.073   8.471   6.446  0.00  0.00    +0.110 A 
ATOM     18  C   UNL     1      10.031   6.587   7.636  0.00  0.00    +0.103 A 
ATOM     19  C   UNL     1       9.943   9.272   6.661  0.00  0.00    +0.031 A 
ATOM     22  C   UNL     1       8.910   7.399   7.841  0.00  0.00    +0.019 A 
ATOM     23  C   UNL     1       8.864   8.715   7.365  0.00  0.00    +0.003 A 
BRANCH  18  25
ATOM      4  O   UNL     1       9.963   4.215   7.413  0.00  0.00    -0.245 OA
ATOM     25  C   UNL     1      10.090   5.224   8.124  0.00  0.00    +0.343 C 
BRANCH  25   3
ATOM      3  O   UNL     1      10.305   5.177   9.476  0.00  0.00    -0.464 OA
ATOM     27  C   UNL     1       9.290   4.560  10.275  0.00  0.00    +0.280 C 
ENDBRANCH  25   3
ENDBRANCH  18  25
ENDBRANCH   7  12
BRANCH   5  11
ATOM     11  C   UNL     1      17.463   9.145   5.470  0.00  0.00    +0.119 C 
BRANCH  11  13
ATOM     13  C   UNL     1      18.844   8.547   5.520  0.00  0.00    -0.030 A 
ATOM     16  C   UNL     1      19.376   7.926   4.390  0.00  0.00    +0.050 A 
ATOM     17  C   UNL     1      19.590   8.613   6.697  0.00  0.00    +0.005 A 
ATOM     20  C   UNL     1      20.655   7.372   4.437  0.00  0.00    +0.120 A 
ATOM     21  C   UNL     1      20.869   8.059   6.743  0.00  0.00    +0.004 A 
ATOM     24  C   UNL     1      21.401   7.438   5.613  0.00  0.00    +0.045 A 
BRANCH  20   2
ATOM      2  O   UNL     1      21.173   6.766   3.334  0.00  0.00    -0.495 OA
ATOM     26  C   UNL     1      21.115   7.492   2.106  0.00  0.00    +0.277 C 
ENDBRANCH  20   2
ENDBRANCH  11  13
ENDBRANCH   5  11
TORSDOF 6
ENDMDL
MODEL 3
REMARK VINA RESULT:      -6.7      1.846      2.603
REMARK  Name = 45784354
REMARK  8 active torsions:
REMARK  status: ('A' for Active; 'I' for Inactive)
REMARK    1  A    between atoms: O_2  and  C_20
REMARK    2  A    between atoms: O_2  and  C_26
REMARK    3  A    between atoms: O_3  and  C_25
REMARK    4  A    between atoms: O_3  and  C_27
REMARK    5  A    between atoms: N_5  and  C_11
REMARK    6  A    between atoms: C_7  and  C_12
REMARK    7  A    between atoms: C_11  and  C_13
REMARK    8  A    between atoms: C_18  and  C_25
REMARK                            x       y       z     vdW  Elec       q    Type
REMARK                         _______ _______ _______ _____ _____    ______ ____
ROOT
ATOM      5  N   UNL     1      -2.191 -11.047  13.537  0.00  0.00    -0.297 NA
ATOM      7  C   UNL     1      -3.082 -10.273  15.564  0.00  0.00    +0.090 C 
ATOM      8  C   UNL     1      -1.723 -10.946  15.823  0.00  0.00    +0.029 C 
ATOM      9  C   UNL     1      -3.481 -10.733  14.155  0.00  0.00    +0.097 C 
ATOM     10  C   UNL     1      -1.444 -11.766  14.570  0.00  0.00    +0.085 C 
ENDROOT
BRANCH   7  12
ATOM      1  O   UNL     1      -5.392 -10.096  16.321  0.00  0.00    -0.439 OA
ATOM      6  N   UNL     1      -4.018 -11.212  17.738  0.00  0.00    -0.213 NA
ATOM     12  C   UNL     1      -4.143 -10.563  16.600  0.00  0.00    +0.201 A 
ATOM     14  C   UNL     1      -6.131 -10.493  17.399  0.00  0.00    +0.169 A 
ATOM     15  C   UNL     1      -5.288 -11.174  18.263  0.00  0.00    +0.110 A 
ATOM     18  C   UNL     1      -7.484 -10.271  17.622  0.00  0.00    +0.103 A 
ATOM     19  C   UNL     1      -5.813 -11.688  19.457  0.00  0.00    +0.031 A 
ATOM     22  C   UNL     1      -7.993 -10.790  18.818  0.00  0.00    +0.019 A 
ATOM     23  C   UNL     1      -7.176 -11.485  19.719  0.00  0.00    +0.003 A 
BRANCH  18  25
ATOM      4  O   UNL     1      -8.627  -9.963  15.554  0.00  0.00    -0.245 OA
ATOM     25  C   UNL     1      -8.319  -9.550  16.682  0.00  0.00    +0.343 C 
BRANCH  25   3
ATOM      3  O   UNL     1      -8.733  -8.347  17.190  0.00  0.00    -0.464 OA
ATOM     27  C   UNL     1     -10.144  -8.161  17.352  0.00  0.00    +0.280 C 
ENDBRANCH  25   3
ENDBRANCH  18  25
ENDBRANCH   7  12
BRANCH   5  11
ATOM     11  C   UNL     1      -2.335 -11.824  12.315  0.00  0.00    +0.119 C 
BRANCH  11  13
ATOM     13  C   UNL     1      -3.009 -11.035  11.224  0.00  0.00    -0.030 A 
ATOM     16  C   UNL     1      -4.070 -11.595  10.513  0.00  0.00    +0.050 A 
ATOM     17  C   UNL     1      -2.572  -9.745  10.925  0.00  0.00    +0.005 A 
ATOM     20  C   UNL     1      -4.693 -10.864   9.502  0.00  0.00    +0.120 A 
ATOM     21  C   UNL     1      -3.195  -9.014   9.914  0.00  0.00    +0.004 A 
ATOM     24  C   UNL     1      -4.256  -9.574   9.202  0.00  0.00    +0.045 A 
BRANCH  20   2
ATOM      2  O   UNL     1      -5.728 -11.411   8.807  0.00  0.00    -0.495 OA
ATOM     26  C   UNL     1      -6.376 -10.579   7.845  0.00  0.00    +0.277 C 
ENDBRANCH  20   2
ENDBRANCH  11  13
ENDBRANCH   5  11
TORSDOF 6
ENDMDL
MODEL 4
REMARK VINA RESULT:      -6.5      1.603      2.499
REMARK  Name = 45784354
REMARK  8 active torsions:
REMARK  status: ('A' for Active; 'I' for Inactive)
REMARK    1  A    between atoms: O_2  and  C_20
REMARK    2  A    between atoms: O_2  and  C_26
REMARK    3  A    between atoms: O_3  and  C_25
REMARK    4  A    between atoms: O_3  and  C_27
REMARK    5  A    between atoms: N_5  and  C_11
REMARK    6  A    between atoms: C_7  and  C_12
REMARK    7  A    between atoms: C_11  and  C_13
REMARK    8  A    between atoms: C_18  and  C_25
REMARK                            x       y       z     vdW  Elec       q    Type
REMARK                         _______ _______ _______ _____ _____    ______ ____
ROOT
ATOM      5  N   UNL     1      -4.744 -11.636  17.400  0.00  0.00    -0.297 NA
ATOM      7  C   UNL     1      -6.403 -10.536  18.640  0.00  0.00    +0.090 C 
ATOM      8  C   UNL     1      -5.665 -11.538  19.544  0.00  0.00    +0.029 C 
ATOM      9  C   UNL     1      -6.023 -10.949  17.212  0.00  0.00    +0.097 C 
ATOM     10  C   UNL     1      -4.938 -12.472  18.586  0.00  0.00    +0.085 C 
ENDROOT
BRANCH   7  12
ATOM      1  O   UNL     1      -8.593  -9.708  17.964  0.00  0.00    -0.439 OA
ATOM      6  N   UNL     1      -8.616 -11.049  19.791  0.00  0.00    -0.213 NA
ATOM     12  C   UNL     1      -7.897 -10.467  18.855  0.00  0.00    +0.201 A 
ATOM     14  C   UNL     1      -9.887  -9.823  18.384  0.00  0.00    +0.169 A 
ATOM     15  C   UNL     1      -9.897 -10.644  19.502  0.00  0.00    +0.110 A 
ATOM     18  C   UNL     1     -11.014  -9.239  17.820  0.00  0.00    +0.103 A 
ATOM     19  C   UNL     1     -11.121 -10.921  20.128  0.00  0.00    +0.031 A 
ATOM     22  C   UNL     1     -12.227  -9.525  18.456  0.00  0.00    +0.019 A 
ATOM     23  C   UNL     1     -12.282 -10.349  19.587  0.00  0.00    +0.003 A 
BRANCH  18  25
ATOM      4  O   UNL     1     -10.915  -8.801  15.479  0.00  0.00    -0.245 OA
ATOM     25  C   UNL     1     -10.944  -8.389  16.649  0.00  0.00    +0.343 C 
BRANCH  25   3
ATOM      3  O   UNL     1     -10.913  -7.061  16.986  0.00  0.00    -0.464 OA
ATOM     27  C   UNL     1     -11.018  -6.115  15.917  0.00  0.00    +0.280 C 
ENDBRANCH  25   3
ENDBRANCH  18  25
ENDBRANCH   7  12
BRANCH   5  11
ATOM     11  C   UNL     1      -4.353 -12.412  16.233  0.00  0.00    +0.119 C 
BRANCH  11  13
ATOM     13  C   UNL     1      -3.453 -11.630  15.315  0.00  0.00    -0.030 A 
ATOM     16  C   UNL     1      -3.715 -11.595  13.945  0.00  0.00    +0.050 A 
ATOM     17  C   UNL     1      -2.356 -10.941  15.833  0.00  0.00    +0.005 A 
ATOM     20  C   UNL     1      -2.880 -10.871  13.094  0.00  0.00    +0.120 A 
ATOM     21  C   UNL     1      -1.522 -10.217  14.982  0.00  0.00    +0.004 A 
ATOM     24  C   UNL     1      -1.783 -10.182  13.613  0.00  0.00    +0.045 A 
BRANCH  20   2
ATOM      2  O   UNL     1      -3.135 -10.837  11.758  0.00  0.00    -0.495 OA
ATOM     26  C   UNL     1      -2.500  -9.807  11.001  0.00  0.00    +0.277 C 
ENDBRANCH  20   2
ENDBRANCH  11  13
ENDBRANCH   5  11
TORSDOF 6
ENDMDL
MODEL 5
REMARK VINA RESULT:      -6.1      1.865      3.195
REMARK  Name = 45784354
REMARK  8 active torsions:
REMARK  status: ('A' for Active; 'I' for Inactive)
REMARK    1  A    between atoms: O_2  and  C_20
REMARK    2  A    between atoms: O_2  and  C_26
REMARK    3  A    between atoms: O_3  and  C_25
REMARK    4  A    between atoms: O_3  and  C_27
REMARK    5  A    between atoms: N_5  and  C_11
REMARK    6  A    between atoms: C_7  and  C_12
REMARK    7  A    between atoms: C_11  and  C_13
REMARK    8  A    between atoms: C_18  and  C_25
REMARK                            x       y       z     vdW  Elec       q    Type
REMARK                         _______ _______ _______ _____ _____    ______ ____
ROOT
ATOM      5  N   UNL     1      -4.333 -10.632  14.739  0.00  0.00    -0.297 NA
ATOM      7  C   UNL     1      -5.717  -9.583  16.315  0.00  0.00    +0.090 C 
ATOM      8  C   UNL     1      -4.645 -10.412  17.043  0.00  0.00    +0.029 C 
ATOM      9  C   UNL     1      -5.690 -10.096  14.869  0.00  0.00    +0.097 C 
ATOM     10  C   UNL     1      -4.096 -11.361  15.986  0.00  0.00    +0.085 C 
ENDROOT
BRANCH   7  12
ATOM      1  O   UNL     1      -7.292 -10.622  17.857  0.00  0.00    -0.439 OA
ATOM      6  N   UNL     1      -8.128  -8.861  16.700  0.00  0.00    -0.213 NA
ATOM     12  C   UNL     1      -7.094  -9.640  16.934  0.00  0.00    +0.201 A 
ATOM     14  C   UNL     1      -8.589 -10.443  18.244  0.00  0.00    +0.169 A 
ATOM     15  C   UNL     1      -9.098  -9.365  17.534  0.00  0.00    +0.110 A 
ATOM     18  C   UNL     1      -9.303 -11.185  19.176  0.00  0.00    +0.103 A 
ATOM     19  C   UNL     1     -10.426  -8.975  17.754  0.00  0.00    +0.031 A 
ATOM     22  C   UNL     1     -10.628 -10.783  19.384  0.00  0.00    +0.019 A 
ATOM     23  C   UNL     1     -11.180  -9.701  18.689  0.00  0.00    +0.003 A 
BRANCH  18  25
ATOM      4  O   UNL     1      -7.522 -12.397  20.194  0.00  0.00    -0.245 OA
ATOM     25  C   UNL     1      -8.720 -12.304  19.889  0.00  0.00    +0.343 C 
BRANCH  25   3
ATOM      3  O   UNL     1      -9.656 -13.257  20.191  0.00  0.00    -0.464 OA
ATOM     27  C   UNL     1      -9.388 -14.594  19.754  0.00  0.00    +0.280 C 
ENDBRANCH  25   3
ENDBRANCH  18  25
ENDBRANCH   7  12
BRANCH   5  11
ATOM     11  C   UNL     1      -4.181 -11.478  13.565  0.00  0.00    +0.119 C 
BRANCH  11  13
ATOM     13  C   UNL     1      -3.852 -10.676  12.334  0.00  0.00    -0.030 A 
ATOM     16  C   UNL     1      -4.876 -10.241  11.492  0.00  0.00    +0.050 A 
ATOM     17  C   UNL     1      -2.525 -10.370  12.034  0.00  0.00    +0.005 A 
ATOM     20  C   UNL     1      -4.571  -9.499  10.352  0.00  0.00    +0.120 A 
ATOM     21  C   UNL     1      -2.221  -9.628  10.894  0.00  0.00    +0.004 A 
ATOM     24  C   UNL     1      -3.244  -9.193  10.052  0.00  0.00    +0.045 A 
BRANCH  20   2
ATOM      2  O   UNL     1      -5.571  -9.074   9.530  0.00  0.00    -0.495 OA
ATOM     26  C   UNL     1      -6.833  -8.795  10.135  0.00  0.00    +0.277 C 
ENDBRANCH  20   2
ENDBRANCH  11  13
ENDBRANCH   5  11
TORSDOF 6
ENDMDL
MODEL 6
REMARK VINA RESULT:      -6.1      2.696      7.942
REMARK  Name = 45784354
REMARK  8 active torsions:
REMARK  status: ('A' for Active; 'I' for Inactive)
REMARK    1  A    between atoms: O_2  and  C_20
REMARK    2  A    between atoms: O_2  and  C_26
REMARK    3  A    between atoms: O_3  and  C_25
REMARK    4  A    between atoms: O_3  and  C_27
REMARK    5  A    between atoms: N_5  and  C_11
REMARK    6  A    between atoms: C_7  and  C_12
REMARK    7  A    between atoms: C_11  and  C_13
REMARK    8  A    between atoms: C_18  and  C_25
REMARK                            x       y       z     vdW  Elec       q    Type
REMARK                         _______ _______ _______ _____ _____    ______ ____
ROOT
ATOM      5  N   UNL     1      -3.122 -11.849  15.114  0.00  0.00    -0.297 NA
ATOM      7  C   UNL     1      -3.610 -12.810  13.031  0.00  0.00    +0.090 C 
ATOM      8  C   UNL     1      -2.126 -13.036  13.366  0.00  0.00    +0.029 C 
ATOM      9  C   UNL     1      -4.065 -11.713  14.002  0.00  0.00    +0.097 C 
ATOM     10  C   UNL     1      -1.818 -12.043  14.478  0.00  0.00    +0.085 C 
ENDROOT
BRANCH   7  12
ATOM      1  O   UNL     1      -4.389 -11.224  11.352  0.00  0.00    -0.439 OA
ATOM      6  N   UNL     1      -3.713 -13.220  10.519  0.00  0.00    -0.213 NA
ATOM     12  C   UNL     1      -3.890 -12.470  11.585  0.00  0.00    +0.201 A 
ATOM     14  C   UNL     1      -4.541 -11.187   9.996  0.00  0.00    +0.169 A 
ATOM     15  C   UNL     1      -4.128 -12.410   9.490  0.00  0.00    +0.110 A 
ATOM     18  C   UNL     1      -5.022 -10.133   9.228  0.00  0.00    +0.103 A 
ATOM     19  C   UNL     1      -4.186 -12.626   8.106  0.00  0.00    +0.031 A 
ATOM     22  C   UNL     1      -5.075 -10.365   7.849  0.00  0.00    +0.019 A 
ATOM     23  C   UNL     1      -4.666 -11.585   7.296  0.00  0.00    +0.003 A 
BRANCH  18  25
ATOM      4  O   UNL     1      -4.683  -8.073  10.377  0.00  0.00    -0.245 OA
ATOM     25  C   UNL     1      -5.441  -8.875   9.811  0.00  0.00    +0.343 C 
BRANCH  25   3
ATOM      3  O   UNL     1      -6.788  -8.671   9.663  0.00  0.00    -0.464 OA
ATOM     27  C   UNL     1      -7.638  -9.156  10.709  0.00  0.00    +0.280 C 
ENDBRANCH  25   3
ENDBRANCH  18  25
ENDBRANCH   7  12
BRANCH   5  11
ATOM     11  C   UNL     1      -3.141 -10.698  16.003  0.00  0.00    +0.119 C 
BRANCH  11  13
ATOM     13  C   UNL     1      -4.158 -10.854  17.102  0.00  0.00    -0.030 A 
ATOM     16  C   UNL     1      -5.373 -10.173  17.029  0.00  0.00    +0.050 A 
ATOM     17  C   UNL     1      -3.884 -11.677  18.194  0.00  0.00    +0.005 A 
ATOM     20  C   UNL     1      -6.314 -10.317  18.048  0.00  0.00    +0.120 A 
ATOM     21  C   UNL     1      -4.825 -11.821  19.212  0.00  0.00    +0.004 A 
ATOM     24  C   UNL     1      -6.040 -11.141  19.140  0.00  0.00    +0.045 A 
BRANCH  20   2
ATOM      2  O   UNL     1      -7.500  -9.652  17.976  0.00  0.00    -0.495 OA
ATOM     26  C   UNL     1      -7.953  -9.271  16.677  0.00  0.00    +0.277 C 
ENDBRANCH  20   2
ENDBRANCH  11  13
ENDBRANCH   5  11
TORSDOF 6
ENDMDL
MODEL 7
REMARK VINA RESULT:      -6.0     22.768     27.272
REMARK  Name = 45784354
REMARK  8 active torsions:
REMARK  status: ('A' for Active; 'I' for Inactive)
REMARK    1  A    between atoms: O_2  and  C_20
REMARK    2  A    between atoms: O_2  and  C_26
REMARK    3  A    between atoms: O_3  and  C_25
REMARK    4  A    between atoms: O_3  and  C_27
REMARK    5  A    between atoms: N_5  and  C_11
REMARK    6  A    between atoms: C_7  and  C_12
REMARK    7  A    between atoms: C_11  and  C_13
REMARK    8  A    between atoms: C_18  and  C_25
REMARK                            x       y       z     vdW  Elec       q    Type
REMARK                         _______ _______ _______ _____ _____    ______ ____
ROOT
ATOM      5  N   UNL     1      10.671   5.006   4.021  0.00  0.00    -0.297 NA
ATOM      7  C   UNL     1      12.054   4.687   2.154  0.00  0.00    +0.090 C 
ATOM      8  C   UNL     1      11.827   6.192   2.374  0.00  0.00    +0.029 C 
ATOM      9  C   UNL     1      10.970   4.003   2.997  0.00  0.00    +0.097 C 
ATOM     10  C   UNL     1      10.620   6.278   3.298  0.00  0.00    +0.085 C 
ENDROOT
BRANCH   7  12
ATOM      1  O   UNL     1      11.204   4.936  -0.117  0.00  0.00    -0.439 OA
ATOM      6  N   UNL     1      12.735   3.285   0.140  0.00  0.00    -0.213 NA
ATOM     12  C   UNL     1      12.041   4.246   0.708  0.00  0.00    +0.201 A 
ATOM     14  C   UNL     1      11.392   4.344  -1.332  0.00  0.00    +0.169 A 
ATOM     15  C   UNL     1      12.328   3.334  -1.172  0.00  0.00    +0.110 A 
ATOM     18  C   UNL     1      10.774   4.667  -2.534  0.00  0.00    +0.103 A 
ATOM     19  C   UNL     1      12.698   2.568  -2.286  0.00  0.00    +0.031 A 
ATOM     22  C   UNL     1      11.153   3.894  -3.637  0.00  0.00    +0.019 A 
ATOM     23  C   UNL     1      12.096   2.865  -3.519  0.00  0.00    +0.003 A 
BRANCH  18  25
ATOM      4  O   UNL     1       8.641   5.678  -2.207  0.00  0.00    -0.245 OA
ATOM     25  C   UNL     1       9.800   5.735  -2.644  0.00  0.00    +0.343 C 
BRANCH  25   3
ATOM      3  O   UNL     1      10.314   6.826  -3.294  0.00  0.00    -0.464 OA
ATOM     27  C   UNL     1       9.475   7.983  -3.385  0.00  0.00    +0.280 C 
ENDBRANCH  25   3
ENDBRANCH  18  25
ENDBRANCH   7  12
BRANCH   5  11
ATOM     11  C   UNL     1       9.435   4.723   4.733  0.00  0.00    +0.119 C 
BRANCH  11  13
ATOM     13  C   UNL     1       9.306   5.550   5.985  0.00  0.00    -0.030 A 
ATOM     16  C   UNL     1       9.870   5.100   7.179  0.00  0.00    +0.050 A 
ATOM     17  C   UNL     1       8.621   6.764   5.951  0.00  0.00    +0.005 A 
ATOM     20  C   UNL     1       9.750   5.866   8.338  0.00  0.00    +0.120 A 
ATOM     21  C   UNL     1       8.501   7.530   7.110  0.00  0.00    +0.004 A 
ATOM     24  C   UNL     1       9.065   7.081   8.304  0.00  0.00    +0.045 A 
BRANCH  20   2
ATOM      2  O   UNL     1      10.300   5.427   9.503  0.00  0.00    -0.495 OA
ATOM     26  C   UNL     1       9.511   4.545  10.301  0.00  0.00    +0.277 C 
ENDBRANCH  20   2
ENDBRANCH  11  13
ENDBRANCH   5  11
TORSDOF 6
ENDMDL
MODEL 8
REMARK VINA RESULT:      -6.0     24.899     28.940
REMARK  Name = 45784354
REMARK  8 active torsions:
REMARK  status: ('A' for Active; 'I' for Inactive)
REMARK    1  A    between atoms: O_2  and  C_20
REMARK    2  A    between atoms: O_2  and  C_26
REMARK    3  A    between atoms: O_3  and  C_25
REMARK    4  A    between atoms: O_3  and  C_27
REMARK    5  A    between atoms: N_5  and  C_11
REMARK    6  A    between atoms: C_7  and  C_12
REMARK    7  A    between atoms: C_11  and  C_13
REMARK    8  A    between atoms: C_18  and  C_25
REMARK                            x       y       z     vdW  Elec       q    Type
REMARK                         _______ _______ _______ _____ _____    ______ ____
ROOT
ATOM      5  N   UNL     1      16.141   8.985   5.280  0.00  0.00    -0.297 NA
ATOM      7  C   UNL     1      14.106   7.830   5.129  0.00  0.00    +0.090 C 
ATOM      8  C   UNL     1      14.001   9.158   4.361  0.00  0.00    +0.029 C 
ATOM      9  C   UNL     1      15.355   7.986   6.006  0.00  0.00    +0.097 C 
ATOM     10  C   UNL     1      15.169   9.997   4.862  0.00  0.00    +0.085 C 
ENDROOT
BRANCH   7  12
ATOM      1  O   UNL     1      11.729   8.113   5.588  0.00  0.00    -0.439 OA
ATOM      6  N   UNL     1      12.762   6.571   6.888  0.00  0.00    -0.213 NA
ATOM     12  C   UNL     1      12.874   7.455   5.920  0.00  0.00    +0.201 A 
ATOM     14  C   UNL     1      10.798   7.588   6.438  0.00  0.00    +0.169 A 
ATOM     15  C   UNL     1      11.434   6.646   7.232  0.00  0.00    +0.110 A 
ATOM     18  C   UNL     1       9.450   7.915   6.521  0.00  0.00    +0.103 A 
ATOM     19  C   UNL     1      10.686   5.956   8.197  0.00  0.00    +0.031 A 
ATOM     22  C   UNL     1       8.718   7.219   7.489  0.00  0.00    +0.019 A 
ATOM     23  C   UNL     1       9.320   6.259   8.311  0.00  0.00    +0.003 A 
BRANCH  18  25
ATOM      4  O   UNL     1       9.091  10.124   5.703  0.00  0.00    -0.245 OA
ATOM     25  C   UNL     1       8.838   8.910   5.664  0.00  0.00    +0.343 C 
BRANCH  25   3
ATOM      3  O   UNL     1       7.938   8.349   4.797  0.00  0.00    -0.464 OA
ATOM     27  C   UNL     1       8.392   8.093   3.463  0.00  0.00    +0.280 C 
ENDBRANCH  25   3
ENDBRANCH  18  25
ENDBRANCH   7  12
BRANCH   5  11
ATOM     11  C   UNL     1      17.212   9.546   6.089  0.00  0.00    +0.119 C 
BRANCH  11  13
ATOM     13  C   UNL     1      18.522   8.843   5.852  0.00  0.00    -0.030 A 
ATOM     16  C   UNL     1      18.829   8.351   4.583  0.00  0.00    +0.050 A 
ATOM     17  C   UNL     1      19.429   8.685   6.900  0.00  0.00    +0.005 A 
ATOM     20  C   UNL     1      20.043   7.700   4.364  0.00  0.00    +0.120 A 
ATOM     21  C   UNL     1      20.642   8.034   6.679  0.00  0.00    +0.004 A 
ATOM     24  C   UNL     1      20.949   7.541   5.412  0.00  0.00    +0.045 A 
BRANCH  20   2
ATOM      2  O   UNL     1      20.341   7.218   3.126  0.00  0.00    -0.495 OA
ATOM     26  C   UNL     1      21.715   6.945   2.850  0.00  0.00    +0.277 C 
ENDBRANCH  20   2
ENDBRANCH  11  13
ENDBRANCH   5  11
TORSDOF 6
ENDMDL
MODEL 9
REMARK VINA RESULT:      -5.9     20.816     25.025
REMARK  Name = 45784354
REMARK  8 active torsions:
REMARK  status: ('A' for Active; 'I' for Inactive)
REMARK    1  A    between atoms: O_2  and  C_20
REMARK    2  A    between atoms: O_2  and  C_26
REMARK    3  A    between atoms: O_3  and  C_25
REMARK    4  A    between atoms: O_3  and  C_27
REMARK    5  A    between atoms: N_5  and  C_11
REMARK    6  A    between atoms: C_7  and  C_12
REMARK    7  A    between atoms: C_11  and  C_13
REMARK    8  A    between atoms: C_18  and  C_25
REMARK                            x       y       z     vdW  Elec       q    Type
REMARK                         _______ _______ _______ _____ _____    ______ ____
ROOT
ATOM      5  N   UNL     1     -15.694   4.445  31.573  0.00  0.00    -0.297 NA
ATOM      7  C   UNL     1     -14.757   4.940  33.665  0.00  0.00    +0.090 C 
ATOM      8  C   UNL     1     -16.283   5.124  33.729  0.00  0.00    +0.029 C 
ATOM      9  C   UNL     1     -14.433   4.895  32.166  0.00  0.00    +0.097 C 
ATOM     10  C   UNL     1     -16.731   5.202  32.276  0.00  0.00    +0.085 C 
ENDROOT
BRANCH   7  12
ATOM      1  O   UNL     1     -13.608   7.089  33.692  0.00  0.00    -0.439 OA
ATOM      6  N   UNL     1     -13.561   5.972  35.663  0.00  0.00    -0.213 NA
ATOM     12  C   UNL     1     -13.959   5.986  34.409  0.00  0.00    +0.201 A 
ATOM     14  C   UNL     1     -12.915   7.849  34.589  0.00  0.00    +0.169 A 
ATOM     15  C   UNL     1     -12.887   7.162  35.794  0.00  0.00    +0.110 A 
ATOM     18  C   UNL     1     -12.329   9.090  34.371  0.00  0.00    +0.103 A 
ATOM     19  C   UNL     1     -12.228   7.739  36.888  0.00  0.00    +0.031 A 
ATOM     22  C   UNL     1     -11.674   9.652  35.473  0.00  0.00    +0.019 A 
ATOM     23  C   UNL     1     -11.623   8.993  36.707  0.00  0.00    +0.003 A 
BRANCH  18  25
ATOM      4  O   UNL     1     -13.166  10.689  32.815  0.00  0.00    -0.245 OA
ATOM     25  C   UNL     1     -12.389   9.762  33.089  0.00  0.00    +0.343 C 
BRANCH  25   3
ATOM      3  O   UNL     1     -11.477   9.250  32.204  0.00  0.00    -0.464 OA
ATOM     27  C   UNL     1     -11.710   9.499  30.813  0.00  0.00    +0.280 C 
ENDBRANCH  25   3
ENDBRANCH  18  25
ENDBRANCH   7  12
BRANCH   5  11
ATOM     11  C   UNL     1     -15.736   4.651  30.134  0.00  0.00    +0.119 C 
BRANCH  11  13
ATOM     13  C   UNL     1     -15.963   3.363  29.388  0.00  0.00    -0.030 A 
ATOM     16  C   UNL     1     -15.857   2.142  30.057  0.00  0.00    +0.050 A 
ATOM     17  C   UNL     1     -16.279   3.389  28.030  0.00  0.00    +0.005 A 
ATOM     20  C   UNL     1     -16.067   0.950  29.366  0.00  0.00    +0.120 A 
ATOM     21  C   UNL     1     -16.489   2.196  27.340  0.00  0.00    +0.004 A 
ATOM     24  C   UNL     1     -16.383   0.976  28.007  0.00  0.00    +0.045 A 
BRANCH  20   2
ATOM      2  O   UNL     1     -15.963  -0.241  30.018  0.00  0.00    -0.495 OA
ATOM     26  C   UNL     1     -15.086  -0.289  31.143  0.00  0.00    +0.277 C 
ENDBRANCH  20   2
ENDBRANCH  11  13
ENDBRANCH   5  11
TORSDOF 6
ENDMDL
MODEL 10
REMARK VINA RESULT:      -5.9      3.385      6.461
REMARK  Name = 45784354
REMARK  8 active torsions:
REMARK  status: ('A' for Active; 'I' for Inactive)
REMARK    1  A    between atoms: O_2  and  C_20
REMARK    2  A    between atoms: O_2  and  C_26
REMARK    3  A    between atoms: O_3  and  C_25
REMARK    4  A    between atoms: O_3  and  C_27
REMARK    5  A    between atoms: N_5  and  C_11
REMARK    6  A    between atoms: C_7  and  C_12
REMARK    7  A    between atoms: C_11  and  C_13
REMARK    8  A    between atoms: C_18  and  C_25
REMARK                            x       y       z     vdW  Elec       q    Type
REMARK                         _______ _______ _______ _____ _____    ______ ____
ROOT
ATOM      5  N   UNL     1      -8.832  -9.064  16.394  0.00  0.00    -0.297 NA
ATOM      7  C   UNL     1     -10.401  -7.322  16.339  0.00  0.00    +0.090 C 
ATOM      8  C   UNL     1     -10.558  -8.114  17.648  0.00  0.00    +0.029 C 
ATOM      9  C   UNL     1      -9.558  -8.230  15.434  0.00  0.00    +0.097 C 
ATOM     10  C   UNL     1      -9.827  -9.427  17.404  0.00  0.00    +0.085 C 
ENDROOT
BRANCH   7  12
ATOM      1  O   UNL     1     -11.591  -6.000  14.673  0.00  0.00    -0.439 OA
ATOM      6  N   UNL     1     -12.924  -7.270  15.995  0.00  0.00    -0.213 NA
ATOM     12  C   UNL     1     -11.700  -6.892  15.697  0.00  0.00    +0.201 A 
ATOM     14  C   UNL     1     -12.885  -5.795  14.287  0.00  0.00    +0.169 A 
ATOM     15  C   UNL     1     -13.697  -6.573  15.098  0.00  0.00    +0.110 A 
ATOM     18  C   UNL     1     -13.342  -4.964  13.271  0.00  0.00    +0.103 A 
ATOM     19  C   UNL     1     -15.084  -6.539  14.900  0.00  0.00    +0.031 A 
ATOM     22  C   UNL     1     -14.729  -4.941  13.087  0.00  0.00    +0.019 A 
ATOM     23  C   UNL     1     -15.585  -5.711  13.883  0.00  0.00    +0.003 A 
BRANCH  18  25
ATOM      4  O   UNL     1     -12.157  -2.985  12.672  0.00  0.00    -0.245 OA
ATOM     25  C   UNL     1     -12.446  -4.172  12.454  0.00  0.00    +0.343 C 
BRANCH  25   3
ATOM      3  O   UNL     1     -11.949  -4.892  11.400  0.00  0.00    -0.464 OA
ATOM     27  C   UNL     1     -12.006  -4.278  10.108  0.00  0.00    +0.280 C 
ENDBRANCH  25   3
ENDBRANCH  18  25
ENDBRANCH   7  12
BRANCH   5  11
ATOM     11  C   UNL     1      -8.225 -10.229  15.770  0.00  0.00    +0.119 C 
BRANCH  11  13
ATOM     13  C   UNL     1      -6.771 -10.368  16.136  0.00  0.00    -0.030 A 
ATOM     16  C   UNL     1      -5.800 -10.401  15.134  0.00  0.00    +0.050 A 
ATOM     17  C   UNL     1      -6.395 -10.465  17.475  0.00  0.00    +0.005 A 
ATOM     20  C   UNL     1      -4.454 -10.530  15.473  0.00  0.00    +0.120 A 
ATOM     21  C   UNL     1      -5.048 -10.594  17.814  0.00  0.00    +0.004 A 
ATOM     24  C   UNL     1      -4.078 -10.627  16.813  0.00  0.00    +0.045 A 
BRANCH  20   2
ATOM      2  O   UNL     1      -3.507 -10.563  14.496  0.00  0.00    -0.495 OA
ATOM     26  C   UNL     1      -2.735 -11.758  14.380  0.00  0.00    +0.277 C 
ENDBRANCH  20   2
ENDBRANCH  11  13
ENDBRANCH   5  11
TORSDOF 6
ENDMDL
