MODEL 1
REMARK VINA RESULT:      -7.9      0.000      0.000
REMARK  Name = 11885143
REMARK  2 active torsions:
REMARK  status: ('A' for Active; 'I' for Inactive)
REMARK    1  A    between atoms: C_12  and  C_13
REMARK    2  A    between atoms: C_21  and  C_23
REMARK                            x       y       z     vdW  Elec       q    Type
REMARK                         _______ _______ _______ _____ _____    ______ ____
ROOT
ATOM      1  O   UNL     1      13.005   5.936  -2.399  0.00  0.00    -0.275 OA
ATOM      2  O   UNL     1      12.190   7.861   2.523  0.00  0.00    -0.267 OA
ATOM      3  N   UNL     1      13.477   4.321  -0.796  0.00  0.00    -0.300 N 
ATOM      4  N   UNL     1      12.755   5.657   2.013  0.00  0.00    -0.311 N 
ATOM      5  C   UNL     1      15.031   5.011   1.033  0.00  0.00    +0.027 C 
ATOM      6  C   UNL     1      13.345   3.272   1.456  0.00  0.00    +0.054 C 
ATOM      7  C   UNL     1      14.793   3.674   1.724  0.00  0.00    +0.018 C 
ATOM      8  C   UNL     1      14.791   4.885  -0.482  0.00  0.00    +0.113 C 
ATOM      9  C   UNL     1      13.131   3.096  -0.060  0.00  0.00    +0.117 C 
ATOM     10  C   UNL     1      14.125   6.069   1.674  0.00  0.00    +0.130 C 
ATOM     11  C   UNL     1      12.380   4.312   1.994  0.00  0.00    +0.027 A 
ATOM     13  C   UNL     1      12.695   4.907  -1.793  0.00  0.00    +0.219 C 
ATOM     16  C   UNL     1      11.161   3.947   2.422  0.00  0.00    +0.022 A 
ATOM     19  C   UNL     1      11.884   6.669   2.459  0.00  0.00    +0.259 A 
ATOM     21  C   UNL     1      10.511   6.234   2.898  0.00  0.00    +0.047 A 
ATOM     22  C   UNL     1      10.214   4.926   2.874  0.00  0.00    +0.015 A 
ENDROOT
BRANCH  21  23
ATOM     23  C   UNL     1       9.504   7.214   3.339  0.00  0.00    -0.012 A 
ATOM     24  C   UNL     1       8.736   7.900   2.396  0.00  0.00    +0.017 A 
ATOM     25  C   UNL     1       9.316   7.457   4.696  0.00  0.00    +0.009 A 
ATOM     26  C   UNL     1       7.772   8.838   2.801  0.00  0.00    -0.017 A 
ATOM     27  C   UNL     1       8.362   8.384   5.117  0.00  0.00    +0.009 A 
ATOM     28  C   UNL     1       7.582   9.083   4.181  0.00  0.00    -0.018 A 
ATOM     29  C   UNL     1       6.991   9.536   1.865  0.00  0.00    +0.008 A 
ATOM     30  C   UNL     1       6.617  10.020   4.586  0.00  0.00    +0.008 A 
ATOM     31  C   UNL     1       6.037  10.463   2.284  0.00  0.00    +0.001 A 
ATOM     32  C   UNL     1       5.851  10.706   3.643  0.00  0.00    +0.001 A 
ENDBRANCH  21  23
BRANCH  13  12
ATOM     12  C   UNL     1      11.402   4.223  -2.120  0.00  0.00    +0.075 C 
ATOM     14  C   UNL     1      10.407   5.236  -2.694  0.00  0.00    +0.013 C 
ATOM     15  C   UNL     1      11.652   3.071  -3.096  0.00  0.00    +0.013 C 
ATOM     17  C   UNL     1       9.107   4.566  -3.129  0.00  0.00    +0.001 C 
ATOM     18  C   UNL     1      10.349   2.406  -3.531  0.00  0.00    +0.001 C 
ATOM     20  C   UNL     1       9.363   3.420  -4.104  0.00  0.00    +0.000 C 
ENDBRANCH  13  12
TORSDOF 2
ENDMDL
MODEL 2
REMARK VINA RESULT:      -7.9     27.129     29.282
REMARK  Name = 11885143
REMARK  2 active torsions:
REMARK  status: ('A' for Active; 'I' for Inactive)
REMARK    1  A    between atoms: C_12  and  C_13
REMARK    2  A    between atoms: C_21  and  C_23
REMARK                            x       y       z     vdW  Elec       q    Type
REMARK                         _______ _______ _______ _____ _____    ______ ____
ROOT
ATOM      1  O   UNL     1     -11.276 -11.768  16.506  0.00  0.00    -0.275 OA
ATOM      2  O   UNL     1      -6.314 -12.824  14.816  0.00  0.00    -0.267 OA
ATOM      3  N   UNL     1      -9.749 -11.531  18.241  0.00  0.00    -0.300 N 
ATOM      4  N   UNL     1      -6.879 -12.046  16.940  0.00  0.00    -0.311 N 
ATOM      5  C   UNL     1      -8.204 -13.458  18.616  0.00  0.00    +0.027 C 
ATOM      6  C   UNL     1      -7.491 -11.185  19.227  0.00  0.00    +0.054 C 
ATOM      7  C   UNL     1      -7.466 -12.645  19.672  0.00  0.00    +0.018 C 
ATOM      8  C   UNL     1      -9.658 -12.973  18.482  0.00  0.00    +0.113 C 
ATOM      9  C   UNL     1      -8.950 -10.695  19.150  0.00  0.00    +0.117 C 
ATOM     10  C   UNL     1      -7.440 -13.359  17.290  0.00  0.00    +0.130 C 
ATOM     11  C   UNL     1      -6.819 -11.013  17.878  0.00  0.00    +0.027 A 
ATOM     13  C   UNL     1     -10.614 -11.049  17.258  0.00  0.00    +0.219 C 
ATOM     16  C   UNL     1      -6.194  -9.864  17.575  0.00  0.00    +0.022 A 
ATOM     19  C   UNL     1      -6.312 -11.924  15.657  0.00  0.00    +0.259 A 
ATOM     21  C   UNL     1      -5.650 -10.611  15.333  0.00  0.00    +0.047 A 
ATOM     22  C   UNL     1      -5.608  -9.662  16.280  0.00  0.00    +0.015 A 
ENDROOT
BRANCH  21  23
ATOM     23  C   UNL     1      -5.067 -10.357  14.004  0.00  0.00    -0.012 A 
ATOM     24  C   UNL     1      -5.825  -9.729  13.015  0.00  0.00    +0.017 A 
ATOM     25  C   UNL     1      -3.757 -10.743  13.735  0.00  0.00    +0.009 A 
ATOM     26  C   UNL     1      -5.281  -9.481  11.744  0.00  0.00    -0.017 A 
ATOM     27  C   UNL     1      -3.200 -10.504  12.478  0.00  0.00    +0.009 A 
ATOM     28  C   UNL     1      -3.950  -9.874  11.472  0.00  0.00    -0.018 A 
ATOM     29  C   UNL     1      -6.031  -8.850  10.738  0.00  0.00    +0.008 A 
ATOM     30  C   UNL     1      -3.406  -9.625  10.201  0.00  0.00    +0.008 A 
ATOM     31  C   UNL     1      -5.476  -8.611   9.480  0.00  0.00    +0.001 A 
ATOM     32  C   UNL     1      -4.166  -8.998   9.212  0.00  0.00    +0.001 A 
ENDBRANCH  21  23
BRANCH  13  12
ATOM     12  C   UNL     1     -10.719  -9.559  17.128  0.00  0.00    +0.075 C 
ATOM     14  C   UNL     1      -9.625  -9.038  16.193  0.00  0.00    +0.013 C 
ATOM     15  C   UNL     1     -12.113  -9.176  16.625  0.00  0.00    +0.013 C 
ATOM     17  C   UNL     1      -9.752  -7.536  15.957  0.00  0.00    +0.001 C 
ATOM     18  C   UNL     1     -12.235  -7.673  16.388  0.00  0.00    +0.001 C 
ATOM     20  C   UNL     1     -11.142  -7.161  15.453  0.00  0.00    +0.000 C 
ENDBRANCH  13  12
TORSDOF 2
ENDMDL
MODEL 3
REMARK VINA RESULT:      -7.7     27.646     29.957
REMARK  Name = 11885143
REMARK  2 active torsions:
REMARK  status: ('A' for Active; 'I' for Inactive)
REMARK    1  A    between atoms: C_12  and  C_13
REMARK    2  A    between atoms: C_21  and  C_23
REMARK                            x       y       z     vdW  Elec       q    Type
REMARK                         _______ _______ _______ _____ _____    ______ ____
ROOT
ATOM      1  O   UNL     1     -12.722 -10.727  16.157  0.00  0.00    -0.275 OA
ATOM      2  O   UNL     1      -7.807 -12.492  15.008  0.00  0.00    -0.267 OA
ATOM      3  N   UNL     1     -11.395 -10.763  18.064  0.00  0.00    -0.300 N 
ATOM      4  N   UNL     1      -8.498 -11.682  17.082  0.00  0.00    -0.311 N 
ATOM      5  C   UNL     1     -10.210 -12.910  18.538  0.00  0.00    +0.027 C 
ATOM      6  C   UNL     1      -9.244 -10.787  19.316  0.00  0.00    +0.054 C 
ATOM      7  C   UNL     1      -9.490 -12.243  19.703  0.00  0.00    +0.018 C 
ATOM      8  C   UNL     1     -11.549 -12.206  18.257  0.00  0.00    +0.113 C 
ATOM      9  C   UNL     1     -10.594 -10.078  19.090  0.00  0.00    +0.117 C 
ATOM     10  C   UNL     1      -9.287 -12.901  17.314  0.00  0.00    +0.130 C 
ATOM     11  C   UNL     1      -8.398 -10.690  18.061  0.00  0.00    +0.027 A 
ATOM     13  C   UNL     1     -12.055 -10.133  17.008  0.00  0.00    +0.219 C 
ATOM     16  C   UNL     1      -7.577  -9.644  17.876  0.00  0.00    +0.022 A 
ATOM     19  C   UNL     1      -7.770 -11.621  15.878  0.00  0.00    +0.259 A 
ATOM     21  C   UNL     1      -6.887 -10.417  15.684  0.00  0.00    +0.047 A 
ATOM     22  C   UNL     1      -6.817  -9.507  16.666  0.00  0.00    +0.015 A 
ENDROOT
BRANCH  21  23
ATOM     23  C   UNL     1      -6.117 -10.227  14.442  0.00  0.00    -0.012 A 
ATOM     24  C   UNL     1      -4.759 -10.547  14.406  0.00  0.00    +0.017 A 
ATOM     25  C   UNL     1      -6.745  -9.730  13.303  0.00  0.00    +0.009 A 
ATOM     26  C   UNL     1      -4.013 -10.371  13.229  0.00  0.00    -0.017 A 
ATOM     27  C   UNL     1      -6.019  -9.551  12.126  0.00  0.00    +0.009 A 
ATOM     28  C   UNL     1      -4.653  -9.866  12.072  0.00  0.00    -0.018 A 
ATOM     29  C   UNL     1      -2.646 -10.687  13.175  0.00  0.00    +0.008 A 
ATOM     30  C   UNL     1      -3.906  -9.692  10.895  0.00  0.00    +0.008 A 
ATOM     31  C   UNL     1      -1.919 -10.508  11.998  0.00  0.00    +0.001 A 
ATOM     32  C   UNL     1      -2.548 -10.010  10.860  0.00  0.00    +0.001 A 
ENDBRANCH  21  23
BRANCH  13  12
ATOM     12  C   UNL     1     -11.920  -8.642  16.925  0.00  0.00    +0.075 C 
ATOM     14  C   UNL     1     -10.633  -8.275  16.182  0.00  0.00    +0.013 C 
ATOM     15  C   UNL     1     -13.151  -8.045  16.240  0.00  0.00    +0.013 C 
ATOM     17  C   UNL     1     -10.502  -6.767  15.993  0.00  0.00    +0.001 C 
ATOM     18  C   UNL     1     -13.015  -6.537  16.049  0.00  0.00    +0.001 C 
ATOM     20  C   UNL     1     -11.731  -6.177  15.306  0.00  0.00    +0.000 C 
ENDBRANCH  13  12
TORSDOF 2
ENDMDL
MODEL 4
REMARK VINA RESULT:      -7.4     13.155     17.037
REMARK  Name = 11885143
REMARK  2 active torsions:
REMARK  status: ('A' for Active; 'I' for Inactive)
REMARK    1  A    between atoms: C_12  and  C_13
REMARK    2  A    between atoms: C_21  and  C_23
REMARK                            x       y       z     vdW  Elec       q    Type
REMARK                         _______ _______ _______ _____ _____    ______ ____
ROOT
ATOM      1  O   UNL     1      -3.322  12.176   2.687  0.00  0.00    -0.275 OA
ATOM      2  O   UNL     1      -6.728   9.497   5.820  0.00  0.00    -0.267 OA
ATOM      3  N   UNL     1      -2.170  10.870   4.225  0.00  0.00    -0.300 N 
ATOM      4  N   UNL     1      -4.408   9.264   5.841  0.00  0.00    -0.311 N 
ATOM      5  C   UNL     1      -2.843  11.138   6.616  0.00  0.00    +0.027 C 
ATOM      6  C   UNL     1      -1.902   9.000   5.845  0.00  0.00    +0.054 C 
ATOM      7  C   UNL     1      -1.900  10.003   6.996  0.00  0.00    +0.018 C 
ATOM      8  C   UNL     1      -2.369  11.821   5.321  0.00  0.00    +0.113 C 
ATOM      9  C   UNL     1      -1.374   9.682   4.567  0.00  0.00    +0.117 C 
ATOM     10  C   UNL     1      -4.265  10.578   6.484  0.00  0.00    +0.130 C 
ATOM     11  C   UNL     1      -3.296   8.454   5.598  0.00  0.00    +0.027 A 
ATOM     13  C   UNL     1      -2.656  11.172   2.953  0.00  0.00    +0.219 C 
ATOM     16  C   UNL     1      -3.461   7.211   5.120  0.00  0.00    +0.022 A 
ATOM     19  C   UNL     1      -5.722   8.826   5.587  0.00  0.00    +0.259 A 
ATOM     21  C   UNL     1      -5.873   7.440   5.017  0.00  0.00    +0.047 A 
ATOM     22  C   UNL     1      -4.770   6.703   4.822  0.00  0.00    +0.015 A 
ENDROOT
BRANCH  21  23
ATOM     23  C   UNL     1      -7.198   6.898   4.670  0.00  0.00    -0.012 A 
ATOM     24  C   UNL     1      -7.865   7.358   3.533  0.00  0.00    +0.017 A 
ATOM     25  C   UNL     1      -7.785   5.926   5.475  0.00  0.00    +0.009 A 
ATOM     26  C   UNL     1      -9.129   6.850   3.190  0.00  0.00    -0.017 A 
ATOM     27  C   UNL     1      -9.039   5.410   5.148  0.00  0.00    +0.009 A 
ATOM     28  C   UNL     1      -9.724   5.862   4.009  0.00  0.00    -0.018 A 
ATOM     29  C   UNL     1      -9.814   7.301   2.049  0.00  0.00    +0.008 A 
ATOM     30  C   UNL     1     -10.988   5.354   3.664  0.00  0.00    +0.008 A 
ATOM     31  C   UNL     1     -11.068   6.786   1.722  0.00  0.00    +0.001 A 
ATOM     32  C   UNL     1     -11.655   5.814   2.528  0.00  0.00    +0.001 A 
ENDBRANCH  21  23
BRANCH  13  12
ATOM     12  C   UNL     1      -2.339  10.193   1.862  0.00  0.00    +0.075 C 
ATOM     14  C   UNL     1      -3.446  10.213   0.805  0.00  0.00    +0.013 C 
ATOM     15  C   UNL     1      -0.975  10.518   1.250  0.00  0.00    +0.013 C 
ATOM     17  C   UNL     1      -3.118   9.298  -0.371  0.00  0.00    +0.001 C 
ATOM     18  C   UNL     1      -0.652   9.604   0.071  0.00  0.00    +0.001 C 
ATOM     20  C   UNL     1      -1.758   9.629  -0.980  0.00  0.00    +0.000 C 
ENDBRANCH  13  12
TORSDOF 2
ENDMDL
MODEL 5
REMARK VINA RESULT:      -7.4     33.836     36.825
REMARK  Name = 11885143
REMARK  2 active torsions:
REMARK  status: ('A' for Active; 'I' for Inactive)
REMARK    1  A    between atoms: C_12  and  C_13
REMARK    2  A    between atoms: C_21  and  C_23
REMARK                            x       y       z     vdW  Elec       q    Type
REMARK                         _______ _______ _______ _____ _____    ______ ____
ROOT
ATOM      1  O   UNL     1       8.710  -7.880  37.761  0.00  0.00    -0.275 OA
ATOM      2  O   UNL     1       9.530  -9.476  32.723  0.00  0.00    -0.267 OA
ATOM      3  N   UNL     1       8.309  -6.142  36.273  0.00  0.00    -0.300 N 
ATOM      4  N   UNL     1       8.702  -7.392  33.360  0.00  0.00    -0.311 N 
ATOM      5  C   UNL     1      10.122  -5.672  34.619  0.00  0.00    +0.027 C 
ATOM      6  C   UNL     1       7.787  -5.148  34.052  0.00  0.00    +0.054 C 
ATOM      7  C   UNL     1       9.224  -4.643  33.944  0.00  0.00    +0.018 C 
ATOM      8  C   UNL     1       9.732  -5.840  36.098  0.00  0.00    +0.113 C 
ATOM      9  C   UNL     1       7.390  -5.261  35.537  0.00  0.00    +0.117 C 
ATOM     10  C   UNL     1      10.031  -6.993  33.846  0.00  0.00    +0.130 C 
ATOM     11  C   UNL     1       7.629  -6.496  33.375  0.00  0.00    +0.027 A 
ATOM     13  C   UNL     1       7.921  -7.152  37.153  0.00  0.00    +0.219 C 
ATOM     16  C   UNL     1       6.458  -6.841  32.817  0.00  0.00    +0.022 A 
ATOM     19  C   UNL     1       8.597  -8.673  32.786  0.00  0.00    +0.259 A 
ATOM     21  C   UNL     1       7.261  -9.044  32.201  0.00  0.00    +0.047 A 
ATOM     22  C   UNL     1       6.274  -8.137  32.228  0.00  0.00    +0.015 A 
ENDROOT
BRANCH  21  23
ATOM     23  C   UNL     1       7.027 -10.376  31.617  0.00  0.00    -0.012 A 
ATOM     24  C   UNL     1       7.556 -10.694  30.365  0.00  0.00    +0.017 A 
ATOM     25  C   UNL     1       6.278 -11.320  32.314  0.00  0.00    +0.009 A 
ATOM     26  C   UNL     1       7.341 -11.960  29.796  0.00  0.00    -0.017 A 
ATOM     27  C   UNL     1       6.056 -12.583  31.764  0.00  0.00    +0.009 A 
ATOM     28  C   UNL     1       6.580 -12.918  30.506  0.00  0.00    -0.018 A 
ATOM     29  C   UNL     1       7.866 -12.295  28.537  0.00  0.00    +0.008 A 
ATOM     30  C   UNL     1       6.366 -14.184  29.937  0.00  0.00    +0.008 A 
ATOM     31  C   UNL     1       7.644 -13.558  27.986  0.00  0.00    +0.001 A 
ATOM     32  C   UNL     1       6.895 -14.501  28.684  0.00  0.00    +0.001 A 
ENDBRANCH  21  23
BRANCH  13  12
ATOM     12  C   UNL     1       6.447  -7.345  37.346  0.00  0.00    +0.075 C 
ATOM     14  C   UNL     1       5.947  -8.478  36.446  0.00  0.00    +0.013 C 
ATOM     15  C   UNL     1       6.146  -7.628  38.820  0.00  0.00    +0.013 C 
ATOM     17  C   UNL     1       4.467  -8.771  36.679  0.00  0.00    +0.001 C 
ATOM     18  C   UNL     1       4.667  -7.924  39.048  0.00  0.00    +0.001 C 
ATOM     20  C   UNL     1       4.174  -9.055  38.149  0.00  0.00    +0.000 C 
ENDBRANCH  13  12
TORSDOF 2
ENDMDL
MODEL 6
REMARK VINA RESULT:      -7.3      2.158      3.152
REMARK  Name = 11885143
REMARK  2 active torsions:
REMARK  status: ('A' for Active; 'I' for Inactive)
REMARK    1  A    between atoms: C_12  and  C_13
REMARK    2  A    between atoms: C_21  and  C_23
REMARK                            x       y       z     vdW  Elec       q    Type
REMARK                         _______ _______ _______ _____ _____    ______ ____
ROOT
ATOM      1  O   UNL     1      13.025   7.571  -2.603  0.00  0.00    -0.275 OA
ATOM      2  O   UNL     1      13.415   7.327   2.725  0.00  0.00    -0.267 OA
ATOM      3  N   UNL     1      13.946   5.544  -1.938  0.00  0.00    -0.300 N 
ATOM      4  N   UNL     1      13.912   5.587   1.255  0.00  0.00    -0.311 N 
ATOM      5  C   UNL     1      15.888   5.681  -0.372  0.00  0.00    +0.027 C 
ATOM      6  C   UNL     1      14.428   3.702  -0.336  0.00  0.00    +0.054 C 
ATOM      7  C   UNL     1      15.881   4.162  -0.250  0.00  0.00    +0.018 C 
ATOM      8  C   UNL     1      15.276   6.116  -1.716  0.00  0.00    +0.113 C 
ATOM      9  C   UNL     1      13.843   4.095  -1.707  0.00  0.00    +0.117 C 
ATOM     10  C   UNL     1      15.135   6.278   0.823  0.00  0.00    +0.130 C 
ATOM     11  C   UNL     1      13.594   4.315   0.773  0.00  0.00    +0.027 A 
ATOM     13  C   UNL     1      12.917   6.356  -2.416  0.00  0.00    +0.219 C 
ATOM     16  C   UNL     1      12.537   3.652   1.271  0.00  0.00    +0.022 A 
ATOM     19  C   UNL     1      13.146   6.222   2.251  0.00  0.00    +0.259 A 
ATOM     21  C   UNL     1      11.946   5.470   2.762  0.00  0.00    +0.047 A 
ATOM     22  C   UNL     1      11.701   4.245   2.275  0.00  0.00    +0.015 A 
ENDROOT
BRANCH  21  23
ATOM     23  C   UNL     1      11.049   6.060   3.770  0.00  0.00    -0.012 A 
ATOM     24  C   UNL     1      11.103   5.626   5.096  0.00  0.00    +0.017 A 
ATOM     25  C   UNL     1      10.145   7.053   3.401  0.00  0.00    +0.009 A 
ATOM     26  C   UNL     1      10.253   6.180   6.067  0.00  0.00    -0.017 A 
ATOM     27  C   UNL     1       9.294   7.614   4.354  0.00  0.00    +0.009 A 
ATOM     28  C   UNL     1       9.336   7.188   5.690  0.00  0.00    -0.018 A 
ATOM     29  C   UNL     1      10.296   5.754   7.405  0.00  0.00    +0.008 A 
ATOM     30  C   UNL     1       8.487   7.742   6.663  0.00  0.00    +0.008 A 
ATOM     31  C   UNL     1       9.445   6.315   8.358  0.00  0.00    +0.001 A 
ATOM     32  C   UNL     1       8.541   7.307   7.988  0.00  0.00    +0.001 A 
ENDBRANCH  21  23
BRANCH  13  12
ATOM     12  C   UNL     1      11.608   5.684  -2.702  0.00  0.00    +0.075 C 
ATOM     14  C   UNL     1      10.699   5.766  -1.473  0.00  0.00    +0.013 C 
ATOM     15  C   UNL     1      10.951   6.322  -3.928  0.00  0.00    +0.013 C 
ATOM     17  C   UNL     1       9.320   5.175  -1.752  0.00  0.00    +0.001 C 
ATOM     18  C   UNL     1       9.571   5.731  -4.201  0.00  0.00    +0.001 C 
ATOM     20  C   UNL     1       8.668   5.818  -2.973  0.00  0.00    +0.000 C 
ENDBRANCH  13  12
TORSDOF 2
ENDMDL
MODEL 7
REMARK VINA RESULT:      -7.3     33.871     36.678
REMARK  Name = 11885143
REMARK  2 active torsions:
REMARK  status: ('A' for Active; 'I' for Inactive)
REMARK    1  A    between atoms: C_12  and  C_13
REMARK    2  A    between atoms: C_21  and  C_23
REMARK                            x       y       z     vdW  Elec       q    Type
REMARK                         _______ _______ _______ _____ _____    ______ ____
ROOT
ATOM      1  O   UNL     1       7.573  -9.963  36.964  0.00  0.00    -0.275 OA
ATOM      2  O   UNL     1       9.444 -11.026  32.068  0.00  0.00    -0.267 OA
ATOM      3  N   UNL     1       7.774  -8.012  35.719  0.00  0.00    -0.300 N 
ATOM      4  N   UNL     1       8.738  -8.934  32.817  0.00  0.00    -0.311 N 
ATOM      5  C   UNL     1       9.989  -7.626  34.630  0.00  0.00    +0.027 C 
ATOM      6  C   UNL     1       7.954  -6.680  33.624  0.00  0.00    +0.054 C 
ATOM      7  C   UNL     1       9.421  -6.394  33.936  0.00  0.00    +0.018 C 
ATOM      8  C   UNL     1       9.220  -7.915  35.931  0.00  0.00    +0.113 C 
ATOM      9  C   UNL     1       7.183  -6.914  34.939  0.00  0.00    +0.117 C 
ATOM     10  C   UNL     1       9.938  -8.810  33.656  0.00  0.00    +0.130 C 
ATOM     11  C   UNL     1       7.812  -7.892  32.723  0.00  0.00    +0.027 A 
ATOM     13  C   UNL     1       7.057  -9.051  36.312  0.00  0.00    +0.219 C 
ATOM     16  C   UNL     1       6.787  -7.978  31.860  0.00  0.00    +0.022 A 
ATOM     19  C   UNL     1       8.629 -10.102  32.038  0.00  0.00    +0.259 A 
ATOM     21  C   UNL     1       7.450 -10.186  31.107  0.00  0.00    +0.047 A 
ATOM     22  C   UNL     1       6.604  -9.146  31.047  0.00  0.00    +0.015 A 
ENDROOT
BRANCH  21  23
ATOM     23  C   UNL     1       7.213 -11.382  30.280  0.00  0.00    -0.012 A 
ATOM     24  C   UNL     1       6.107 -12.196  30.528  0.00  0.00    +0.017 A 
ATOM     25  C   UNL     1       8.093 -11.700  29.249  0.00  0.00    +0.009 A 
ATOM     26  C   UNL     1       5.869 -13.340  29.748  0.00  0.00    -0.017 A 
ATOM     27  C   UNL     1       7.871 -12.832  28.464  0.00  0.00    +0.009 A 
ATOM     28  C   UNL     1       6.764 -13.662  28.701  0.00  0.00    -0.018 A 
ATOM     29  C   UNL     1       4.761 -14.169  29.985  0.00  0.00    +0.008 A 
ATOM     30  C   UNL     1       6.524 -14.805  27.920  0.00  0.00    +0.008 A 
ATOM     31  C   UNL     1       4.538 -15.301  29.200  0.00  0.00    +0.001 A 
ATOM     32  C   UNL     1       5.419 -15.619  28.170  0.00  0.00    +0.001 A 
ENDBRANCH  21  23
BRANCH  13  12
ATOM     12  C   UNL     1       5.570  -9.035  36.123  0.00  0.00    +0.075 C 
ATOM     14  C   UNL     1       5.155 -10.149  35.159  0.00  0.00    +0.013 C 
ATOM     15  C   UNL     1       4.871  -9.178  37.477  0.00  0.00    +0.013 C 
ATOM     17  C   UNL     1       3.638 -10.230  35.010  0.00  0.00    +0.001 C 
ATOM     18  C   UNL     1       3.354  -9.262  37.323  0.00  0.00    +0.001 C 
ATOM     20  C   UNL     1       2.946 -10.375  36.362  0.00  0.00    +0.000 C 
ENDBRANCH  13  12
TORSDOF 2
ENDMDL
MODEL 8
REMARK VINA RESULT:      -7.2     34.135     37.071
REMARK  Name = 11885143
REMARK  2 active torsions:
REMARK  status: ('A' for Active; 'I' for Inactive)
REMARK    1  A    between atoms: C_12  and  C_13
REMARK    2  A    between atoms: C_21  and  C_23
REMARK                            x       y       z     vdW  Elec       q    Type
REMARK                         _______ _______ _______ _____ _____    ______ ____
ROOT
ATOM      1  O   UNL     1       8.823  -7.986  37.686  0.00  0.00    -0.275 OA
ATOM      2  O   UNL     1       9.445  -9.470  32.587  0.00  0.00    -0.267 OA
ATOM      3  N   UNL     1       8.440  -6.195  36.256  0.00  0.00    -0.300 N 
ATOM      4  N   UNL     1       8.707  -7.377  33.302  0.00  0.00    -0.311 N 
ATOM      5  C   UNL     1      10.220  -5.741  34.563  0.00  0.00    +0.027 C 
ATOM      6  C   UNL     1       7.890  -5.124  34.078  0.00  0.00    +0.054 C 
ATOM      7  C   UNL     1       9.339  -4.665  33.942  0.00  0.00    +0.018 C 
ATOM      8  C   UNL     1       9.867  -5.936  36.048  0.00  0.00    +0.113 C 
ATOM      9  C   UNL     1       7.531  -5.264  35.571  0.00  0.00    +0.117 C 
ATOM     10  C   UNL     1      10.062  -7.037  33.758  0.00  0.00    +0.130 C 
ATOM     11  C   UNL     1       7.667  -6.447  33.371  0.00  0.00    +0.027 A 
ATOM     13  C   UNL     1       8.043  -7.215  37.120  0.00  0.00    +0.219 C 
ATOM     16  C   UNL     1       6.469  -6.737  32.838  0.00  0.00    +0.022 A 
ATOM     19  C   UNL     1       8.543  -8.638  32.697  0.00  0.00    +0.259 A 
ATOM     21  C   UNL     1       7.179  -8.949  32.142  0.00  0.00    +0.047 A 
ATOM     22  C   UNL     1       6.225  -8.010  32.221  0.00  0.00    +0.015 A 
ENDROOT
BRANCH  21  23
ATOM     23  C   UNL     1       6.883 -10.256  31.530  0.00  0.00    -0.012 A 
ATOM     24  C   UNL     1       6.307 -11.272  32.294  0.00  0.00    +0.017 A 
ATOM     25  C   UNL     1       7.178 -10.479  30.188  0.00  0.00    +0.009 A 
ATOM     26  C   UNL     1       6.020 -12.523  31.725  0.00  0.00    -0.017 A 
ATOM     27  C   UNL     1       6.897 -11.715  29.605  0.00  0.00    +0.009 A 
ATOM     28  C   UNL     1       6.319 -12.747  30.360  0.00  0.00    -0.018 A 
ATOM     29  C   UNL     1       5.440 -13.555  32.480  0.00  0.00    +0.008 A 
ATOM     30  C   UNL     1       6.030 -13.999  29.791  0.00  0.00    +0.008 A 
ATOM     31  C   UNL     1       5.160 -14.792  31.898  0.00  0.00    +0.001 A 
ATOM     32  C   UNL     1       5.455 -15.014  30.556  0.00  0.00    +0.001 A 
ENDBRANCH  21  23
BRANCH  13  12
ATOM     12  C   UNL     1       6.569  -7.364  37.351  0.00  0.00    +0.075 C 
ATOM     14  C   UNL     1       6.015  -8.490  36.474  0.00  0.00    +0.013 C 
ATOM     15  C   UNL     1       6.297  -7.625  38.834  0.00  0.00    +0.013 C 
ATOM     17  C   UNL     1       4.533  -8.738  36.746  0.00  0.00    +0.001 C 
ATOM     18  C   UNL     1       4.815  -7.877  39.101  0.00  0.00    +0.001 C 
ATOM     20  C   UNL     1       4.268  -9.001  38.225  0.00  0.00    +0.000 C 
ENDBRANCH  13  12
TORSDOF 2
ENDMDL
MODEL 9
REMARK VINA RESULT:      -7.2     27.429     29.582
REMARK  Name = 11885143
REMARK  2 active torsions:
REMARK  status: ('A' for Active; 'I' for Inactive)
REMARK    1  A    between atoms: C_12  and  C_13
REMARK    2  A    between atoms: C_21  and  C_23
REMARK                            x       y       z     vdW  Elec       q    Type
REMARK                         _______ _______ _______ _____ _____    ______ ____
ROOT
ATOM      1  O   UNL     1      18.850 -12.326  25.657  0.00  0.00    -0.275 OA
ATOM      2  O   UNL     1      19.325  -7.067  26.502  0.00  0.00    -0.267 OA
ATOM      3  N   UNL     1      17.630 -11.680  27.526  0.00  0.00    -0.300 N 
ATOM      4  N   UNL     1      17.943  -8.507  27.707  0.00  0.00    -0.311 N 
ATOM      5  C   UNL     1      18.866 -10.342  29.236  0.00  0.00    +0.027 C 
ATOM      6  C   UNL     1      16.435 -10.063  28.993  0.00  0.00    +0.054 C 
ATOM      7  C   UNL     1      17.568 -10.155  30.012  0.00  0.00    +0.018 C 
ATOM      8  C   UNL     1      18.810 -11.628  28.393  0.00  0.00    +0.113 C 
ATOM      9  C   UNL     1      16.354 -11.377  28.191  0.00  0.00    +0.117 C 
ATOM     10  C   UNL     1      19.112  -9.098  28.373  0.00  0.00    +0.130 C 
ATOM     11  C   UNL     1      16.645  -8.897  28.046  0.00  0.00    +0.027 A 
ATOM     13  C   UNL     1      17.768 -12.076  26.196  0.00  0.00    +0.219 C 
ATOM     16  C   UNL     1      15.591  -8.259  27.512  0.00  0.00    +0.022 A 
ATOM     19  C   UNL     1      18.196  -7.461  26.799  0.00  0.00    +0.259 A 
ATOM     21  C   UNL     1      16.994  -6.790  26.189  0.00  0.00    +0.047 A 
ATOM     22  C   UNL     1      15.773  -7.195  26.566  0.00  0.00    +0.015 A 
ENDROOT
BRANCH  21  23
ATOM     23  C   UNL     1      17.144  -5.716  25.192  0.00  0.00    -0.012 A 
ATOM     24  C   UNL     1      16.919  -4.388  25.556  0.00  0.00    +0.017 A 
ATOM     25  C   UNL     1      17.510  -6.026  23.885  0.00  0.00    +0.009 A 
ATOM     26  C   UNL     1      17.057  -3.353  24.615  0.00  0.00    -0.017 A 
ATOM     27  C   UNL     1      17.653  -5.011  22.939  0.00  0.00    +0.009 A 
ATOM     28  C   UNL     1      17.430  -3.670  23.288  0.00  0.00    -0.018 A 
ATOM     29  C   UNL     1      16.835  -2.012  24.965  0.00  0.00    +0.008 A 
ATOM     30  C   UNL     1      17.570  -2.635  22.348  0.00  0.00    +0.008 A 
ATOM     31  C   UNL     1      16.978  -0.996  24.019  0.00  0.00    +0.001 A 
ATOM     32  C   UNL     1      17.344  -1.307  22.713  0.00  0.00    +0.001 A 
ENDBRANCH  21  23
BRANCH  13  12
ATOM     12  C   UNL     1      16.506 -12.189  25.394  0.00  0.00    +0.075 C 
ATOM     14  C   UNL     1      16.044 -10.799  24.950  0.00  0.00    +0.013 C 
ATOM     15  C   UNL     1      16.731 -13.113  24.195  0.00  0.00    +0.013 C 
ATOM     17  C   UNL     1      14.812 -10.875  24.052  0.00  0.00    +0.001 C 
ATOM     18  C   UNL     1      15.499 -13.184  23.298  0.00  0.00    +0.001 C 
ATOM     20  C   UNL     1      15.043 -11.795  22.857  0.00  0.00    +0.000 C 
ENDBRANCH  13  12
TORSDOF 2
ENDMDL
MODEL 10
REMARK VINA RESULT:      -7.1     33.525     36.136
REMARK  Name = 11885143
REMARK  2 active torsions:
REMARK  status: ('A' for Active; 'I' for Inactive)
REMARK    1  A    between atoms: C_12  and  C_13
REMARK    2  A    between atoms: C_21  and  C_23
REMARK                            x       y       z     vdW  Elec       q    Type
REMARK                         _______ _______ _______ _____ _____    ______ ____
ROOT
ATOM      1  O   UNL     1       7.532 -13.092  34.040  0.00  0.00    -0.275 OA
ATOM      2  O   UNL     1       9.915  -8.533  35.501  0.00  0.00    -0.267 OA
ATOM      3  N   UNL     1       5.955 -11.505  34.670  0.00  0.00    -0.300 N 
ATOM      4  N   UNL     1       7.612  -8.855  35.326  0.00  0.00    -0.311 N 
ATOM      5  C   UNL     1       6.318 -10.418  36.889  0.00  0.00    +0.027 C 
ATOM      6  C   UNL     1       5.126  -9.202  35.115  0.00  0.00    +0.054 C 
ATOM      7  C   UNL     1       5.141  -9.490  36.614  0.00  0.00    +0.018 C 
ATOM      8  C   UNL     1       6.165 -11.731  36.102  0.00  0.00    +0.113 C 
ATOM      9  C   UNL     1       4.917 -10.517  34.339  0.00  0.00    +0.117 C 
ATOM     10  C   UNL     1       7.619  -9.685  36.540  0.00  0.00    +0.130 C 
ATOM     11  C   UNL     1       6.418  -8.543  34.671  0.00  0.00    +0.027 A 
ATOM     13  C   UNL     1       6.664 -12.267  33.740  0.00  0.00    +0.219 C 
ATOM     16  C   UNL     1       6.422  -7.687  33.637  0.00  0.00    +0.022 A 
ATOM     19  C   UNL     1       8.847  -8.309  34.928  0.00  0.00    +0.259 A 
ATOM     21  C   UNL     1       8.825  -7.381  33.743  0.00  0.00    +0.047 A 
ATOM     22  C   UNL     1       7.646  -7.105  33.166  0.00  0.00    +0.015 A 
ENDROOT
BRANCH  21  23
ATOM     23  C   UNL     1      10.066  -6.790  33.212  0.00  0.00    -0.012 A 
ATOM     24  C   UNL     1      10.744  -7.412  32.163  0.00  0.00    +0.017 A 
ATOM     25  C   UNL     1      10.563  -5.610  33.757  0.00  0.00    +0.009 A 
ATOM     26  C   UNL     1      11.929  -6.860  31.647  0.00  0.00    -0.017 A 
ATOM     27  C   UNL     1      11.737  -5.047  33.257  0.00  0.00    +0.009 A 
ATOM     28  C   UNL     1      12.432  -5.660  32.202  0.00  0.00    -0.018 A 
ATOM     29  C   UNL     1      12.623  -7.474  30.592  0.00  0.00    +0.008 A 
ATOM     30  C   UNL     1      13.616  -5.108  31.685  0.00  0.00    +0.008 A 
ATOM     31  C   UNL     1      13.797  -6.912  30.090  0.00  0.00    +0.001 A 
ATOM     32  C   UNL     1      14.293  -5.731  30.637  0.00  0.00    +0.001 A 
ENDBRANCH  21  23
BRANCH  13  12
ATOM     12  C   UNL     1       6.334 -12.042  32.295  0.00  0.00    +0.075 C 
ATOM     14  C   UNL     1       7.227 -10.939  31.722  0.00  0.00    +0.013 C 
ATOM     15  C   UNL     1       6.489 -13.349  31.515  0.00  0.00    +0.013 C 
ATOM     17  C   UNL     1       6.989 -10.741  30.227  0.00  0.00    +0.001 C 
ATOM     18  C   UNL     1       6.254 -13.147  30.021  0.00  0.00    +0.001 C 
ATOM     20  C   UNL     1       7.148 -12.047  29.454  0.00  0.00    +0.000 C 
ENDBRANCH  13  12
TORSDOF 2
ENDMDL
