MODEL 1
REMARK VINA RESULT:      -7.6      0.000      0.000
REMARK  Name = 75537083
REMARK  5 active torsions:
REMARK  status: ('A' for Active; 'I' for Inactive)
REMARK    1  A    between atoms: N_4  and  C_13
REMARK    2  A    between atoms: N_5  and  C_14
REMARK    3  A    between atoms: N_6  and  C_24
REMARK    4  A    between atoms: C_13  and  C_15
REMARK    5  A    between atoms: C_14  and  C_17
REMARK                            x       y       z     vdW  Elec       q    Type
REMARK                         _______ _______ _______ _____ _____    ______ ____
ROOT
ATOM      2  O   UNL     1     -16.978   2.246  22.383  0.00  0.00    -0.252 OA
ATOM      3  N   UNL     1     -16.577   2.836  24.621  0.00  0.00    -0.278 N 
ATOM      4  N   UNL     1     -16.986   3.033  27.397  0.00  0.00    -0.295 NA
ATOM      5  N   UNL     1     -16.247   4.392  23.035  0.00  0.00    -0.279 N 
ATOM      7  C   UNL     1     -16.023   3.968  25.334  0.00  0.00    +0.109 C 
ATOM      8  C   UNL     1     -16.846   4.261  26.587  0.00  0.00    +0.109 C 
ATOM      9  C   UNL     1     -16.022   5.085  24.291  0.00  0.00    +0.133 C 
ATOM     10  C   UNL     1     -16.894   1.625  25.350  0.00  0.00    +0.125 C 
ATOM     11  C   UNL     1     -17.665   1.970  26.628  0.00  0.00    +0.104 C 
ATOM     12  C   UNL     1     -16.639   3.053  23.238  0.00  0.00    +0.305 C 
ENDROOT
BRANCH   4  13
ATOM     13  C   UNL     1     -17.720   3.317  28.630  0.00  0.00    +0.121 C 
BRANCH  13  15
ATOM      6  N   UNL     1     -15.723   3.761  31.682  0.00  0.00    -0.349 N 
ATOM     15  C   UNL     1     -16.840   3.222  29.843  0.00  0.00    -0.008 A 
ATOM     16  C   UNL     1     -16.154   2.064  30.301  0.00  0.00    +0.004 A 
ATOM     18  C   UNL     1     -16.556   4.249  30.711  0.00  0.00    +0.091 A 
ATOM     19  C   UNL     1     -15.459   2.428  31.457  0.00  0.00    +0.049 A 
ATOM     20  C   UNL     1     -16.055   0.735  29.843  0.00  0.00    +0.010 A 
ATOM     23  C   UNL     1     -14.669   1.528  32.181  0.00  0.00    +0.026 A 
ATOM     24  C   UNL     1     -15.202   4.547  32.780  0.00  0.00    +0.149 C 
ATOM     25  C   UNL     1     -15.268  -0.177  30.556  0.00  0.00    +0.001 A 
ATOM     26  C   UNL     1     -14.587   0.216  31.707  0.00  0.00    +0.002 A 
ENDBRANCH  13  15
ENDBRANCH   4  13
BRANCH   5  14
ATOM     14  C   UNL     1     -16.210   5.078  21.764  0.00  0.00    +0.144 C 
BRANCH  14  17
ATOM      1  F   UNL     1     -11.160   7.347  20.741  0.00  0.00    -0.205 F 
ATOM     17  C   UNL     1     -14.863   5.683  21.491  0.00  0.00    -0.030 A 
ATOM     21  C   UNL     1     -13.711   5.079  21.996  0.00  0.00    +0.008 A 
ATOM     22  C   UNL     1     -14.764   6.848  20.731  0.00  0.00    +0.008 A 
ATOM     27  C   UNL     1     -12.460   5.641  21.743  0.00  0.00    +0.038 A 
ATOM     28  C   UNL     1     -13.513   7.411  20.477  0.00  0.00    +0.038 A 
ATOM     29  C   UNL     1     -12.361   6.807  20.983  0.00  0.00    +0.123 A 
ENDBRANCH  14  17
ENDBRANCH   5  14
TORSDOF 4
ENDMDL
MODEL 2
REMARK VINA RESULT:      -7.6     31.652     34.722
REMARK  Name = 75537083
REMARK  5 active torsions:
REMARK  status: ('A' for Active; 'I' for Inactive)
REMARK    1  A    between atoms: N_4  and  C_13
REMARK    2  A    between atoms: N_5  and  C_14
REMARK    3  A    between atoms: N_6  and  C_24
REMARK    4  A    between atoms: C_13  and  C_15
REMARK    5  A    between atoms: C_14  and  C_17
REMARK                            x       y       z     vdW  Elec       q    Type
REMARK                         _______ _______ _______ _____ _____    ______ ____
ROOT
ATOM      2  O   UNL     1      16.222   9.674  20.521  0.00  0.00    -0.252 OA
ATOM      3  N   UNL     1      17.558   7.772  20.862  0.00  0.00    -0.278 N 
ATOM      4  N   UNL     1      19.881   6.202  21.089  0.00  0.00    -0.295 NA
ATOM      5  N   UNL     1      15.724   7.569  19.581  0.00  0.00    -0.279 N 
ATOM      7  C   UNL     1      17.482   6.359  20.559  0.00  0.00    +0.109 C 
ATOM      8  C   UNL     1      18.844   5.840  20.101  0.00  0.00    +0.109 C 
ATOM      9  C   UNL     1      16.376   6.273  19.510  0.00  0.00    +0.133 C 
ATOM     10  C   UNL     1      18.629   8.260  21.705  0.00  0.00    +0.125 C 
ATOM     11  C   UNL     1      19.966   7.668  21.248  0.00  0.00    +0.104 C 
ATOM     12  C   UNL     1      16.468   8.488  20.348  0.00  0.00    +0.305 C 
ENDROOT
BRANCH   4  13
ATOM     13  C   UNL     1      21.178   5.657  20.690  0.00  0.00    +0.121 C 
BRANCH  13  15
ATOM      6  N   UNL     1      22.619   4.493  23.864  0.00  0.00    -0.349 N 
ATOM     15  C   UNL     1      21.872   4.968  21.828  0.00  0.00    -0.008 A 
ATOM     16  C   UNL     1      22.638   3.772  21.753  0.00  0.00    +0.004 A 
ATOM     18  C   UNL     1      21.879   5.388  23.138  0.00  0.00    +0.091 A 
ATOM     19  C   UNL     1      23.096   3.496  23.043  0.00  0.00    +0.049 A 
ATOM     20  C   UNL     1      22.988   2.894  20.708  0.00  0.00    +0.010 A 
ATOM     23  C   UNL     1      23.888   2.381  23.343  0.00  0.00    +0.026 A 
ATOM     24  C   UNL     1      22.856   4.596  25.287  0.00  0.00    +0.149 C 
ATOM     25  C   UNL     1      23.780   1.775  20.991  0.00  0.00    +0.001 A 
ATOM     26  C   UNL     1      24.221   1.525  22.290  0.00  0.00    +0.002 A 
ENDBRANCH  13  15
ENDBRANCH   4  13
BRANCH   5  14
ATOM     14  C   UNL     1      14.537   7.873  18.815  0.00  0.00    +0.144 C 
BRANCH  14  17
ATOM      1  F   UNL     1       9.857   7.431  21.914  0.00  0.00    -0.205 F 
ATOM     17  C   UNL     1      13.289   7.756  19.642  0.00  0.00    -0.030 A 
ATOM     21  C   UNL     1      13.244   6.867  20.715  0.00  0.00    +0.008 A 
ATOM     22  C   UNL     1      12.174   8.536  19.335  0.00  0.00    +0.008 A 
ATOM     27  C   UNL     1      12.085   6.757  21.483  0.00  0.00    +0.038 A 
ATOM     28  C   UNL     1      11.015   8.427  20.103  0.00  0.00    +0.038 A 
ATOM     29  C   UNL     1      10.971   7.537  21.177  0.00  0.00    +0.123 A 
ENDBRANCH  14  17
ENDBRANCH   5  14
TORSDOF 4
ENDMDL
MODEL 3
REMARK VINA RESULT:      -7.5      0.862      2.148
REMARK  Name = 75537083
REMARK  5 active torsions:
REMARK  status: ('A' for Active; 'I' for Inactive)
REMARK    1  A    between atoms: N_4  and  C_13
REMARK    2  A    between atoms: N_5  and  C_14
REMARK    3  A    between atoms: N_6  and  C_24
REMARK    4  A    between atoms: C_13  and  C_15
REMARK    5  A    between atoms: C_14  and  C_17
REMARK                            x       y       z     vdW  Elec       q    Type
REMARK                         _______ _______ _______ _____ _____    ______ ____
ROOT
ATOM      2  O   UNL     1     -17.427   2.831  21.968  0.00  0.00    -0.252 OA
ATOM      3  N   UNL     1     -16.728   2.940  24.208  0.00  0.00    -0.278 N 
ATOM      4  N   UNL     1     -16.844   2.708  27.009  0.00  0.00    -0.295 NA
ATOM      5  N   UNL     1     -16.261   4.677  22.861  0.00  0.00    -0.279 N 
ATOM      7  C   UNL     1     -15.915   3.821  25.020  0.00  0.00    +0.109 C 
ATOM      8  C   UNL     1     -16.554   4.019  26.393  0.00  0.00    +0.109 C 
ATOM      9  C   UNL     1     -15.802   5.089  24.175  0.00  0.00    +0.133 C 
ATOM     10  C   UNL     1     -17.194   1.689  24.768  0.00  0.00    +0.125 C 
ATOM     11  C   UNL     1     -17.771   1.925  26.167  0.00  0.00    +0.104 C 
ATOM     12  C   UNL     1     -16.872   3.407  22.894  0.00  0.00    +0.305 C 
ENDROOT
BRANCH   4  13
ATOM     13  C   UNL     1     -17.400   2.886  28.349  0.00  0.00    +0.121 C 
BRANCH  13  15
ATOM      6  N   UNL     1     -15.410   0.840  30.664  0.00  0.00    -0.349 N 
ATOM     15  C   UNL     1     -16.512   2.301  29.409  0.00  0.00    -0.008 A 
ATOM     16  C   UNL     1     -15.772   3.024  30.386  0.00  0.00    +0.004 A 
ATOM     18  C   UNL     1     -16.270   0.962  29.605  0.00  0.00    +0.091 A 
ATOM     19  C   UNL     1     -15.089   2.084  31.161  0.00  0.00    +0.049 A 
ATOM     20  C   UNL     1     -15.616   4.392  30.687  0.00  0.00    +0.010 A 
ATOM     23  C   UNL     1     -14.255   2.444  32.226  0.00  0.00    +0.026 A 
ATOM     24  C   UNL     1     -14.919  -0.421  31.175  0.00  0.00    +0.149 C 
ATOM     25  C   UNL     1     -14.785   4.767  31.749  0.00  0.00    +0.001 A 
ATOM     26  C   UNL     1     -14.116   3.806  32.505  0.00  0.00    +0.002 A 
ENDBRANCH  13  15
ENDBRANCH   4  13
BRANCH   5  14
ATOM     14  C   UNL     1     -16.213   5.561  21.719  0.00  0.00    +0.144 C 
BRANCH  14  17
ATOM      1  F   UNL     1     -10.973   7.307  20.624  0.00  0.00    -0.205 F 
ATOM     17  C   UNL     1     -14.816   6.027  21.428  0.00  0.00    -0.030 A 
ATOM     21  C   UNL     1     -14.608   7.180  20.671  0.00  0.00    +0.008 A 
ATOM     22  C   UNL     1     -13.725   5.306  21.914  0.00  0.00    +0.008 A 
ATOM     27  C   UNL     1     -13.310   7.613  20.400  0.00  0.00    +0.038 A 
ATOM     28  C   UNL     1     -12.427   5.738  21.643  0.00  0.00    +0.038 A 
ATOM     29  C   UNL     1     -12.220   6.892  20.885  0.00  0.00    +0.123 A 
ENDBRANCH  14  17
ENDBRANCH   5  14
TORSDOF 4
ENDMDL
MODEL 4
REMARK VINA RESULT:      -7.1     30.336     34.082
REMARK  Name = 75537083
REMARK  5 active torsions:
REMARK  status: ('A' for Active; 'I' for Inactive)
REMARK    1  A    between atoms: N_4  and  C_13
REMARK    2  A    between atoms: N_5  and  C_14
REMARK    3  A    between atoms: N_6  and  C_24
REMARK    4  A    between atoms: C_13  and  C_15
REMARK    5  A    between atoms: C_14  and  C_17
REMARK                            x       y       z     vdW  Elec       q    Type
REMARK                         _______ _______ _______ _____ _____    ______ ____
ROOT
ATOM      2  O   UNL     1      18.447   5.160  19.329  0.00  0.00    -0.252 OA
ATOM      3  N   UNL     1      17.015   6.678  20.408  0.00  0.00    -0.278 N 
ATOM      4  N   UNL     1      14.840   8.422  20.783  0.00  0.00    -0.295 NA
ATOM      5  N   UNL     1      19.232   6.971  20.621  0.00  0.00    -0.279 N 
ATOM      7  C   UNL     1      17.148   7.774  21.344  0.00  0.00    +0.109 C 
ATOM      8  C   UNL     1      16.220   8.923  20.952  0.00  0.00    +0.109 C 
ATOM      9  C   UNL     1      18.637   8.108  21.300  0.00  0.00    +0.133 C 
ATOM     10  C   UNL     1      15.693   6.204  20.054  0.00  0.00    +0.125 C 
ATOM     11  C   UNL     1      14.781   7.390  19.728  0.00  0.00    +0.104 C 
ATOM     12  C   UNL     1      18.255   6.142  20.033  0.00  0.00    +0.305 C 
ENDROOT
BRANCH   4  13
ATOM     13  C   UNL     1      13.933   9.525  20.468  0.00  0.00    +0.121 C 
BRANCH  13  15
ATOM      6  N   UNL     1      14.317  10.435  16.928  0.00  0.00    -0.349 N 
ATOM     15  C   UNL     1      13.836   9.768  18.989  0.00  0.00    -0.008 A 
ATOM     16  C   UNL     1      12.772   9.371  18.134  0.00  0.00    +0.004 A 
ATOM     18  C   UNL     1      14.771  10.420  18.220  0.00  0.00    +0.091 A 
ATOM     19  C   UNL     1      13.097   9.801  16.846  0.00  0.00    +0.049 A 
ATOM     20  C   UNL     1      11.557   8.684  18.332  0.00  0.00    +0.010 A 
ATOM     23  C   UNL     1      12.268   9.578  15.741  0.00  0.00    +0.026 A 
ATOM     24  C   UNL     1      15.029  11.035  15.820  0.00  0.00    +0.149 C 
ATOM     25  C   UNL     1      10.717   8.453  17.237  0.00  0.00    +0.001 A 
ATOM     26  C   UNL     1      11.069   8.895  15.962  0.00  0.00    +0.002 A 
ENDBRANCH  13  15
ENDBRANCH   4  13
BRANCH   5  14
ATOM     14  C   UNL     1      20.662   6.833  20.464  0.00  0.00    +0.144 C 
BRANCH  14  17
ATOM      1  F   UNL     1      22.732   2.630  23.587  0.00  0.00    -0.205 F 
ATOM     17  C   UNL     1      21.213   5.712  21.297  0.00  0.00    -0.030 A 
ATOM     21  C   UNL     1      21.622   5.953  22.609  0.00  0.00    +0.008 A 
ATOM     22  C   UNL     1      21.317   4.430  20.758  0.00  0.00    +0.008 A 
ATOM     27  C   UNL     1      22.134   4.912  23.382  0.00  0.00    +0.038 A 
ATOM     28  C   UNL     1      21.829   3.388  21.532  0.00  0.00    +0.038 A 
ATOM     29  C   UNL     1      22.238   3.630  22.844  0.00  0.00    +0.123 A 
ENDBRANCH  14  17
ENDBRANCH   5  14
TORSDOF 4
ENDMDL
MODEL 5
REMARK VINA RESULT:      -7.1     16.033     17.827
REMARK  Name = 75537083
REMARK  5 active torsions:
REMARK  status: ('A' for Active; 'I' for Inactive)
REMARK    1  A    between atoms: N_4  and  C_13
REMARK    2  A    between atoms: N_5  and  C_14
REMARK    3  A    between atoms: N_6  and  C_24
REMARK    4  A    between atoms: C_13  and  C_15
REMARK    5  A    between atoms: C_14  and  C_17
REMARK                            x       y       z     vdW  Elec       q    Type
REMARK                         _______ _______ _______ _____ _____    ______ ____
ROOT
ATOM      2  O   UNL     1     -13.282  -8.161  13.382  0.00  0.00    -0.252 OA
ATOM      3  N   UNL     1     -11.232  -8.061  14.524  0.00  0.00    -0.278 N 
ATOM      4  N   UNL     1      -9.087  -8.889  16.145  0.00  0.00    -0.295 NA
ATOM      5  N   UNL     1     -12.596  -6.280  14.629  0.00  0.00    -0.279 N 
ATOM      7  C   UNL     1     -10.470  -7.063  15.244  0.00  0.00    +0.109 C 
ATOM      8  C   UNL     1      -9.847  -7.672  16.499  0.00  0.00    +0.109 C 
ATOM      9  C   UNL     1     -11.486  -5.952  15.505  0.00  0.00    +0.133 C 
ATOM     10  C   UNL     1     -10.632  -9.352  14.254  0.00  0.00    +0.125 C 
ATOM     11  C   UNL     1      -9.969  -9.897  15.521  0.00  0.00    +0.104 C 
ATOM     12  C   UNL     1     -12.471  -7.574  14.085  0.00  0.00    +0.305 C 
ENDROOT
BRANCH   4  13
ATOM     13  C   UNL     1      -8.437  -9.446  17.331  0.00  0.00    +0.121 C 
BRANCH  13  15
ATOM      6  N   UNL     1      -5.200 -10.488  15.935  0.00  0.00    -0.349 N 
ATOM     15  C   UNL     1      -7.062  -9.967  17.025  0.00  0.00    -0.008 A 
ATOM     16  C   UNL     1      -6.176 -10.603  17.938  0.00  0.00    +0.004 A 
ATOM     18  C   UNL     1      -6.435  -9.910  15.803  0.00  0.00    +0.091 A 
ATOM     19  C   UNL     1      -5.015 -10.921  17.229  0.00  0.00    +0.049 A 
ATOM     20  C   UNL     1      -6.250 -10.941  19.304  0.00  0.00    +0.010 A 
ATOM     23  C   UNL     1      -3.920 -11.561  17.820  0.00  0.00    +0.026 A 
ATOM     24  C   UNL     1      -4.241 -10.617  14.860  0.00  0.00    +0.149 C 
ATOM     25  C   UNL     1      -5.162 -11.583  19.909  0.00  0.00    +0.001 A 
ATOM     26  C   UNL     1      -4.016 -11.886  19.175  0.00  0.00    +0.002 A 
ENDBRANCH  13  15
ENDBRANCH   4  13
BRANCH   5  14
ATOM     14  C   UNL     1     -13.741  -5.410  14.485  0.00  0.00    +0.144 C 
BRANCH  14  17
ATOM      1  F   UNL     1     -13.741  -2.724   9.536  0.00  0.00    -0.205 F 
ATOM     17  C   UNL     1     -13.741  -4.694  13.165  0.00  0.00    -0.030 A 
ATOM     21  C   UNL     1     -14.942  -4.473  12.491  0.00  0.00    +0.008 A 
ATOM     22  C   UNL     1     -12.540  -4.248  12.614  0.00  0.00    +0.008 A 
ATOM     27  C   UNL     1     -14.942  -3.808  11.265  0.00  0.00    +0.038 A 
ATOM     28  C   UNL     1     -12.539  -3.582  11.389  0.00  0.00    +0.038 A 
ATOM     29  C   UNL     1     -13.741  -3.362  10.714  0.00  0.00    +0.123 A 
ENDBRANCH  14  17
ENDBRANCH   5  14
TORSDOF 4
ENDMDL
MODEL 6
REMARK VINA RESULT:      -7.1     32.191     35.450
REMARK  Name = 75537083
REMARK  5 active torsions:
REMARK  status: ('A' for Active; 'I' for Inactive)
REMARK    1  A    between atoms: N_4  and  C_13
REMARK    2  A    between atoms: N_5  and  C_14
REMARK    3  A    between atoms: N_6  and  C_24
REMARK    4  A    between atoms: C_13  and  C_15
REMARK    5  A    between atoms: C_14  and  C_17
REMARK                            x       y       z     vdW  Elec       q    Type
REMARK                         _______ _______ _______ _____ _____    ______ ____
ROOT
ATOM      2  O   UNL     1      15.398   6.133  19.251  0.00  0.00    -0.252 OA
ATOM      3  N   UNL     1      17.520   6.736  20.058  0.00  0.00    -0.278 N 
ATOM      4  N   UNL     1      20.098   6.439  21.143  0.00  0.00    -0.295 NA
ATOM      5  N   UNL     1      15.748   7.958  20.703  0.00  0.00    -0.279 N 
ATOM      7  C   UNL     1      18.089   7.825  20.824  0.00  0.00    +0.109 C 
ATOM      8  C   UNL     1      19.107   7.292  21.831  0.00  0.00    +0.109 C 
ATOM      9  C   UNL     1      16.871   8.508  21.442  0.00  0.00    +0.133 C 
ATOM     10  C   UNL     1      18.399   5.752  19.463  0.00  0.00    +0.125 C 
ATOM     11  C   UNL     1      19.439   5.291  20.488  0.00  0.00    +0.104 C 
ATOM     12  C   UNL     1      16.130   6.853  19.916  0.00  0.00    +0.305 C 
ENDROOT
BRANCH   4  13
ATOM     13  C   UNL     1      21.111   5.972  22.089  0.00  0.00    +0.121 C 
BRANCH  13  15
ATOM      6  N   UNL     1      24.392   6.111  20.437  0.00  0.00    -0.349 N 
ATOM     15  C   UNL     1      22.438   5.744  21.423  0.00  0.00    -0.008 A 
ATOM     16  C   UNL     1      23.034   4.485  21.135  0.00  0.00    +0.004 A 
ATOM     18  C   UNL     1      23.295   6.724  20.983  0.00  0.00    +0.091 A 
ATOM     19  C   UNL     1      24.259   4.743  20.516  0.00  0.00    +0.049 A 
ATOM     20  C   UNL     1      22.649   3.145  21.342  0.00  0.00    +0.010 A 
ATOM     23  C   UNL     1      25.122   3.726  20.093  0.00  0.00    +0.026 A 
ATOM     24  C   UNL     1      25.518   6.816  19.865  0.00  0.00    +0.149 C 
ATOM     25  C   UNL     1      23.501   2.117  20.923  0.00  0.00    +0.001 A 
ATOM     26  C   UNL     1      24.719   2.406  20.309  0.00  0.00    +0.002 A 
ENDBRANCH  13  15
ENDBRANCH   4  13
BRANCH   5  14
ATOM     14  C   UNL     1      14.395   8.425  20.904  0.00  0.00    +0.144 C 
BRANCH  14  17
ATOM      1  F   UNL     1      11.830   9.611  16.034  0.00  0.00    -0.205 F 
ATOM     17  C   UNL     1      13.711   8.741  19.605  0.00  0.00    -0.030 A 
ATOM     21  C   UNL     1      14.273   9.669  18.728  0.00  0.00    +0.008 A 
ATOM     22  C   UNL     1      12.515   8.106  19.275  0.00  0.00    +0.008 A 
ATOM     27  C   UNL     1      13.638   9.963  17.522  0.00  0.00    +0.038 A 
ATOM     28  C   UNL     1      11.879   8.398  18.069  0.00  0.00    +0.038 A 
ATOM     29  C   UNL     1      12.441   9.328  17.192  0.00  0.00    +0.123 A 
ENDBRANCH  14  17
ENDBRANCH   5  14
TORSDOF 4
ENDMDL
MODEL 7
REMARK VINA RESULT:      -7.0      3.344      9.954
REMARK  Name = 75537083
REMARK  5 active torsions:
REMARK  status: ('A' for Active; 'I' for Inactive)
REMARK    1  A    between atoms: N_4  and  C_13
REMARK    2  A    between atoms: N_5  and  C_14
REMARK    3  A    between atoms: N_6  and  C_24
REMARK    4  A    between atoms: C_13  and  C_15
REMARK    5  A    between atoms: C_14  and  C_17
REMARK                            x       y       z     vdW  Elec       q    Type
REMARK                         _______ _______ _______ _____ _____    ______ ____
ROOT
ATOM      2  O   UNL     1     -18.490   3.977  22.987  0.00  0.00    -0.252 OA
ATOM      3  N   UNL     1     -16.368   4.983  23.016  0.00  0.00    -0.278 N 
ATOM      4  N   UNL     1     -13.976   6.094  22.038  0.00  0.00    -0.295 NA
ATOM      5  N   UNL     1     -16.770   3.304  24.453  0.00  0.00    -0.279 N 
ATOM      7  C   UNL     1     -15.175   4.913  23.834  0.00  0.00    +0.109 C 
ATOM      8  C   UNL     1     -13.926   4.936  22.955  0.00  0.00    +0.109 C 
ATOM      9  C   UNL     1     -15.368   3.631  24.643  0.00  0.00    +0.133 C 
ATOM     10  C   UNL     1     -16.459   5.992  21.981  0.00  0.00    +0.125 C 
ATOM     11  C   UNL     1     -15.164   6.022  21.164  0.00  0.00    +0.104 C 
ATOM     12  C   UNL     1     -17.355   4.079  23.431  0.00  0.00    +0.305 C 
ENDROOT
BRANCH   4  13
ATOM     13  C   UNL     1     -12.756   6.160  21.235  0.00  0.00    +0.121 C 
BRANCH  13  15
ATOM      6  N   UNL     1     -12.225   9.781  20.900  0.00  0.00    -0.349 N 
ATOM     15  C   UNL     1     -12.410   7.570  20.852  0.00  0.00    -0.008 A 
ATOM     16  C   UNL     1     -11.722   7.984  19.678  0.00  0.00    +0.004 A 
ATOM     18  C   UNL     1     -12.707   8.696  21.583  0.00  0.00    +0.091 A 
ATOM     19  C   UNL     1     -11.619   9.375  19.731  0.00  0.00    +0.049 A 
ATOM     20  C   UNL     1     -11.175   7.306  18.570  0.00  0.00    +0.010 A 
ATOM     23  C   UNL     1     -10.994  10.127  18.730  0.00  0.00    +0.026 A 
ATOM     24  C   UNL     1     -12.345  11.149  21.354  0.00  0.00    +0.149 C 
ATOM     25  C   UNL     1     -10.546   8.044  17.560  0.00  0.00    +0.001 A 
ATOM     26  C   UNL     1     -10.458   9.433  17.642  0.00  0.00    +0.002 A 
ENDBRANCH  13  15
ENDBRANCH   4  13
BRANCH   5  14
ATOM     14  C   UNL     1     -17.401   2.204  25.146  0.00  0.00    +0.144 C 
BRANCH  14  17
ATOM      1  F   UNL     1     -16.279   2.267  30.663  0.00  0.00    -0.205 F 
ATOM     17  C   UNL     1     -17.102   2.220  26.617  0.00  0.00    -0.030 A 
ATOM     21  C   UNL     1     -17.393   3.354  27.375  0.00  0.00    +0.008 A 
ATOM     22  C   UNL     1     -16.533   1.102  27.225  0.00  0.00    +0.008 A 
ATOM     27  C   UNL     1     -17.115   3.370  28.742  0.00  0.00    +0.038 A 
ATOM     28  C   UNL     1     -16.256   1.116  28.592  0.00  0.00    +0.038 A 
ATOM     29  C   UNL     1     -16.547   2.251  29.350  0.00  0.00    +0.123 A 
ENDBRANCH  14  17
ENDBRANCH   5  14
TORSDOF 4
ENDMDL
MODEL 8
REMARK VINA RESULT:      -6.9     30.274     33.683
REMARK  Name = 75537083
REMARK  5 active torsions:
REMARK  status: ('A' for Active; 'I' for Inactive)
REMARK    1  A    between atoms: N_4  and  C_13
REMARK    2  A    between atoms: N_5  and  C_14
REMARK    3  A    between atoms: N_6  and  C_24
REMARK    4  A    between atoms: C_13  and  C_15
REMARK    5  A    between atoms: C_14  and  C_17
REMARK                            x       y       z     vdW  Elec       q    Type
REMARK                         _______ _______ _______ _____ _____    ______ ____
ROOT
ATOM      2  O   UNL     1      13.171   6.872  19.168  0.00  0.00    -0.252 OA
ATOM      3  N   UNL     1      15.344   7.640  19.624  0.00  0.00    -0.278 N 
ATOM      4  N   UNL     1      17.915   7.719  20.763  0.00  0.00    -0.295 NA
ATOM      5  N   UNL     1      13.674   9.141  19.574  0.00  0.00    -0.279 N 
ATOM      7  C   UNL     1      16.002   8.919  19.783  0.00  0.00    +0.109 C 
ATOM      8  C   UNL     1      16.998   8.864  20.940  0.00  0.00    +0.109 C 
ATOM      9  C   UNL     1      14.845   9.898  19.978  0.00  0.00    +0.133 C 
ATOM     10  C   UNL     1      16.142   6.432  19.587  0.00  0.00    +0.125 C 
ATOM     11  C   UNL     1      17.166   6.446  20.726  0.00  0.00    +0.104 C 
ATOM     12  C   UNL     1      13.963   7.770  19.419  0.00  0.00    +0.305 C 
ENDROOT
BRANCH   4  13
ATOM     13  C   UNL     1      18.911   7.693  21.833  0.00  0.00    +0.121 C 
BRANCH  13  15
ATOM      6  N   UNL     1      22.289   7.979  20.414  0.00  0.00    -0.349 N 
ATOM     15  C   UNL     1      20.305   7.528  21.299  0.00  0.00    -0.008 A 
ATOM     16  C   UNL     1      21.044   6.316  21.225  0.00  0.00    +0.004 A 
ATOM     18  C   UNL     1      21.095   8.533  20.794  0.00  0.00    +0.091 A 
ATOM     19  C   UNL     1      22.286   6.626  20.666  0.00  0.00    +0.049 A 
ATOM     20  C   UNL     1      20.777   4.978  21.582  0.00  0.00    +0.010 A 
ATOM     23  C   UNL     1      23.278   5.663  20.444  0.00  0.00    +0.026 A 
ATOM     24  C   UNL     1      23.385   8.724  19.834  0.00  0.00    +0.149 C 
ATOM     25  C   UNL     1      21.758   4.005  21.366  0.00  0.00    +0.001 A 
ATOM     26  C   UNL     1      22.989   4.344  20.806  0.00  0.00    +0.002 A 
ENDBRANCH  13  15
ENDBRANCH   4  13
BRANCH   5  14
ATOM     14  C   UNL     1      12.360   9.740  19.503  0.00  0.00    +0.144 C 
BRANCH  14  17
ATOM      1  F   UNL     1      10.522  11.400  24.560  0.00  0.00    -0.205 F 
ATOM     17  C   UNL     1      11.871  10.183  20.852  0.00  0.00    -0.030 A 
ATOM     21  C   UNL     1      11.402   9.241  21.767  0.00  0.00    +0.008 A 
ATOM     22  C   UNL     1      11.885  11.536  21.189  0.00  0.00    +0.008 A 
ATOM     27  C   UNL     1      10.946   9.652  23.020  0.00  0.00    +0.038 A 
ATOM     28  C   UNL     1      11.430  11.948  22.441  0.00  0.00    +0.038 A 
ATOM     29  C   UNL     1      10.961  11.005  23.357  0.00  0.00    +0.123 A 
ENDBRANCH  14  17
ENDBRANCH   5  14
TORSDOF 4
ENDMDL
MODEL 9
REMARK VINA RESULT:      -6.9     19.227     21.074
REMARK  Name = 75537083
REMARK  5 active torsions:
REMARK  status: ('A' for Active; 'I' for Inactive)
REMARK    1  A    between atoms: N_4  and  C_13
REMARK    2  A    between atoms: N_5  and  C_14
REMARK    3  A    between atoms: N_6  and  C_24
REMARK    4  A    between atoms: C_13  and  C_15
REMARK    5  A    between atoms: C_14  and  C_17
REMARK                            x       y       z     vdW  Elec       q    Type
REMARK                         _______ _______ _______ _____ _____    ______ ____
ROOT
ATOM      2  O   UNL     1      -1.446 -11.418  15.206  0.00  0.00    -0.252 OA
ATOM      3  N   UNL     1      -3.716 -11.013  15.652  0.00  0.00    -0.278 N 
ATOM      4  N   UNL     1      -6.300 -11.411  16.691  0.00  0.00    -0.295 NA
ATOM      5  N   UNL     1      -2.970 -10.698  13.556  0.00  0.00    -0.279 N 
ATOM      7  C   UNL     1      -4.851 -10.463  14.941  0.00  0.00    +0.109 C 
ATOM      8  C   UNL     1      -6.108 -11.282  15.231  0.00  0.00    +0.109 C 
ATOM      9  C   UNL     1      -4.402 -10.472  13.481  0.00  0.00    +0.133 C 
ATOM     10  C   UNL     1      -3.843 -11.319  17.061  0.00  0.00    +0.125 C 
ATOM     11  C   UNL     1      -5.144 -12.086  17.315  0.00  0.00    +0.104 C 
ATOM     12  C   UNL     1      -2.567 -11.082  14.852  0.00  0.00    +0.305 C 
ENDROOT
BRANCH   4  13
ATOM     13  C   UNL     1      -7.533 -12.142  16.979  0.00  0.00    +0.121 C 
BRANCH  13  15
ATOM      6  N   UNL     1     -10.038 -10.400  19.027  0.00  0.00    -0.349 N 
ATOM     15  C   UNL     1      -8.581 -11.257  17.590  0.00  0.00    -0.008 A 
ATOM     16  C   UNL     1      -9.191 -10.125  16.983  0.00  0.00    +0.004 A 
ATOM     18  C   UNL     1      -9.122 -11.401  18.846  0.00  0.00    +0.091 A 
ATOM     19  C   UNL     1     -10.102  -9.605  17.905  0.00  0.00    +0.049 A 
ATOM     20  C   UNL     1      -9.056  -9.489  15.732  0.00  0.00    +0.010 A 
ATOM     23  C   UNL     1     -10.888  -8.478  17.640  0.00  0.00    +0.026 A 
ATOM     24  C   UNL     1     -10.819 -10.218  20.232  0.00  0.00    +0.149 C 
ATOM     25  C   UNL     1      -9.835  -8.361  15.452  0.00  0.00    +0.001 A 
ATOM     26  C   UNL     1     -10.736  -7.864  16.393  0.00  0.00    +0.002 A 
ENDBRANCH  13  15
ENDBRANCH   4  13
BRANCH   5  14
ATOM     14  C   UNL     1      -2.126 -10.670  12.383  0.00  0.00    +0.144 C 
BRANCH  14  17
ATOM      1  F   UNL     1      -5.128 -10.304   7.634  0.00  0.00    -0.205 F 
ATOM     17  C   UNL     1      -2.927 -10.572  11.117  0.00  0.00    -0.030 A 
ATOM     21  C   UNL     1      -3.509 -11.715  10.570  0.00  0.00    +0.008 A 
ATOM     22  C   UNL     1      -3.088  -9.338  10.488  0.00  0.00    +0.008 A 
ATOM     27  C   UNL     1      -4.253 -11.625   9.393  0.00  0.00    +0.038 A 
ATOM     28  C   UNL     1      -3.832  -9.247   9.312  0.00  0.00    +0.038 A 
ATOM     29  C   UNL     1      -4.414 -10.391   8.765  0.00  0.00    +0.123 A 
ENDBRANCH  14  17
ENDBRANCH   5  14
TORSDOF 4
ENDMDL
MODEL 10
REMARK VINA RESULT:      -6.8     31.775     37.031
REMARK  Name = 75537083
REMARK  5 active torsions:
REMARK  status: ('A' for Active; 'I' for Inactive)
REMARK    1  A    between atoms: N_4  and  C_13
REMARK    2  A    between atoms: N_5  and  C_14
REMARK    3  A    between atoms: N_6  and  C_24
REMARK    4  A    between atoms: C_13  and  C_15
REMARK    5  A    between atoms: C_14  and  C_17
REMARK                            x       y       z     vdW  Elec       q    Type
REMARK                         _______ _______ _______ _____ _____    ______ ____
ROOT
ATOM      2  O   UNL     1      10.261   9.828   5.185  0.00  0.00    -0.252 OA
ATOM      3  N   UNL     1      12.551   9.427   5.523  0.00  0.00    -0.278 N 
ATOM      4  N   UNL     1      15.330   9.569   5.111  0.00  0.00    -0.295 NA
ATOM      5  N   UNL     1      11.136   7.686   5.646  0.00  0.00    -0.279 N 
ATOM      7  C   UNL     1      13.380   8.314   5.936  0.00  0.00    +0.109 C 
ATOM      8  C   UNL     1      14.652   8.257   5.091  0.00  0.00    +0.109 C 
ATOM      9  C   UNL     1      12.458   7.104   5.791  0.00  0.00    +0.133 C 
ATOM     10  C   UNL     1      13.149  10.736   5.365  0.00  0.00    +0.125 C 
ATOM     11  C   UNL     1      14.450  10.624   4.565  0.00  0.00    +0.104 C 
ATOM     12  C   UNL     1      11.197   9.077   5.425  0.00  0.00    +0.305 C 
ENDROOT
BRANCH   4  13
ATOM     13  C   UNL     1      16.580   9.508   4.355  0.00  0.00    +0.121 C 
BRANCH  13  15
ATOM      6  N   UNL     1      19.180  10.133   6.876  0.00  0.00    -0.349 N 
ATOM     15  C   UNL     1      17.782   9.551   5.253  0.00  0.00    -0.008 A 
ATOM     16  C   UNL     1      18.934   8.721   5.167  0.00  0.00    +0.004 A 
ATOM     18  C   UNL     1      17.963  10.409   6.313  0.00  0.00    +0.091 A 
ATOM     19  C   UNL     1      19.796   9.106   6.196  0.00  0.00    +0.049 A 
ATOM     20  C   UNL     1      19.328   7.674   4.309  0.00  0.00    +0.010 A 
ATOM     23  C   UNL     1      21.036   8.495   6.412  0.00  0.00    +0.026 A 
ATOM     24  C   UNL     1      19.726  10.830   8.020  0.00  0.00    +0.149 C 
ATOM     25  C   UNL     1      20.565   7.054   4.513  0.00  0.00    +0.001 A 
ATOM     26  C   UNL     1      21.405   7.459   5.549  0.00  0.00    +0.002 A 
ENDBRANCH  13  15
ENDBRANCH   4  13
BRANCH   5  14
ATOM     14  C   UNL     1       9.942   6.873   5.589  0.00  0.00    +0.144 C 
BRANCH  14  17
ATOM      1  F   UNL     1       9.028   4.126  10.418  0.00  0.00    -0.205 F 
ATOM     17  C   UNL     1       9.699   6.141   6.877  0.00  0.00    -0.030 A 
ATOM     21  C   UNL     1       9.958   4.773   6.961  0.00  0.00    +0.008 A 
ATOM     22  C   UNL     1       9.214   6.829   7.989  0.00  0.00    +0.008 A 
ATOM     27  C   UNL     1       9.731   4.092   8.157  0.00  0.00    +0.038 A 
ATOM     28  C   UNL     1       8.988   6.149   9.185  0.00  0.00    +0.038 A 
ATOM     29  C   UNL     1       9.246   4.780   9.269  0.00  0.00    +0.123 A 
ENDBRANCH  14  17
ENDBRANCH   5  14
TORSDOF 4
ENDMDL
