MODEL 1
REMARK VINA RESULT:      -6.3      0.000      0.000
REMARK  Name = 11887582
REMARK  13 active torsions:
REMARK  status: ('A' for Active; 'I' for Inactive)
REMARK    1  A    between atoms: O_4  and  C_20
REMARK    2  A    between atoms: O_4  and  C_30
REMARK    3  A    between atoms: O_5  and  C_23
REMARK    4  A    between atoms: O_5  and  C_35
REMARK    5  A    between atoms: O_7  and  C_33
REMARK    6  A    between atoms: O_7  and  C_36
REMARK    7  A    between atoms: N_10  and  C_19
REMARK    8  A    between atoms: C_12  and  C_16
REMARK    9  A    between atoms: C_17  and  C_20
REMARK   10  A    between atoms: C_18  and  C_22
REMARK   11  A    between atoms: C_19  and  C_21
REMARK   12  A    between atoms: C_19  and  C_23
REMARK   13  A    between atoms: C_21  and  C_24
REMARK                            x       y       z     vdW  Elec       q    Type
REMARK                         _______ _______ _______ _____ _____    ______ ____
ROOT
ATOM      2  O   UNL     1      10.809  11.398  25.454  0.00  0.00    -0.273 OA
ATOM      3  O   UNL     1      16.445  13.604  21.600  0.00  0.00    -0.270 OA
ATOM      8  N   UNL     1      12.430  12.455  24.161  0.00  0.00    -0.285 N 
ATOM      9  N   UNL     1      15.112  12.560  23.212  0.00  0.00    -0.294 N 
ATOM     12  C   UNL     1      13.153  11.204  23.900  0.00  0.00    +0.179 C 
ATOM     13  C   UNL     1      14.674  11.362  23.937  0.00  0.00    +0.140 C 
ATOM     14  C   UNL     1      12.938  13.659  23.481  0.00  0.00    +0.127 C 
ATOM     15  C   UNL     1      14.448  13.791  23.627  0.00  0.00    +0.127 C 
ATOM     17  C   UNL     1      11.233  12.407  24.885  0.00  0.00    +0.242 C 
ATOM     18  C   UNL     1      16.077  12.598  22.204  0.00  0.00    +0.248 C 
ENDROOT
BRANCH  18  22
ATOM     11  N   UNL     1      18.610   9.837  22.024  0.00  0.00    -0.263 NA
ATOM     22  C   UNL     1      16.724  11.337  21.819  0.00  0.00    +0.055 A 
ATOM     25  C   UNL     1      16.115  10.463  20.927  0.00  0.00    +0.016 A 
ATOM     26  C   UNL     1      17.960  10.981  22.336  0.00  0.00    +0.123 A 
ATOM     29  C   UNL     1      16.752   9.276  20.581  0.00  0.00    +0.020 A 
ATOM     34  C   UNL     1      17.987   9.012  21.153  0.00  0.00    +0.111 A 
ENDBRANCH  18  22
BRANCH  12  16
ATOM      1  O   UNL     1      12.420  11.480  21.642  0.00  0.00    -0.274 OA
ATOM     10  N   UNL     1      12.564   9.331  22.526  0.00  0.00    -0.301 N 
ATOM     16  C   UNL     1      12.681  10.709  22.563  0.00  0.00    +0.236 C 
ATOM     37  H   UNL     1      12.817   8.783  23.342  0.00  0.00    +0.150 HD
BRANCH  10  19
ATOM     19  C   UNL     1      12.107   8.607  21.361  0.00  0.00    +0.186 C 
BRANCH  19  23
ATOM      6  O   UNL     1      10.180   7.782  22.564  0.00  0.00    -0.249 OA
ATOM     23  C   UNL     1      11.028   7.587  21.699  0.00  0.00    +0.328 C 
BRANCH  23   5
ATOM      5  O   UNL     1      11.136   6.456  20.947  0.00  0.00    -0.467 OA
ATOM     35  C   UNL     1      10.979   5.222  21.654  0.00  0.00    +0.280 C 
ENDBRANCH  23   5
ENDBRANCH  19  23
BRANCH  19  21
ATOM     21  C   UNL     1      13.283   7.972  20.603  0.00  0.00    +0.069 C 
BRANCH  21  24
ATOM     24  C   UNL     1      13.439   8.439  19.174  0.00  0.00    -0.045 A 
ATOM     27  C   UNL     1      12.829   9.620  18.754  0.00  0.00    +0.007 A 
ATOM     28  C   UNL     1      14.195   7.687  18.273  0.00  0.00    +0.007 A 
ATOM     31  C   UNL     1      12.974  10.051  17.436  0.00  0.00    +0.046 A 
ATOM     32  C   UNL     1      14.340   8.117  16.954  0.00  0.00    +0.046 A 
ATOM     33  C   UNL     1      13.729   9.299  16.536  0.00  0.00    +0.120 A 
BRANCH  33   7
ATOM      7  O   UNL     1      13.870   9.719  15.249  0.00  0.00    -0.495 OA
ATOM     36  C   UNL     1      15.129  10.285  14.886  0.00  0.00    +0.277 C 
ENDBRANCH  33   7
ENDBRANCH  21  24
ENDBRANCH  19  21
ENDBRANCH  10  19
ENDBRANCH  12  16
BRANCH  17  20
ATOM     20  C   UNL     1      10.436  13.686  24.962  0.00  0.00    +0.255 C 
BRANCH  20   4
ATOM      4  O   UNL     1      10.426  14.071  26.315  0.00  0.00    -0.374 OA
ATOM     30  C   UNL     1      11.312  15.159  26.570  0.00  0.00    +0.194 C 
ENDBRANCH  20   4
ENDBRANCH  17  20
TORSDOF 10
ENDMDL
MODEL 2
REMARK VINA RESULT:      -5.6      2.513      6.502
REMARK  Name = 11887582
REMARK  13 active torsions:
REMARK  status: ('A' for Active; 'I' for Inactive)
REMARK    1  A    between atoms: O_4  and  C_20
REMARK    2  A    between atoms: O_4  and  C_30
REMARK    3  A    between atoms: O_5  and  C_23
REMARK    4  A    between atoms: O_5  and  C_35
REMARK    5  A    between atoms: O_7  and  C_33
REMARK    6  A    between atoms: O_7  and  C_36
REMARK    7  A    between atoms: N_10  and  C_19
REMARK    8  A    between atoms: C_12  and  C_16
REMARK    9  A    between atoms: C_17  and  C_20
REMARK   10  A    between atoms: C_18  and  C_22
REMARK   11  A    between atoms: C_19  and  C_21
REMARK   12  A    between atoms: C_19  and  C_23
REMARK   13  A    between atoms: C_21  and  C_24
REMARK                            x       y       z     vdW  Elec       q    Type
REMARK                         _______ _______ _______ _____ _____    ______ ____
ROOT
ATOM      2  O   UNL     1      13.184   9.876  15.232  0.00  0.00    -0.273 OA
ATOM      3  O   UNL     1      15.860  13.103  21.055  0.00  0.00    -0.270 OA
ATOM      8  N   UNL     1      14.399  10.922  16.918  0.00  0.00    -0.285 N 
ATOM      9  N   UNL     1      14.427  12.426  19.336  0.00  0.00    -0.294 N 
ATOM     12  C   UNL     1      13.354  10.692  17.924  0.00  0.00    +0.179 C 
ATOM     13  C   UNL     1      13.149  11.877  18.869  0.00  0.00    +0.140 C 
ATOM     14  C   UNL     1      15.644  11.547  17.398  0.00  0.00    +0.127 C 
ATOM     15  C   UNL     1      15.362  12.765  18.267  0.00  0.00    +0.127 C 
ATOM     17  C   UNL     1      14.227  10.399  15.632  0.00  0.00    +0.242 C 
ATOM     18  C   UNL     1      14.789  12.639  20.667  0.00  0.00    +0.248 C 
ENDROOT
BRANCH  18  22
ATOM     11  N   UNL     1      11.508  12.117  22.409  0.00  0.00    -0.263 NA
ATOM     22  C   UNL     1      13.817  12.289  21.711  0.00  0.00    +0.055 A 
ATOM     25  C   UNL     1      14.235  11.813  22.948  0.00  0.00    +0.016 A 
ATOM     26  C   UNL     1      12.455  12.421  21.493  0.00  0.00    +0.123 A 
ATOM     29  C   UNL     1      13.292  11.489  23.917  0.00  0.00    +0.020 A 
ATOM     34  C   UNL     1      11.952  11.657  23.601  0.00  0.00    +0.111 A 
ENDBRANCH  18  22
BRANCH  12  16
ATOM      1  O   UNL     1      14.580   8.662  18.227  0.00  0.00    -0.274 OA
ATOM     10  N   UNL     1      13.059   9.316  19.864  0.00  0.00    -0.301 N 
ATOM     16  C   UNL     1      13.749   9.450  18.672  0.00  0.00    +0.236 C 
ATOM     37  H   UNL     1      12.398  10.033  20.147  0.00  0.00    +0.150 HD
BRANCH  10  19
ATOM     19  C   UNL     1      13.239   8.195  20.759  0.00  0.00    +0.186 C 
BRANCH  19  23
ATOM      6  O   UNL     1      11.377   8.267  22.298  0.00  0.00    -0.249 OA
ATOM     23  C   UNL     1      11.923   7.709  21.352  0.00  0.00    +0.328 C 
BRANCH  23   5
ATOM      5  O   UNL     1      11.455   6.596  20.720  0.00  0.00    -0.467 OA
ATOM     35  C   UNL     1      11.081   5.509  21.573  0.00  0.00    +0.280 C 
ENDBRANCH  23   5
ENDBRANCH  19  23
BRANCH  19  21
ATOM     21  C   UNL     1      14.278   8.510  21.846  0.00  0.00    +0.069 C 
BRANCH  21  24
ATOM     24  C   UNL     1      15.691   8.093  21.510  0.00  0.00    -0.045 A 
ATOM     27  C   UNL     1      15.948   6.797  21.061  0.00  0.00    +0.007 A 
ATOM     28  C   UNL     1      16.740   9.004  21.649  0.00  0.00    +0.007 A 
ATOM     31  C   UNL     1      17.252   6.413  20.751  0.00  0.00    +0.046 A 
ATOM     32  C   UNL     1      18.044   8.619  21.339  0.00  0.00    +0.046 A 
ATOM     33  C   UNL     1      18.300   7.323  20.890  0.00  0.00    +0.120 A 
BRANCH  33   7
ATOM      7  O   UNL     1      19.573   6.947  20.587  0.00  0.00    -0.495 OA
ATOM     36  C   UNL     1      20.586   7.263  21.541  0.00  0.00    +0.277 C 
ENDBRANCH  33   7
ENDBRANCH  21  24
ENDBRANCH  19  21
ENDBRANCH  10  19
ENDBRANCH  12  16
BRANCH  17  20
ATOM     20  C   UNL     1      15.406  10.499  14.697  0.00  0.00    +0.255 C 
BRANCH  20   4
ATOM      4  O   UNL     1      14.935  11.109  13.519  0.00  0.00    -0.374 OA
ATOM     30  C   UNL     1      14.951  12.532  13.609  0.00  0.00    +0.194 C 
ENDBRANCH  20   4
ENDBRANCH  17  20
TORSDOF 10
ENDMDL
MODEL 3
REMARK VINA RESULT:      -5.6      3.222      6.257
REMARK  Name = 11887582
REMARK  13 active torsions:
REMARK  status: ('A' for Active; 'I' for Inactive)
REMARK    1  A    between atoms: O_4  and  C_20
REMARK    2  A    between atoms: O_4  and  C_30
REMARK    3  A    between atoms: O_5  and  C_23
REMARK    4  A    between atoms: O_5  and  C_35
REMARK    5  A    between atoms: O_7  and  C_33
REMARK    6  A    between atoms: O_7  and  C_36
REMARK    7  A    between atoms: N_10  and  C_19
REMARK    8  A    between atoms: C_12  and  C_16
REMARK    9  A    between atoms: C_17  and  C_20
REMARK   10  A    between atoms: C_18  and  C_22
REMARK   11  A    between atoms: C_19  and  C_21
REMARK   12  A    between atoms: C_19  and  C_23
REMARK   13  A    between atoms: C_21  and  C_24
REMARK                            x       y       z     vdW  Elec       q    Type
REMARK                         _______ _______ _______ _____ _____    ______ ____
ROOT
ATOM      2  O   UNL     1      14.313  14.134  16.434  0.00  0.00    -0.273 OA
ATOM      3  O   UNL     1      14.483  12.383  23.391  0.00  0.00    -0.270 OA
ATOM      8  N   UNL     1      14.720  13.761  18.695  0.00  0.00    -0.285 N 
ATOM      9  N   UNL     1      13.745  12.998  21.259  0.00  0.00    -0.294 N 
ATOM     12  C   UNL     1      13.679  12.730  18.794  0.00  0.00    +0.179 C 
ATOM     13  C   UNL     1      12.875  12.800  20.094  0.00  0.00    +0.140 C 
ATOM     14  C   UNL     1      15.528  13.995  19.904  0.00  0.00    +0.127 C 
ATOM     15  C   UNL     1      14.655  14.132  21.145  0.00  0.00    +0.127 C 
ATOM     17  C   UNL     1      14.991  14.331  17.446  0.00  0.00    +0.242 C 
ATOM     18  C   UNL     1      13.755  12.214  22.413  0.00  0.00    +0.248 C 
ENDROOT
BRANCH  18  22
ATOM     11  N   UNL     1      10.660  10.233  23.169  0.00  0.00    -0.263 NA
ATOM     22  C   UNL     1      12.819  11.084  22.490  0.00  0.00    +0.055 A 
ATOM     25  C   UNL     1      13.162   9.835  21.984  0.00  0.00    +0.016 A 
ATOM     26  C   UNL     1      11.568  11.230  23.066  0.00  0.00    +0.123 A 
ATOM     29  C   UNL     1      12.255   8.785  22.070  0.00  0.00    +0.020 A 
ATOM     34  C   UNL     1      11.028   9.033  22.666  0.00  0.00    +0.111 A 
ENDBRANCH  18  22
BRANCH  12  16
ATOM      1  O   UNL     1      15.512  11.222  19.071  0.00  0.00    -0.274 OA
ATOM     10  N   UNL     1      13.598  10.479  17.974  0.00  0.00    -0.301 N 
ATOM     16  C   UNL     1      14.375  11.407  18.646  0.00  0.00    +0.236 C 
ATOM     37  H   UNL     1      12.661  10.731  17.673  0.00  0.00    +0.150 HD
BRANCH  10  19
ATOM     19  C   UNL     1      14.046   9.136  17.681  0.00  0.00    +0.186 C 
BRANCH  19  23
ATOM      6  O   UNL     1      13.844   8.470  15.367  0.00  0.00    -0.249 OA
ATOM     23  C   UNL     1      13.330   8.536  16.479  0.00  0.00    +0.328 C 
BRANCH  23   5
ATOM      5  O   UNL     1      12.074   8.109  16.789  0.00  0.00    -0.467 OA
ATOM     35  C   UNL     1      11.001   8.866  16.218  0.00  0.00    +0.280 C 
ENDBRANCH  23   5
ENDBRANCH  19  23
BRANCH  19  21
ATOM     21  C   UNL     1      13.946   8.233  18.921  0.00  0.00    +0.069 C 
BRANCH  21  24
ATOM     24  C   UNL     1      15.249   7.591  19.341  0.00  0.00    -0.045 A 
ATOM     27  C   UNL     1      15.780   6.539  18.596  0.00  0.00    +0.007 A 
ATOM     28  C   UNL     1      15.919   8.051  20.475  0.00  0.00    +0.007 A 
ATOM     31  C   UNL     1      16.981   5.947  18.983  0.00  0.00    +0.046 A 
ATOM     32  C   UNL     1      17.121   7.459  20.863  0.00  0.00    +0.046 A 
ATOM     33  C   UNL     1      17.652   6.406  20.117  0.00  0.00    +0.120 A 
BRANCH  33   7
ATOM      7  O   UNL     1      18.825   5.828  20.496  0.00  0.00    -0.495 OA
ATOM     36  C   UNL     1      19.954   6.687  20.643  0.00  0.00    +0.277 C 
ENDBRANCH  33   7
ENDBRANCH  21  24
ENDBRANCH  19  21
ENDBRANCH  10  19
ENDBRANCH  12  16
BRANCH  17  20
ATOM     20  C   UNL     1      16.190  15.242  17.363  0.00  0.00    +0.255 C 
BRANCH  20   4
ATOM      4  O   UNL     1      17.200  14.518  16.703  0.00  0.00    -0.374 OA
ATOM     30  C   UNL     1      17.573  15.123  15.467  0.00  0.00    +0.194 C 
ENDBRANCH  20   4
ENDBRANCH  17  20
TORSDOF 10
ENDMDL
MODEL 4
REMARK VINA RESULT:      -5.5     16.139     21.739
REMARK  Name = 11887582
REMARK  13 active torsions:
REMARK  status: ('A' for Active; 'I' for Inactive)
REMARK    1  A    between atoms: O_4  and  C_20
REMARK    2  A    between atoms: O_4  and  C_30
REMARK    3  A    between atoms: O_5  and  C_23
REMARK    4  A    between atoms: O_5  and  C_35
REMARK    5  A    between atoms: O_7  and  C_33
REMARK    6  A    between atoms: O_7  and  C_36
REMARK    7  A    between atoms: N_10  and  C_19
REMARK    8  A    between atoms: C_12  and  C_16
REMARK    9  A    between atoms: C_17  and  C_20
REMARK   10  A    between atoms: C_18  and  C_22
REMARK   11  A    between atoms: C_19  and  C_21
REMARK   12  A    between atoms: C_19  and  C_23
REMARK   13  A    between atoms: C_21  and  C_24
REMARK                            x       y       z     vdW  Elec       q    Type
REMARK                         _______ _______ _______ _____ _____    ______ ____
ROOT
ATOM      2  O   UNL     1       8.867   8.941  -1.181  0.00  0.00    -0.273 OA
ATOM      3  O   UNL     1      11.839   2.455  -1.948  0.00  0.00    -0.270 OA
ATOM      8  N   UNL     1       9.478   6.733  -1.593  0.00  0.00    -0.285 N 
ATOM      9  N   UNL     1      11.526   4.768  -1.827  0.00  0.00    -0.294 N 
ATOM     12  C   UNL     1      10.660   6.814  -0.725  0.00  0.00    +0.179 C 
ATOM     13  C   UNL     1      11.881   6.087  -1.290  0.00  0.00    +0.140 C 
ATOM     14  C   UNL     1       9.188   5.415  -2.183  0.00  0.00    +0.127 C 
ATOM     15  C   UNL     1      10.434   4.788  -2.795  0.00  0.00    +0.127 C 
ATOM     17  C   UNL     1       8.623   7.837  -1.676  0.00  0.00    +0.242 C 
ATOM     18  C   UNL     1      12.136   3.559  -1.493  0.00  0.00    +0.248 C 
ENDROOT
BRANCH  18  22
ATOM     11  N   UNL     1      13.998   3.202   1.743  0.00  0.00    -0.263 NA
ATOM     22  C   UNL     1      13.235   3.585  -0.519  0.00  0.00    +0.055 A 
ATOM     25  C   UNL     1      14.510   3.994  -0.889  0.00  0.00    +0.016 A 
ATOM     26  C   UNL     1      13.032   3.201   0.797  0.00  0.00    +0.123 A 
ATOM     29  C   UNL     1      15.531   4.008   0.056  0.00  0.00    +0.020 A 
ATOM     34  C   UNL     1      15.226   3.605   1.347  0.00  0.00    +0.111 A 
ENDBRANCH  18  22
BRANCH  12  16
ATOM      1  O   UNL     1       9.790   5.119   0.718  0.00  0.00    -0.274 OA
ATOM     10  N   UNL     1      10.433   7.160   1.637  0.00  0.00    -0.301 N 
ATOM     16  C   UNL     1      10.250   6.253   0.607  0.00  0.00    +0.236 C 
ATOM     37  H   UNL     1      10.832   8.072   1.438  0.00  0.00    +0.150 HD
BRANCH  10  19
ATOM     19  C   UNL     1      10.094   6.873   3.012  0.00  0.00    +0.186 C 
BRANCH  19  23
ATOM      6  O   UNL     1       8.054   7.857   3.855  0.00  0.00    -0.249 OA
ATOM     23  C   UNL     1       9.256   7.976   3.645  0.00  0.00    +0.328 C 
BRANCH  23   5
ATOM      5  O   UNL     1       9.995   9.087   3.923  0.00  0.00    -0.467 OA
ATOM     35  C   UNL     1       9.724   9.716   5.179  0.00  0.00    +0.280 C 
ENDBRANCH  23   5
ENDBRANCH  19  23
BRANCH  19  21
ATOM     21  C   UNL     1      11.349   6.556   3.841  0.00  0.00    +0.069 C 
BRANCH  21  24
ATOM     24  C   UNL     1      11.075   6.129   5.265  0.00  0.00    -0.045 A 
ATOM     27  C   UNL     1      11.776   6.717   6.317  0.00  0.00    +0.007 A 
ATOM     28  C   UNL     1      10.119   5.146   5.527  0.00  0.00    +0.007 A 
ATOM     31  C   UNL     1      11.523   6.324   7.630  0.00  0.00    +0.046 A 
ATOM     32  C   UNL     1       9.866   4.752   6.840  0.00  0.00    +0.046 A 
ATOM     33  C   UNL     1      10.568   5.341   7.892  0.00  0.00    +0.120 A 
BRANCH  33   7
ATOM      7  O   UNL     1      10.321   4.956   9.175  0.00  0.00    -0.495 OA
ATOM     36  C   UNL     1       8.966   5.008   9.617  0.00  0.00    +0.277 C 
ENDBRANCH  33   7
ENDBRANCH  21  24
ENDBRANCH  19  21
ENDBRANCH  10  19
ENDBRANCH  12  16
BRANCH  17  20
ATOM     20  C   UNL     1       7.331   7.638  -2.428  0.00  0.00    +0.255 C 
BRANCH  20   4
ATOM      4  O   UNL     1       6.470   8.677  -2.031  0.00  0.00    -0.374 OA
ATOM     30  C   UNL     1       5.101   8.277  -2.050  0.00  0.00    +0.194 C 
ENDBRANCH  20   4
ENDBRANCH  17  20
TORSDOF 10
ENDMDL
MODEL 5
REMARK VINA RESULT:      -5.5     27.154     30.586
REMARK  Name = 11887582
REMARK  13 active torsions:
REMARK  status: ('A' for Active; 'I' for Inactive)
REMARK    1  A    between atoms: O_4  and  C_20
REMARK    2  A    between atoms: O_4  and  C_30
REMARK    3  A    between atoms: O_5  and  C_23
REMARK    4  A    between atoms: O_5  and  C_35
REMARK    5  A    between atoms: O_7  and  C_33
REMARK    6  A    between atoms: O_7  and  C_36
REMARK    7  A    between atoms: N_10  and  C_19
REMARK    8  A    between atoms: C_12  and  C_16
REMARK    9  A    between atoms: C_17  and  C_20
REMARK   10  A    between atoms: C_18  and  C_22
REMARK   11  A    between atoms: C_19  and  C_21
REMARK   12  A    between atoms: C_19  and  C_23
REMARK   13  A    between atoms: C_21  and  C_24
REMARK                            x       y       z     vdW  Elec       q    Type
REMARK                         _______ _______ _______ _____ _____    ______ ____
ROOT
ATOM      2  O   UNL     1      -4.660  -9.919  17.081  0.00  0.00    -0.273 OA
ATOM      3  O   UNL     1      -9.885 -12.633  12.979  0.00  0.00    -0.270 OA
ATOM      8  N   UNL     1      -6.364 -11.096  16.021  0.00  0.00    -0.285 N 
ATOM      9  N   UNL     1      -8.474 -11.150  14.109  0.00  0.00    -0.294 N 
ATOM     12  C   UNL     1      -6.232 -10.326  14.777  0.00  0.00    +0.179 C 
ATOM     13  C   UNL     1      -7.574  -9.991  14.124  0.00  0.00    +0.140 C 
ATOM     14  C   UNL     1      -7.333 -12.206  16.004  0.00  0.00    +0.127 C 
ATOM     15  C   UNL     1      -8.669 -11.777  15.413  0.00  0.00    +0.127 C 
ATOM     17  C   UNL     1      -5.470 -10.849  17.069  0.00  0.00    +0.242 C 
ATOM     18  C   UNL     1      -9.127 -11.663  12.988  0.00  0.00    +0.248 C 
ENDROOT
BRANCH  18  22
ATOM     11  N   UNL     1      -9.304  -9.096  10.260  0.00  0.00    -0.263 NA
ATOM     22  C   UNL     1      -8.908 -11.000  11.697  0.00  0.00    +0.055 A 
ATOM     25  C   UNL     1      -8.132 -11.595  10.709  0.00  0.00    +0.016 A 
ATOM     26  C   UNL     1      -9.466  -9.761  11.426  0.00  0.00    +0.123 A 
ATOM     29  C   UNL     1      -7.941 -10.942   9.496  0.00  0.00    +0.020 A 
ATOM     34  C   UNL     1      -8.543  -9.705   9.322  0.00  0.00    +0.111 A 
ENDBRANCH  18  22
BRANCH  12  16
ATOM      1  O   UNL     1      -5.822 -12.018  13.139  0.00  0.00    -0.274 OA
ATOM     10  N   UNL     1      -4.025 -10.790  13.966  0.00  0.00    -0.301 N 
ATOM     16  C   UNL     1      -5.360 -11.140  13.863  0.00  0.00    +0.236 C 
ATOM     37  H   UNL     1      -3.748 -10.039  14.590  0.00  0.00    +0.150 HD
BRANCH  10  19
ATOM     19  C   UNL     1      -2.978 -11.439  13.209  0.00  0.00    +0.186 C 
BRANCH  19  23
ATOM      6  O   UNL     1      -1.165 -12.956  13.711  0.00  0.00    -0.249 OA
ATOM     23  C   UNL     1      -1.926 -12.079  14.105  0.00  0.00    +0.328 C 
BRANCH  23   5
ATOM      5  O   UNL     1      -1.955 -11.576  15.371  0.00  0.00    -0.467 OA
ATOM     35  C   UNL     1      -1.007 -10.540  15.650  0.00  0.00    +0.280 C 
ENDBRANCH  23   5
ENDBRANCH  19  23
BRANCH  19  21
ATOM     21  C   UNL     1      -2.354 -10.478  12.185  0.00  0.00    +0.069 C 
BRANCH  21  24
ATOM     24  C   UNL     1      -3.132 -10.335  10.897  0.00  0.00    -0.045 A 
ATOM     27  C   UNL     1      -3.325  -9.074  10.334  0.00  0.00    +0.007 A 
ATOM     28  C   UNL     1      -3.658 -11.466  10.271  0.00  0.00    +0.007 A 
ATOM     31  C   UNL     1      -4.042  -8.942   9.146  0.00  0.00    +0.046 A 
ATOM     32  C   UNL     1      -4.376 -11.335   9.082  0.00  0.00    +0.046 A 
ATOM     33  C   UNL     1      -4.568 -10.073   8.520  0.00  0.00    +0.120 A 
BRANCH  33   7
ATOM      7  O   UNL     1      -5.269  -9.945   7.360  0.00  0.00    -0.495 OA
ATOM     36  C   UNL     1      -5.385 -11.107   6.541  0.00  0.00    +0.277 C 
ENDBRANCH  33   7
ENDBRANCH  21  24
ENDBRANCH  19  21
ENDBRANCH  10  19
ENDBRANCH  12  16
BRANCH  17  20
ATOM     20  C   UNL     1      -5.528 -11.791  18.245  0.00  0.00    +0.255 C 
BRANCH  20   4
ATOM      4  O   UNL     1      -6.393 -11.205  19.187  0.00  0.00    -0.374 OA
ATOM     30  C   UNL     1      -7.328 -12.145  19.713  0.00  0.00    +0.194 C 
ENDBRANCH  20   4
ENDBRANCH  17  20
TORSDOF 10
ENDMDL
MODEL 6
REMARK VINA RESULT:      -5.4     28.559     30.725
REMARK  Name = 11887582
REMARK  13 active torsions:
REMARK  status: ('A' for Active; 'I' for Inactive)
REMARK    1  A    between atoms: O_4  and  C_20
REMARK    2  A    between atoms: O_4  and  C_30
REMARK    3  A    between atoms: O_5  and  C_23
REMARK    4  A    between atoms: O_5  and  C_35
REMARK    5  A    between atoms: O_7  and  C_33
REMARK    6  A    between atoms: O_7  and  C_36
REMARK    7  A    between atoms: N_10  and  C_19
REMARK    8  A    between atoms: C_12  and  C_16
REMARK    9  A    between atoms: C_17  and  C_20
REMARK   10  A    between atoms: C_18  and  C_22
REMARK   11  A    between atoms: C_19  and  C_21
REMARK   12  A    between atoms: C_19  and  C_23
REMARK   13  A    between atoms: C_21  and  C_24
REMARK                            x       y       z     vdW  Elec       q    Type
REMARK                         _______ _______ _______ _____ _____    ______ ____
ROOT
ATOM      2  O   UNL     1      -4.752 -10.415  17.619  0.00  0.00    -0.273 OA
ATOM      3  O   UNL     1     -11.921 -10.211  17.399  0.00  0.00    -0.270 OA
ATOM      8  N   UNL     1      -7.057 -10.730  17.672  0.00  0.00    -0.285 N 
ATOM      9  N   UNL     1      -9.676  -9.614  17.665  0.00  0.00    -0.294 N 
ATOM     12  C   UNL     1      -7.322  -9.515  16.892  0.00  0.00    +0.179 C 
ATOM     13  C   UNL     1      -8.539  -8.730  17.384  0.00  0.00    +0.140 C 
ATOM     14  C   UNL     1      -8.226 -11.560  18.009  0.00  0.00    +0.127 C 
ATOM     15  C   UNL     1      -9.369 -10.721  18.565  0.00  0.00    +0.127 C 
ATOM     17  C   UNL     1      -5.730 -11.111  17.902  0.00  0.00    +0.242 C 
ATOM     18  C   UNL     1     -10.968  -9.470  17.158  0.00  0.00    +0.248 C 
ENDROOT
BRANCH  18  22
ATOM     11  N   UNL     1     -11.779  -7.550  14.040  0.00  0.00    -0.263 NA
ATOM     22  C   UNL     1     -11.236  -8.340  16.260  0.00  0.00    +0.055 A 
ATOM     25  C   UNL     1     -11.211  -7.032  16.728  0.00  0.00    +0.016 A 
ATOM     26  C   UNL     1     -11.523  -8.544  14.920  0.00  0.00    +0.123 A 
ATOM     29  C   UNL     1     -11.469  -5.981  15.855  0.00  0.00    +0.020 A 
ATOM     34  C   UNL     1     -11.745  -6.291  14.532  0.00  0.00    +0.111 A 
ENDBRANCH  18  22
BRANCH  12  16
ATOM      1  O   UNL     1      -8.548 -10.403  15.042  0.00  0.00    -0.274 OA
ATOM     10  N   UNL     1      -6.320  -9.803  14.734  0.00  0.00    -0.301 N 
ATOM     16  C   UNL     1      -7.486  -9.952  15.464  0.00  0.00    +0.236 C 
ATOM     37  H   UNL     1      -5.496  -9.407  15.177  0.00  0.00    +0.150 HD
BRANCH  10  19
ATOM     19  C   UNL     1      -6.207 -10.172  13.341  0.00  0.00    +0.186 C 
BRANCH  19  23
ATOM      6  O   UNL     1      -5.050 -12.136  12.538  0.00  0.00    -0.249 OA
ATOM     23  C   UNL     1      -4.980 -11.032  13.067  0.00  0.00    +0.328 C 
BRANCH  23   5
ATOM      5  O   UNL     1      -3.830 -10.436  13.491  0.00  0.00    -0.467 OA
ATOM     35  C   UNL     1      -2.648 -10.776  12.759  0.00  0.00    +0.280 C 
ENDBRANCH  23   5
ENDBRANCH  19  23
BRANCH  19  21
ATOM     21  C   UNL     1      -6.258  -8.935  12.430  0.00  0.00    +0.069 C 
BRANCH  21  24
ATOM     24  C   UNL     1      -5.977  -9.212  10.971  0.00  0.00    -0.045 A 
ATOM     27  C   UNL     1      -4.784  -8.778  10.395  0.00  0.00    +0.007 A 
ATOM     28  C   UNL     1      -6.913  -9.903  10.200  0.00  0.00    +0.007 A 
ATOM     31  C   UNL     1      -4.525  -9.034   9.049  0.00  0.00    +0.046 A 
ATOM     32  C   UNL     1      -6.655 -10.159   8.853  0.00  0.00    +0.046 A 
ATOM     33  C   UNL     1      -5.461  -9.724   8.278  0.00  0.00    +0.120 A 
BRANCH  33   7
ATOM      7  O   UNL     1      -5.208  -9.973   6.964  0.00  0.00    -0.495 OA
ATOM     36  C   UNL     1      -6.321  -9.940   6.072  0.00  0.00    +0.277 C 
ENDBRANCH  33   7
ENDBRANCH  21  24
ENDBRANCH  19  21
ENDBRANCH  10  19
ENDBRANCH  12  16
BRANCH  17  20
ATOM     20  C   UNL     1      -5.513 -12.460  18.541  0.00  0.00    +0.255 C 
BRANCH  20   4
ATOM      4  O   UNL     1      -4.796 -13.235  17.612  0.00  0.00    -0.374 OA
ATOM     30  C   UNL     1      -5.657 -14.023  16.793  0.00  0.00    +0.194 C 
ENDBRANCH  20   4
ENDBRANCH  17  20
TORSDOF 10
ENDMDL
MODEL 7
REMARK VINA RESULT:      -5.4     26.841     30.242
REMARK  Name = 11887582
REMARK  13 active torsions:
REMARK  status: ('A' for Active; 'I' for Inactive)
REMARK    1  A    between atoms: O_4  and  C_20
REMARK    2  A    between atoms: O_4  and  C_30
REMARK    3  A    between atoms: O_5  and  C_23
REMARK    4  A    between atoms: O_5  and  C_35
REMARK    5  A    between atoms: O_7  and  C_33
REMARK    6  A    between atoms: O_7  and  C_36
REMARK    7  A    between atoms: N_10  and  C_19
REMARK    8  A    between atoms: C_12  and  C_16
REMARK    9  A    between atoms: C_17  and  C_20
REMARK   10  A    between atoms: C_18  and  C_22
REMARK   11  A    between atoms: C_19  and  C_21
REMARK   12  A    between atoms: C_19  and  C_23
REMARK   13  A    between atoms: C_21  and  C_24
REMARK                            x       y       z     vdW  Elec       q    Type
REMARK                         _______ _______ _______ _____ _____    ______ ____
ROOT
ATOM      2  O   UNL     1      -7.411 -12.661  11.023  0.00  0.00    -0.273 OA
ATOM      3  O   UNL     1      -7.559  -8.950  17.162  0.00  0.00    -0.270 OA
ATOM      8  N   UNL     1      -7.642 -11.173  12.797  0.00  0.00    -0.285 N 
ATOM      9  N   UNL     1      -7.601 -10.691  15.603  0.00  0.00    -0.294 N 
ATOM     12  C   UNL     1      -6.692 -11.908  13.642  0.00  0.00    +0.179 C 
ATOM     13  C   UNL     1      -7.118 -11.986  15.109  0.00  0.00    +0.140 C 
ATOM     14  C   UNL     1      -8.173  -9.915  13.350  0.00  0.00    +0.127 C 
ATOM     15  C   UNL     1      -8.649 -10.089  14.786  0.00  0.00    +0.127 C 
ATOM     17  C   UNL     1      -7.857 -11.608  11.484  0.00  0.00    +0.242 C 
ATOM     18  C   UNL     1      -7.150 -10.033  16.748  0.00  0.00    +0.248 C 
ENDROOT
BRANCH  18  22
ATOM     11  N   UNL     1      -3.771 -11.293  17.780  0.00  0.00    -0.263 NA
ATOM     22  C   UNL     1      -6.097 -10.677  17.545  0.00  0.00    +0.055 A 
ATOM     25  C   UNL     1      -6.385 -11.262  18.772  0.00  0.00    +0.016 A 
ATOM     26  C   UNL     1      -4.787 -10.717  17.097  0.00  0.00    +0.123 A 
ATOM     29  C   UNL     1      -5.367 -11.863  19.505  0.00  0.00    +0.020 A 
ATOM     34  C   UNL     1      -4.088 -11.852  18.969  0.00  0.00    +0.111 A 
ENDBRANCH  18  22
BRANCH  12  16
ATOM      1  O   UNL     1      -5.207 -10.041  13.789  0.00  0.00    -0.274 OA
ATOM     10  N   UNL     1      -4.400 -12.061  12.960  0.00  0.00    -0.301 N 
ATOM     16  C   UNL     1      -5.365 -11.221  13.487  0.00  0.00    +0.236 C 
ATOM     37  H   UNL     1      -4.632 -13.028  12.754  0.00  0.00    +0.150 HD
BRANCH  10  19
ATOM     19  C   UNL     1      -3.044 -11.637  12.691  0.00  0.00    +0.186 C 
BRANCH  19  23
ATOM      6  O   UNL     1      -1.745 -12.595  14.489  0.00  0.00    -0.249 OA
ATOM     23  C   UNL     1      -2.192 -11.587  13.952  0.00  0.00    +0.328 C 
BRANCH  23   5
ATOM      5  O   UNL     1      -2.011 -10.313  14.401  0.00  0.00    -0.467 OA
ATOM     35  C   UNL     1      -1.132 -10.167  15.520  0.00  0.00    +0.280 C 
ENDBRANCH  23   5
ENDBRANCH  19  23
BRANCH  19  21
ATOM     21  C   UNL     1      -3.018 -10.305  11.926  0.00  0.00    +0.069 C 
BRANCH  21  24
ATOM     24  C   UNL     1      -3.628 -10.358  10.544  0.00  0.00    -0.045 A 
ATOM     27  C   UNL     1      -3.926  -9.177   9.866  0.00  0.00    +0.007 A 
ATOM     28  C   UNL     1      -3.894 -11.591   9.946  0.00  0.00    +0.007 A 
ATOM     31  C   UNL     1      -4.488  -9.226   8.591  0.00  0.00    +0.046 A 
ATOM     32  C   UNL     1      -4.458 -11.641   8.671  0.00  0.00    +0.046 A 
ATOM     33  C   UNL     1      -4.755 -10.458   7.994  0.00  0.00    +0.120 A 
BRANCH  33   7
ATOM      7  O   UNL     1      -5.304 -10.507   6.749  0.00  0.00    -0.495 OA
ATOM     36  C   UNL     1      -6.478  -9.727   6.528  0.00  0.00    +0.277 C 
ENDBRANCH  33   7
ENDBRANCH  21  24
ENDBRANCH  19  21
ENDBRANCH  10  19
ENDBRANCH  12  16
BRANCH  17  20
ATOM     20  C   UNL     1      -8.693 -10.713  10.603  0.00  0.00    +0.255 C 
BRANCH  20   4
ATOM      4  O   UNL     1      -7.797 -10.027   9.762  0.00  0.00    -0.374 OA
ATOM     30  C   UNL     1      -7.991  -8.615   9.811  0.00  0.00    +0.194 C 
ENDBRANCH  20   4
ENDBRANCH  17  20
TORSDOF 10
ENDMDL
MODEL 8
REMARK VINA RESULT:      -5.4     28.036     30.047
REMARK  Name = 11887582
REMARK  13 active torsions:
REMARK  status: ('A' for Active; 'I' for Inactive)
REMARK    1  A    between atoms: O_4  and  C_20
REMARK    2  A    between atoms: O_4  and  C_30
REMARK    3  A    between atoms: O_5  and  C_23
REMARK    4  A    between atoms: O_5  and  C_35
REMARK    5  A    between atoms: O_7  and  C_33
REMARK    6  A    between atoms: O_7  and  C_36
REMARK    7  A    between atoms: N_10  and  C_19
REMARK    8  A    between atoms: C_12  and  C_16
REMARK    9  A    between atoms: C_17  and  C_20
REMARK   10  A    between atoms: C_18  and  C_22
REMARK   11  A    between atoms: C_19  and  C_21
REMARK   12  A    between atoms: C_19  and  C_23
REMARK   13  A    between atoms: C_21  and  C_24
REMARK                            x       y       z     vdW  Elec       q    Type
REMARK                         _______ _______ _______ _____ _____    ______ ____
ROOT
ATOM      2  O   UNL     1      -8.793 -12.389  17.762  0.00  0.00    -0.273 OA
ATOM      3  O   UNL     1      -1.962 -10.611  16.467  0.00  0.00    -0.270 OA
ATOM      8  N   UNL     1      -6.601 -11.610  17.688  0.00  0.00    -0.285 N 
ATOM      9  N   UNL     1      -3.983 -11.782  16.582  0.00  0.00    -0.294 N 
ATOM     12  C   UNL     1      -6.437 -11.967  16.273  0.00  0.00    +0.179 C 
ATOM     13  C   UNL     1      -5.061 -12.551  15.949  0.00  0.00    +0.140 C 
ATOM     14  C   UNL     1      -5.472 -10.908  18.322  0.00  0.00    +0.127 C 
ATOM     15  C   UNL     1      -4.145 -11.591  18.020  0.00  0.00    +0.127 C 
ATOM     17  C   UNL     1      -7.848 -11.800  18.294  0.00  0.00    +0.242 C 
ATOM     18  C   UNL     1      -2.867 -11.253  15.933  0.00  0.00    +0.248 C 
ENDROOT
BRANCH  18  22
ATOM     11  N   UNL     1      -2.233 -12.977  12.663  0.00  0.00    -0.263 NA
ATOM     22  C   UNL     1      -2.740 -11.472  14.487  0.00  0.00    +0.055 A 
ATOM     25  C   UNL     1      -2.991 -10.447  13.582  0.00  0.00    +0.016 A 
ATOM     26  C   UNL     1      -2.368 -12.707  13.982  0.00  0.00    +0.123 A 
ATOM     29  C   UNL     1      -2.863 -10.685  12.218  0.00  0.00    +0.020 A 
ATOM     34  C   UNL     1      -2.485 -11.956  11.814  0.00  0.00    +0.111 A 
ENDBRANCH  18  22
BRANCH  12  16
ATOM      1  O   UNL     1      -5.831  -9.881  15.276  0.00  0.00    -0.274 OA
ATOM     10  N   UNL     1      -8.023 -10.636  15.067  0.00  0.00    -0.301 N 
ATOM     16  C   UNL     1      -6.706 -10.717  15.485  0.00  0.00    +0.236 C 
ATOM     37  H   UNL     1      -8.667 -11.390  15.283  0.00  0.00    +0.150 HD
BRANCH  10  19
ATOM     19  C   UNL     1      -8.545  -9.520  14.310  0.00  0.00    +0.186 C 
BRANCH  19  23
ATOM      6  O   UNL     1     -10.715  -8.472  14.493  0.00  0.00    -0.249 OA
ATOM     23  C   UNL     1      -9.668  -8.797  15.042  0.00  0.00    +0.328 C 
BRANCH  23   5
ATOM      5  O   UNL     1      -9.355  -8.551  16.346  0.00  0.00    -0.467 OA
ATOM     35  C   UNL     1     -10.402  -7.981  17.139  0.00  0.00    +0.280 C 
ENDBRANCH  23   5
ENDBRANCH  19  23
BRANCH  19  21
ATOM     21  C   UNL     1      -8.965  -9.953  12.897  0.00  0.00    +0.069 C 
BRANCH  21  24
ATOM     24  C   UNL     1      -7.850  -9.944  11.876  0.00  0.00    -0.045 A 
ATOM     27  C   UNL     1      -6.805  -9.027  11.990  0.00  0.00    +0.007 A 
ATOM     28  C   UNL     1      -7.865 -10.856  10.819  0.00  0.00    +0.007 A 
ATOM     31  C   UNL     1      -5.777  -9.020  11.049  0.00  0.00    +0.046 A 
ATOM     32  C   UNL     1      -6.837 -10.848   9.876  0.00  0.00    +0.046 A 
ATOM     33  C   UNL     1      -5.793  -9.930   9.991  0.00  0.00    +0.120 A 
BRANCH  33   7
ATOM      7  O   UNL     1      -4.789  -9.923   9.072  0.00  0.00    -0.495 OA
ATOM     36  C   UNL     1      -5.168  -9.974   7.697  0.00  0.00    +0.277 C 
ENDBRANCH  33   7
ENDBRANCH  21  24
ENDBRANCH  19  21
ENDBRANCH  10  19
ENDBRANCH  12  16
BRANCH  17  20
ATOM     20  C   UNL     1      -8.017 -11.245  19.686  0.00  0.00    +0.255 C 
BRANCH  20   4
ATOM      4  O   UNL     1      -9.299 -11.629  20.119  0.00  0.00    -0.374 OA
ATOM     30  C   UNL     1     -10.222 -10.542  20.094  0.00  0.00    +0.194 C 
ENDBRANCH  20   4
ENDBRANCH  17  20
TORSDOF 10
ENDMDL
MODEL 9
REMARK VINA RESULT:      -5.2      2.841      8.331
REMARK  Name = 11887582
REMARK  13 active torsions:
REMARK  status: ('A' for Active; 'I' for Inactive)
REMARK    1  A    between atoms: O_4  and  C_20
REMARK    2  A    between atoms: O_4  and  C_30
REMARK    3  A    between atoms: O_5  and  C_23
REMARK    4  A    between atoms: O_5  and  C_35
REMARK    5  A    between atoms: O_7  and  C_33
REMARK    6  A    between atoms: O_7  and  C_36
REMARK    7  A    between atoms: N_10  and  C_19
REMARK    8  A    between atoms: C_12  and  C_16
REMARK    9  A    between atoms: C_17  and  C_20
REMARK   10  A    between atoms: C_18  and  C_22
REMARK   11  A    between atoms: C_19  and  C_21
REMARK   12  A    between atoms: C_19  and  C_23
REMARK   13  A    between atoms: C_21  and  C_24
REMARK                            x       y       z     vdW  Elec       q    Type
REMARK                         _______ _______ _______ _____ _____    ______ ____
ROOT
ATOM      2  O   UNL     1      19.158   7.693  22.455  0.00  0.00    -0.273 OA
ATOM      3  O   UNL     1      12.971   7.073  18.874  0.00  0.00    -0.270 OA
ATOM      8  N   UNL     1      17.383   7.386  20.983  0.00  0.00    -0.285 N 
ATOM      9  N   UNL     1      14.587   7.045  20.564  0.00  0.00    -0.294 N 
ATOM     12  C   UNL     1      16.431   8.082  21.859  0.00  0.00    +0.179 C 
ATOM     13  C   UNL     1      15.052   7.422  21.904  0.00  0.00    +0.140 C 
ATOM     14  C   UNL     1      16.869   6.949  19.673  0.00  0.00    +0.127 C 
ATOM     15  C   UNL     1      15.532   6.232  19.806  0.00  0.00    +0.127 C 
ATOM     17  C   UNL     1      18.730   7.326  21.358  0.00  0.00    +0.242 C 
ATOM     18  C   UNL     1      13.360   7.393  19.997  0.00  0.00    +0.248 C 
ENDROOT
BRANCH  18  22
ATOM     11  N   UNL     1      10.721   8.320  22.496  0.00  0.00    -0.263 NA
ATOM     22  C   UNL     1      12.437   8.209  20.796  0.00  0.00    +0.055 A 
ATOM     25  C   UNL     1      12.382   9.589  20.639  0.00  0.00    +0.016 A 
ATOM     26  C   UNL     1      11.594   7.628  21.729  0.00  0.00    +0.123 A 
ATOM     29  C   UNL     1      11.498  10.336  21.410  0.00  0.00    +0.020 A 
ATOM     34  C   UNL     1      10.696   9.660  22.316  0.00  0.00    +0.111 A 
ENDBRANCH  18  22
BRANCH  12  16
ATOM      1  O   UNL     1      15.726   9.793  20.346  0.00  0.00    -0.274 OA
ATOM     10  N   UNL     1      17.066  10.374  22.159  0.00  0.00    -0.301 N 
ATOM     16  C   UNL     1      16.351   9.497  21.361  0.00  0.00    +0.236 C 
ATOM     37  H   UNL     1      17.541  10.027  22.987  0.00  0.00    +0.150 HD
BRANCH  10  19
ATOM     19  C   UNL     1      17.167  11.789  21.885  0.00  0.00    +0.186 C 
BRANCH  19  23
ATOM      6  O   UNL     1      19.358  12.796  22.049  0.00  0.00    -0.249 OA
ATOM     23  C   UNL     1      18.544  12.182  21.367  0.00  0.00    +0.328 C 
BRANCH  23   5
ATOM      5  O   UNL     1      18.740  11.788  20.077  0.00  0.00    -0.467 OA
ATOM     35  C   UNL     1      20.009  12.126  19.509  0.00  0.00    +0.280 C 
ENDBRANCH  23   5
ENDBRANCH  19  23
BRANCH  19  21
ATOM     21  C   UNL     1      16.751  12.625  23.105  0.00  0.00    +0.069 C 
BRANCH  21  24
ATOM     24  C   UNL     1      15.263  12.653  23.374  0.00  0.00    -0.045 A 
ATOM     27  C   UNL     1      14.738  11.966  24.468  0.00  0.00    +0.007 A 
ATOM     28  C   UNL     1      14.415  13.367  22.527  0.00  0.00    +0.007 A 
ATOM     31  C   UNL     1      13.367  11.992  24.716  0.00  0.00    +0.046 A 
ATOM     32  C   UNL     1      13.043  13.394  22.774  0.00  0.00    +0.046 A 
ATOM     33  C   UNL     1      12.519  12.706  23.868  0.00  0.00    +0.120 A 
BRANCH  33   7
ATOM      7  O   UNL     1      11.179  12.731  24.110  0.00  0.00    -0.495 OA
ATOM     36  C   UNL     1      10.767  12.775  25.476  0.00  0.00    +0.277 C 
ENDBRANCH  33   7
ENDBRANCH  21  24
ENDBRANCH  19  21
ENDBRANCH  10  19
ENDBRANCH  12  16
BRANCH  17  20
ATOM     20  C   UNL     1      19.693   6.770  20.340  0.00  0.00    +0.255 C 
BRANCH  20   4
ATOM      4  O   UNL     1      19.704   5.374  20.518  0.00  0.00    -0.374 OA
ATOM     30  C   UNL     1      21.030   4.850  20.562  0.00  0.00    +0.194 C 
ENDBRANCH  20   4
ENDBRANCH  17  20
TORSDOF 10
ENDMDL
MODEL 10
REMARK VINA RESULT:      -5.0     14.702     18.399
REMARK  Name = 11887582
REMARK  13 active torsions:
REMARK  status: ('A' for Active; 'I' for Inactive)
REMARK    1  A    between atoms: O_4  and  C_20
REMARK    2  A    between atoms: O_4  and  C_30
REMARK    3  A    between atoms: O_5  and  C_23
REMARK    4  A    between atoms: O_5  and  C_35
REMARK    5  A    between atoms: O_7  and  C_33
REMARK    6  A    between atoms: O_7  and  C_36
REMARK    7  A    between atoms: N_10  and  C_19
REMARK    8  A    between atoms: C_12  and  C_16
REMARK    9  A    between atoms: C_17  and  C_20
REMARK   10  A    between atoms: C_18  and  C_22
REMARK   11  A    between atoms: C_19  and  C_21
REMARK   12  A    between atoms: C_19  and  C_23
REMARK   13  A    between atoms: C_21  and  C_24
REMARK                            x       y       z     vdW  Elec       q    Type
REMARK                         _______ _______ _______ _____ _____    ______ ____
ROOT
ATOM      2  O   UNL     1      12.391  10.258   6.675  0.00  0.00    -0.273 OA
ATOM      3  O   UNL     1      15.454   7.292   0.903  0.00  0.00    -0.270 OA
ATOM      8  N   UNL     1      13.495   9.672   4.712  0.00  0.00    -0.285 N 
ATOM      9  N   UNL     1      14.655   7.654   3.070  0.00  0.00    -0.294 N 
ATOM     12  C   UNL     1      12.892   8.333   4.678  0.00  0.00    +0.179 C 
ATOM     13  C   UNL     1      13.865   7.239   4.235  0.00  0.00    +0.140 C 
ATOM     14  C   UNL     1      14.348  10.035   3.567  0.00  0.00    +0.127 C 
ATOM     15  C   UNL     1      15.342   8.931   3.235  0.00  0.00    +0.127 C 
ATOM     17  C   UNL     1      13.105  10.564   5.716  0.00  0.00    +0.242 C 
ATOM     18  C   UNL     1      14.788   6.943   1.877  0.00  0.00    +0.248 C 
ENDROOT
BRANCH  18  22
ATOM     11  N   UNL     1      14.184   3.245   1.706  0.00  0.00    -0.263 NA
ATOM     22  C   UNL     1      14.083   5.660   1.755  0.00  0.00    +0.055 A 
ATOM     25  C   UNL     1      12.705   5.615   1.581  0.00  0.00    +0.016 A 
ATOM     26  C   UNL     1      14.771   4.459   1.812  0.00  0.00    +0.123 A 
ATOM     29  C   UNL     1      12.065   4.385   1.470  0.00  0.00    +0.020 A 
ATOM     34  C   UNL     1      12.843   3.240   1.538  0.00  0.00    +0.111 A 
ENDBRANCH  18  22
BRANCH  12  16
ATOM      1  O   UNL     1      11.834   8.625   2.554  0.00  0.00    -0.274 OA
ATOM     10  N   UNL     1      10.508   8.276   4.436  0.00  0.00    -0.301 N 
ATOM     16  C   UNL     1      11.707   8.423   3.760  0.00  0.00    +0.236 C 
ATOM     37  H   UNL     1      10.514   8.101   5.436  0.00  0.00    +0.150 HD
BRANCH  10  19
ATOM     19  C   UNL     1       9.219   8.345   3.785  0.00  0.00    +0.186 C 
BRANCH  19  23
ATOM      6  O   UNL     1       8.911  10.460   2.657  0.00  0.00    -0.249 OA
ATOM     23  C   UNL     1       8.712   9.775   3.655  0.00  0.00    +0.328 C 
BRANCH  23   5
ATOM      5  O   UNL     1       8.042  10.186   4.768  0.00  0.00    -0.467 OA
ATOM     35  C   UNL     1       8.759  11.073   5.633  0.00  0.00    +0.280 C 
ENDBRANCH  23   5
ENDBRANCH  19  23
BRANCH  19  21
ATOM     21  C   UNL     1       8.196   7.432   4.477  0.00  0.00    +0.069 C 
BRANCH  21  24
ATOM     24  C   UNL     1       8.719   6.706   5.695  0.00  0.00    -0.045 A 
ATOM     27  C   UNL     1       9.330   5.460   5.557  0.00  0.00    +0.007 A 
ATOM     28  C   UNL     1       8.590   7.283   6.960  0.00  0.00    +0.007 A 
ATOM     31  C   UNL     1       9.812   4.791   6.681  0.00  0.00    +0.046 A 
ATOM     32  C   UNL     1       9.072   6.614   8.085  0.00  0.00    +0.046 A 
ATOM     33  C   UNL     1       9.683   5.367   7.945  0.00  0.00    +0.120 A 
BRANCH  33   7
ATOM      7  O   UNL     1      10.154   4.714   9.043  0.00  0.00    -0.495 OA
ATOM     36  C   UNL     1       9.292   4.648  10.177  0.00  0.00    +0.277 C 
ENDBRANCH  33   7
ENDBRANCH  21  24
ENDBRANCH  19  21
ENDBRANCH  10  19
ENDBRANCH  12  16
BRANCH  17  20
ATOM     20  C   UNL     1      13.609  11.981   5.596  0.00  0.00    +0.255 C 
BRANCH  20   4
ATOM      4  O   UNL     1      12.492  12.779   5.286  0.00  0.00    -0.374 OA
ATOM     30  C   UNL     1      12.792  13.757   4.292  0.00  0.00    +0.194 C 
ENDBRANCH  20   4
ENDBRANCH  17  20
TORSDOF 10
ENDMDL
