MODEL 1
REMARK VINA RESULT:      -5.5      0.000      0.000
REMARK  Name = 75536881
REMARK  3 active torsions:
REMARK  status: ('A' for Active; 'I' for Inactive)
REMARK    1  A    between atoms: O_2  and  C_6
REMARK    2  A    between atoms: O_2  and  C_13
REMARK    3  A    between atoms: C_11  and  C_12
REMARK                            x       y       z     vdW  Elec       q    Type
REMARK                         _______ _______ _______ _____ _____    ______ ____
ROOT
ATOM      1  O   UNL     1      15.113  10.828  16.065  0.00  0.00    -0.376 OA
ATOM      3  O   UNL     1      11.484   7.499  17.008  0.00  0.00    -0.270 OA
ATOM      4  N   UNL     1      13.486   8.646  17.424  0.00  0.00    -0.293 N 
ATOM      6  C   UNL     1      14.275  10.760  18.427  0.00  0.00    +0.161 C 
ATOM      7  C   UNL     1      14.435   9.242  18.379  0.00  0.00    +0.142 C 
ATOM      8  C   UNL     1      13.803   8.808  16.003  0.00  0.00    +0.136 C 
ATOM      9  C   UNL     1      15.030  11.498  17.316  0.00  0.00    +0.193 C 
ATOM     10  C   UNL     1      13.891  10.274  15.589  0.00  0.00    +0.179 C 
ATOM     11  C   UNL     1      12.308   7.979  17.786  0.00  0.00    +0.248 C 
ENDROOT
BRANCH  11  12
ATOM      5  N   UNL     1      12.400   6.666  21.297  0.00  0.00    -0.263 NA
ATOM     12  C   UNL     1      12.007   7.830  19.215  0.00  0.00    +0.055 A 
ATOM     14  C   UNL     1      11.089   8.663  19.844  0.00  0.00    +0.016 A 
ATOM     15  C   UNL     1      12.630   6.855  19.979  0.00  0.00    +0.123 A 
ATOM     16  C   UNL     1      10.825   8.499  21.200  0.00  0.00    +0.020 A 
ATOM     17  C   UNL     1      11.501   7.495  21.875  0.00  0.00    +0.111 A 
ENDBRANCH  11  12
BRANCH   6   2
ATOM      2  O   UNL     1      14.738  11.232  19.692  0.00  0.00    -0.376 OA
ATOM     13  C   UNL     1      14.172  10.485  20.757  0.00  0.00    +0.194 C 
ENDBRANCH   6   2
TORSDOF 2
ENDMDL
MODEL 2
REMARK VINA RESULT:      -5.4     16.133     18.562
REMARK  Name = 75536881
REMARK  3 active torsions:
REMARK  status: ('A' for Active; 'I' for Inactive)
REMARK    1  A    between atoms: O_2  and  C_6
REMARK    2  A    between atoms: O_2  and  C_13
REMARK    3  A    between atoms: C_11  and  C_12
REMARK                            x       y       z     vdW  Elec       q    Type
REMARK                         _______ _______ _______ _____ _____    ______ ____
ROOT
ATOM      1  O   UNL     1      -2.149  -2.194  24.464  0.00  0.00    -0.376 OA
ATOM      3  O   UNL     1       0.890   1.745  25.091  0.00  0.00    -0.270 OA
ATOM      4  N   UNL     1      -1.054   0.643  24.381  0.00  0.00    -0.293 N 
ATOM      6  C   UNL     1      -3.240  -0.086  25.270  0.00  0.00    +0.161 C 
ATOM      7  C   UNL     1      -2.508   0.652  24.150  0.00  0.00    +0.142 C 
ATOM      8  C   UNL     1      -0.360  -0.620  24.116  0.00  0.00    +0.136 C 
ATOM      9  C   UNL     1      -3.286  -1.605  25.083  0.00  0.00    +0.193 C 
ATOM     10  C   UNL     1      -0.890  -1.766  24.972  0.00  0.00    +0.179 C 
ATOM     11  C   UNL     1      -0.319   1.735  24.861  0.00  0.00    +0.248 C 
ENDROOT
BRANCH  11  12
ATOM      5  N   UNL     1      -2.828   4.146  26.259  0.00  0.00    -0.263 NA
ATOM     12  C   UNL     1      -1.033   2.990  25.123  0.00  0.00    +0.055 A 
ATOM     14  C   UNL     1      -0.633   4.181  24.528  0.00  0.00    +0.016 A 
ATOM     15  C   UNL     1      -2.128   3.026  25.973  0.00  0.00    +0.123 A 
ATOM     16  C   UNL     1      -1.329   5.355  24.796  0.00  0.00    +0.020 A 
ATOM     17  C   UNL     1      -2.409   5.285  25.661  0.00  0.00    +0.111 A 
ENDBRANCH  11  12
BRANCH   6   2
ATOM      2  O   UNL     1      -4.576   0.410  25.351  0.00  0.00    -0.376 OA
ATOM     13  C   UNL     1      -4.751   1.554  24.529  0.00  0.00    +0.194 C 
ENDBRANCH   6   2
TORSDOF 2
ENDMDL
MODEL 3
REMARK VINA RESULT:      -5.0      2.305      5.142
REMARK  Name = 75536881
REMARK  3 active torsions:
REMARK  status: ('A' for Active; 'I' for Inactive)
REMARK    1  A    between atoms: O_2  and  C_6
REMARK    2  A    between atoms: O_2  and  C_13
REMARK    3  A    between atoms: C_11  and  C_12
REMARK                            x       y       z     vdW  Elec       q    Type
REMARK                         _______ _______ _______ _____ _____    ______ ____
ROOT
ATOM      1  O   UNL     1      10.514   7.183  21.835  0.00  0.00    -0.376 OA
ATOM      3  O   UNL     1      14.680   6.974  19.052  0.00  0.00    -0.270 OA
ATOM      4  N   UNL     1      12.628   7.863  19.756  0.00  0.00    -0.293 N 
ATOM      6  C   UNL     1      11.718   9.356  21.500  0.00  0.00    +0.161 C 
ATOM      7  C   UNL     1      11.769   9.032  20.008  0.00  0.00    +0.142 C 
ATOM      8  C   UNL     1      12.069   6.555  20.107  0.00  0.00    +0.136 C 
ATOM      9  C   UNL     1      10.701   8.520  22.282  0.00  0.00    +0.193 C 
ATOM     10  C   UNL     1      11.711   6.453  21.586  0.00  0.00    +0.179 C 
ATOM     11  C   UNL     1      13.930   7.931  19.244  0.00  0.00    +0.248 C 
ENDROOT
BRANCH  11  12
ATOM      5  N   UNL     1      14.797  10.984  17.248  0.00  0.00    -0.263 NA
ATOM     12  C   UNL     1      14.473   9.251  18.902  0.00  0.00    +0.055 A 
ATOM     14  C   UNL     1      15.151  10.014  19.846  0.00  0.00    +0.016 A 
ATOM     15  C   UNL     1      14.324   9.777  17.628  0.00  0.00    +0.123 A 
ATOM     16  C   UNL     1      15.653  11.262  19.493  0.00  0.00    +0.020 A 
ATOM     17  C   UNL     1      15.451  11.698  18.193  0.00  0.00    +0.111 A 
ENDBRANCH  11  12
BRANCH   6   2
ATOM      2  O   UNL     1      11.400  10.738  21.660  0.00  0.00    -0.376 OA
ATOM     13  C   UNL     1      11.055  11.035  23.004  0.00  0.00    +0.194 C 
ENDBRANCH   6   2
TORSDOF 2
ENDMDL
MODEL 4
REMARK VINA RESULT:      -5.0     31.269     32.131
REMARK  Name = 75536881
REMARK  3 active torsions:
REMARK  status: ('A' for Active; 'I' for Inactive)
REMARK    1  A    between atoms: O_2  and  C_6
REMARK    2  A    between atoms: O_2  and  C_13
REMARK    3  A    between atoms: C_11  and  C_12
REMARK                            x       y       z     vdW  Elec       q    Type
REMARK                         _______ _______ _______ _____ _____    ______ ____
ROOT
ATOM      1  O   UNL     1     -15.375   0.103  29.127  0.00  0.00    -0.376 OA
ATOM      3  O   UNL     1     -14.705   1.497  33.897  0.00  0.00    -0.270 OA
ATOM      4  N   UNL     1     -14.676   1.777  31.569  0.00  0.00    -0.293 N 
ATOM      6  C   UNL     1     -16.197   2.395  29.724  0.00  0.00    +0.161 C 
ATOM      7  C   UNL     1     -14.844   2.643  30.390  0.00  0.00    +0.142 C 
ATOM      8  C   UNL     1     -14.381   0.366  31.304  0.00  0.00    +0.136 C 
ATOM      9  C   UNL     1     -16.205   1.200  28.766  0.00  0.00    +0.193 C 
ATOM     10  C   UNL     1     -15.473  -0.313  30.484  0.00  0.00    +0.179 C 
ATOM     11  C   UNL     1     -14.811   2.206  32.896  0.00  0.00    +0.248 C 
ENDROOT
BRANCH  11  12
ATOM      5  N   UNL     1     -14.303   5.883  33.421  0.00  0.00    -0.263 NA
ATOM     12  C   UNL     1     -15.110   3.622  33.140  0.00  0.00    +0.055 A 
ATOM     14  C   UNL     1     -16.418   4.058  33.314  0.00  0.00    +0.016 A 
ATOM     15  C   UNL     1     -14.097   4.566  33.202  0.00  0.00    +0.123 A 
ATOM     16  C   UNL     1     -16.671   5.407  33.543  0.00  0.00    +0.020 A 
ATOM     17  C   UNL     1     -15.588   6.271  33.586  0.00  0.00    +0.111 A 
ENDBRANCH  11  12
BRANCH   6   2
ATOM      2  O   UNL     1     -16.576   3.567  29.004  0.00  0.00    -0.376 OA
ATOM     13  C   UNL     1     -16.175   4.744  29.688  0.00  0.00    +0.194 C 
ENDBRANCH   6   2
TORSDOF 2
ENDMDL
MODEL 5
REMARK VINA RESULT:      -4.9      2.697      4.466
REMARK  Name = 75536881
REMARK  3 active torsions:
REMARK  status: ('A' for Active; 'I' for Inactive)
REMARK    1  A    between atoms: O_2  and  C_6
REMARK    2  A    between atoms: O_2  and  C_13
REMARK    3  A    between atoms: C_11  and  C_12
REMARK                            x       y       z     vdW  Elec       q    Type
REMARK                         _______ _______ _______ _____ _____    ______ ____
ROOT
ATOM      1  O   UNL     1      12.436   7.032  18.209  0.00  0.00    -0.376 OA
ATOM      3  O   UNL     1      13.718  11.739  19.369  0.00  0.00    -0.270 OA
ATOM      4  N   UNL     1      12.369   9.822  19.420  0.00  0.00    -0.293 N 
ATOM      6  C   UNL     1      12.193   7.671  20.621  0.00  0.00    +0.161 C 
ATOM      7  C   UNL     1      11.459   8.927  20.155  0.00  0.00    +0.142 C 
ATOM      8  C   UNL     1      12.720   9.419  18.056  0.00  0.00    +0.136 C 
ATOM      9  C   UNL     1      12.297   6.581  19.551  0.00  0.00    +0.193 C 
ATOM     10  C   UNL     1      13.404   8.056  18.010  0.00  0.00    +0.179 C 
ATOM     11  C   UNL     1      12.932  10.990  19.950  0.00  0.00    +0.248 C 
ENDROOT
BRANCH  11  12
ATOM      5  N   UNL     1      13.091  11.337  23.680  0.00  0.00    -0.263 NA
ATOM     12  C   UNL     1      12.571  11.375  21.319  0.00  0.00    +0.055 A 
ATOM     14  C   UNL     1      11.422  12.114  21.577  0.00  0.00    +0.016 A 
ATOM     15  C   UNL     1      13.365  11.014  22.397  0.00  0.00    +0.123 A 
ATOM     16  C   UNL     1      11.106  12.465  22.885  0.00  0.00    +0.020 A 
ATOM     17  C   UNL     1      11.965  12.056  23.892  0.00  0.00    +0.111 A 
ENDBRANCH  11  12
BRANCH   6   2
ATOM      2  O   UNL     1      11.515   7.138  21.759  0.00  0.00    -0.376 OA
ATOM     13  C   UNL     1      10.699   8.120  22.377  0.00  0.00    +0.194 C 
ENDBRANCH   6   2
TORSDOF 2
ENDMDL
MODEL 6
REMARK VINA RESULT:      -4.8     25.568     27.503
REMARK  Name = 75536881
REMARK  3 active torsions:
REMARK  status: ('A' for Active; 'I' for Inactive)
REMARK    1  A    between atoms: O_2  and  C_6
REMARK    2  A    between atoms: O_2  and  C_13
REMARK    3  A    between atoms: C_11  and  C_12
REMARK                            x       y       z     vdW  Elec       q    Type
REMARK                         _______ _______ _______ _____ _____    ______ ____
ROOT
ATOM      1  O   UNL     1      -2.796 -10.587  14.162  0.00  0.00    -0.376 OA
ATOM      3  O   UNL     1      -3.299 -12.007  18.944  0.00  0.00    -0.270 OA
ATOM      4  N   UNL     1      -3.883 -10.850  16.991  0.00  0.00    -0.293 N 
ATOM      6  C   UNL     1      -5.116 -11.210  14.881  0.00  0.00    +0.161 C 
ATOM      7  C   UNL     1      -4.919 -10.306  16.097  0.00  0.00    +0.142 C 
ATOM      8  C   UNL     1      -2.495 -10.697  16.548  0.00  0.00    +0.136 C 
ATOM      9  C   UNL     1      -4.107 -10.963  13.756  0.00  0.00    +0.193 C 
ATOM     10  C   UNL     1      -2.234 -11.374  15.206  0.00  0.00    +0.179 C 
ATOM     11  C   UNL     1      -4.143 -11.518  18.194  0.00  0.00    +0.248 C 
ENDROOT
BRANCH  11  12
ATOM      5  N   UNL     1      -7.404 -10.824  19.911  0.00  0.00    -0.263 NA
ATOM     12  C   UNL     1      -5.541 -11.663  18.619  0.00  0.00    +0.055 A 
ATOM     14  C   UNL     1      -6.322 -12.719  18.165  0.00  0.00    +0.016 A 
ATOM     15  C   UNL     1      -6.124 -10.749  19.484  0.00  0.00    +0.123 A 
ATOM     16  C   UNL     1      -7.644 -12.830  18.583  0.00  0.00    +0.020 A 
ATOM     17  C   UNL     1      -8.133 -11.865  19.449  0.00  0.00    +0.111 A 
ENDBRANCH  11  12
BRANCH   6   2
ATOM      2  O   UNL     1      -6.434 -11.015  14.371  0.00  0.00    -0.376 OA
ATOM     13  C   UNL     1      -6.485  -9.903  13.491  0.00  0.00    +0.194 C 
ENDBRANCH   6   2
TORSDOF 2
ENDMDL
MODEL 7
REMARK VINA RESULT:      -4.7     23.311     24.969
REMARK  Name = 75536881
REMARK  3 active torsions:
REMARK  status: ('A' for Active; 'I' for Inactive)
REMARK    1  A    between atoms: O_2  and  C_6
REMARK    2  A    between atoms: O_2  and  C_13
REMARK    3  A    between atoms: C_11  and  C_12
REMARK                            x       y       z     vdW  Elec       q    Type
REMARK                         _______ _______ _______ _____ _____    ______ ____
ROOT
ATOM      1  O   UNL     1     -10.216  12.511  17.889  0.00  0.00    -0.376 OA
ATOM      3  O   UNL     1     -10.887   7.579  17.277  0.00  0.00    -0.270 OA
ATOM      4  N   UNL     1     -10.628   9.561  18.504  0.00  0.00    -0.293 N 
ATOM      6  C   UNL     1     -11.977  11.458  19.329  0.00  0.00    +0.161 C 
ATOM      7  C   UNL     1     -10.958  10.376  19.685  0.00  0.00    +0.142 C 
ATOM      8  C   UNL     1      -9.750  10.179  17.509  0.00  0.00    +0.136 C 
ATOM      9  C   UNL     1     -11.357  12.715  18.713  0.00  0.00    +0.193 C 
ATOM     10  C   UNL     1     -10.337  11.464  16.933  0.00  0.00    +0.179 C 
ATOM     11  C   UNL     1     -11.122   8.270  18.268  0.00  0.00    +0.248 C 
ENDROOT
BRANCH  11  12
ATOM      5  N   UNL     1     -14.245   7.299  20.101  0.00  0.00    -0.263 NA
ATOM     12  C   UNL     1     -12.003   7.670  19.276  0.00  0.00    +0.055 A 
ATOM     14  C   UNL     1     -11.484   6.925  20.330  0.00  0.00    +0.016 A 
ATOM     15  C   UNL     1     -13.379   7.826  19.208  0.00  0.00    +0.123 A 
ATOM     16  C   UNL     1     -12.344   6.367  21.269  0.00  0.00    +0.020 A 
ATOM     17  C   UNL     1     -13.704   6.580  21.112  0.00  0.00    +0.111 A 
ENDBRANCH  11  12
BRANCH   6   2
ATOM      2  O   UNL     1     -12.689  11.825  20.511  0.00  0.00    -0.376 OA
ATOM     13  C   UNL     1     -12.659  10.783  21.474  0.00  0.00    +0.194 C 
ENDBRANCH   6   2
TORSDOF 2
ENDMDL
MODEL 8
REMARK VINA RESULT:      -4.6     30.519     31.691
REMARK  Name = 75536881
REMARK  3 active torsions:
REMARK  status: ('A' for Active; 'I' for Inactive)
REMARK    1  A    between atoms: O_2  and  C_6
REMARK    2  A    between atoms: O_2  and  C_13
REMARK    3  A    between atoms: C_11  and  C_12
REMARK                            x       y       z     vdW  Elec       q    Type
REMARK                         _______ _______ _______ _____ _____    ______ ____
ROOT
ATOM      1  O   UNL     1     -13.856   3.806  32.661  0.00  0.00    -0.376 OA
ATOM      3  O   UNL     1     -17.692   4.534  29.515  0.00  0.00    -0.270 OA
ATOM      4  N   UNL     1     -15.507   3.924  30.109  0.00  0.00    -0.293 N 
ATOM      6  C   UNL     1     -14.267   1.980  30.993  0.00  0.00    +0.161 C 
ATOM      7  C   UNL     1     -14.332   3.060  29.914  0.00  0.00    +0.142 C 
ATOM      8  C   UNL     1     -15.426   4.900  31.199  0.00  0.00    +0.136 C 
ATOM      9  C   UNL     1     -13.624   2.450  32.302  0.00  0.00    +0.193 C 
ATOM     10  C   UNL     1     -15.208   4.240  32.556  0.00  0.00    +0.179 C 
ATOM     11  C   UNL     1     -16.685   3.846  29.353  0.00  0.00    +0.248 C 
ENDROOT
BRANCH  11  12
ATOM      5  N   UNL     1     -17.268   0.610  27.551  0.00  0.00    -0.263 NA
ATOM     12  C   UNL     1     -16.747   2.859  28.268  0.00  0.00    +0.055 A 
ATOM     14  C   UNL     1     -16.372   3.194  26.972  0.00  0.00    +0.016 A 
ATOM     15  C   UNL     1     -17.185   1.565  28.504  0.00  0.00    +0.123 A 
ATOM     16  C   UNL     1     -16.443   2.238  25.965  0.00  0.00    +0.020 A 
ATOM     17  C   UNL     1     -16.894   0.972  26.303  0.00  0.00    +0.111 A 
ENDBRANCH  11  12
BRANCH   6   2
ATOM      2  O   UNL     1     -13.527   0.869  30.488  0.00  0.00    -0.376 OA
ATOM     13  C   UNL     1     -14.374  -0.243  30.241  0.00  0.00    +0.194 C 
ENDBRANCH   6   2
TORSDOF 2
ENDMDL
MODEL 9
REMARK VINA RESULT:      -4.5     25.768     27.243
REMARK  Name = 75536881
REMARK  3 active torsions:
REMARK  status: ('A' for Active; 'I' for Inactive)
REMARK    1  A    between atoms: O_2  and  C_6
REMARK    2  A    between atoms: O_2  and  C_13
REMARK    3  A    between atoms: C_11  and  C_12
REMARK                            x       y       z     vdW  Elec       q    Type
REMARK                         _______ _______ _______ _____ _____    ______ ____
ROOT
ATOM      1  O   UNL     1      -4.215 -11.000  15.937  0.00  0.00    -0.376 OA
ATOM      3  O   UNL     1      -1.346 -10.658  11.839  0.00  0.00    -0.270 OA
ATOM      4  N   UNL     1      -3.288 -11.180  13.046  0.00  0.00    -0.293 N 
ATOM      6  C   UNL     1      -5.335 -10.086  13.889  0.00  0.00    +0.161 C 
ATOM      7  C   UNL     1      -4.756 -11.269  13.115  0.00  0.00    +0.142 C 
ATOM      8  C   UNL     1      -2.556 -11.515  14.270  0.00  0.00    +0.136 C 
ATOM      9  C   UNL     1      -5.317 -10.272  15.409  0.00  0.00    +0.193 C 
ATOM     10  C   UNL     1      -2.938 -10.615  15.441  0.00  0.00    +0.179 C 
ATOM     11  C   UNL     1      -2.570 -10.770  11.915  0.00  0.00    +0.248 C 
ENDROOT
BRANCH  11  12
ATOM      5  N   UNL     1      -4.582 -11.190   8.779  0.00  0.00    -0.263 NA
ATOM     12  C   UNL     1      -3.322 -10.436  10.700  0.00  0.00    +0.055 A 
ATOM     14  C   UNL     1      -3.500  -9.114  10.308  0.00  0.00    +0.016 A 
ATOM     15  C   UNL     1      -3.878 -11.429   9.907  0.00  0.00    +0.123 A 
ATOM     16  C   UNL     1      -4.219  -8.828   9.152  0.00  0.00    +0.020 A 
ATOM     17  C   UNL     1      -4.735  -9.892   8.429  0.00  0.00    +0.111 A 
ENDBRANCH  11  12
BRANCH   6   2
ATOM      2  O   UNL     1      -6.682  -9.875  13.466  0.00  0.00    -0.376 OA
ATOM     13  C   UNL     1      -6.728  -9.253  12.192  0.00  0.00    +0.194 C 
ENDBRANCH   6   2
TORSDOF 2
ENDMDL
MODEL 10
REMARK VINA RESULT:      -4.5     25.269     27.026
REMARK  Name = 75536881
REMARK  3 active torsions:
REMARK  status: ('A' for Active; 'I' for Inactive)
REMARK    1  A    between atoms: O_2  and  C_6
REMARK    2  A    between atoms: O_2  and  C_13
REMARK    3  A    between atoms: C_11  and  C_12
REMARK                            x       y       z     vdW  Elec       q    Type
REMARK                         _______ _______ _______ _____ _____    ______ ____
ROOT
ATOM      1  O   UNL     1      -2.532 -11.170  11.426  0.00  0.00    -0.376 OA
ATOM      3  O   UNL     1      -6.483 -12.490  14.217  0.00  0.00    -0.270 OA
ATOM      4  N   UNL     1      -4.203 -12.221  13.740  0.00  0.00    -0.293 N 
ATOM      6  C   UNL     1      -2.448 -10.487  13.837  0.00  0.00    +0.161 C 
ATOM      7  C   UNL     1      -2.836 -11.920  14.197  0.00  0.00    +0.142 C 
ATOM      8  C   UNL     1      -4.376 -12.446  12.303  0.00  0.00    +0.136 C 
ATOM      9  C   UNL     1      -1.935 -10.326  12.403  0.00  0.00    +0.193 C 
ATOM     10  C   UNL     1      -3.953 -11.241  11.470  0.00  0.00    +0.179 C 
ATOM     11  C   UNL     1      -5.327 -12.270  14.577  0.00  0.00    +0.248 C 
ENDROOT
BRANCH  11  12
ATOM      5  N   UNL     1      -4.732 -12.952  18.215  0.00  0.00    -0.263 NA
ATOM     12  C   UNL     1      -5.133 -12.039  16.013  0.00  0.00    +0.055 A 
ATOM     14  C   UNL     1      -5.157 -10.754  16.542  0.00  0.00    +0.016 A 
ATOM     15  C   UNL     1      -4.919 -13.096  16.885  0.00  0.00    +0.123 A 
ATOM     16  C   UNL     1      -4.969 -10.565  17.907  0.00  0.00    +0.020 A 
ATOM     17  C   UNL     1      -4.761 -11.687  18.694  0.00  0.00    +0.111 A 
ENDBRANCH  11  12
BRANCH   6   2
ATOM      2  O   UNL     1      -1.436 -10.044  14.742  0.00  0.00    -0.376 OA
ATOM     13  C   UNL     1      -1.492 -10.760  15.966  0.00  0.00    +0.194 C 
ENDBRANCH   6   2
TORSDOF 2
ENDMDL
