MODEL 1
REMARK VINA RESULT:      -7.4      0.000      0.000
REMARK  Name = 7143818
REMARK  5 active torsions:
REMARK  status: ('A' for Active; 'I' for Inactive)
REMARK    1  A    between atoms: S_1  and  N_7
REMARK    2  A    between atoms: S_1  and  C_20
REMARK    3  A    between atoms: O_6  and  C_27
REMARK    4  A    between atoms: O_6  and  C_30
REMARK    5  A    between atoms: C_18  and  C_21
REMARK                            x       y       z     vdW  Elec       q    Type
REMARK                         _______ _______ _______ _____ _____    ______ ____
ROOT
ATOM      4  O   UNL     1      13.908  11.233  22.581  0.00  0.00    -0.267 OA
ATOM      7  N   UNL     1      13.504   8.207  18.640  0.00  0.00    -0.176 NA
ATOM      8  N   UNL     1      13.521   9.123  21.664  0.00  0.00    -0.311 N 
ATOM      9  C   UNL     1      15.303   7.850  20.334  0.00  0.00    +0.025 C 
ATOM     10  C   UNL     1      13.089   6.846  20.679  0.00  0.00    +0.052 C 
ATOM     11  C   UNL     1      14.587   6.604  20.840  0.00  0.00    +0.017 C 
ATOM     12  C   UNL     1      14.975   8.098  18.853  0.00  0.00    +0.114 C 
ATOM     13  C   UNL     1      12.755   7.037  19.189  0.00  0.00    +0.119 C 
ATOM     14  C   UNL     1      14.921   9.039  21.226  0.00  0.00    +0.130 C 
ATOM     15  C   UNL     1      12.641   8.054  21.479  0.00  0.00    +0.026 A 
ATOM     16  C   UNL     1      11.400   8.109  21.991  0.00  0.00    +0.022 A 
ATOM     17  C   UNL     1      13.148  10.285  22.367  0.00  0.00    +0.262 A 
ATOM     18  C   UNL     1      11.740  10.331  22.897  0.00  0.00    +0.082 A 
ATOM     19  C   UNL     1      10.946   9.268  22.703  0.00  0.00    +0.018 A 
ENDROOT
BRANCH  18  21
ATOM      5  O   UNL     1      10.803  12.637  22.954  0.00  0.00    -0.463 OA
ATOM     21  C   UNL     1      11.230  11.518  23.607  0.00  0.00    +0.140 A 
ATOM     26  C   UNL     1      11.101  11.694  24.972  0.00  0.00    +0.050 A 
ATOM     28  C   UNL     1      10.567  12.989  25.161  0.00  0.00    +0.042 A 
ATOM     29  C   UNL     1      10.402  13.523  23.903  0.00  0.00    +0.196 A 
ENDBRANCH  18  21
BRANCH   7   1
ATOM      1  S   UNL     1      13.018   8.735  17.087  0.00  0.00    +0.061 S 
ATOM      2  O   UNL     1      11.573   8.691  17.002  0.00  0.00    -0.153 OA
ATOM      3  O   UNL     1      13.843   8.085  16.090  0.00  0.00    -0.153 OA
BRANCH   1  20
ATOM     20  C   UNL     1      13.502  10.430  17.171  0.00  0.00    +0.106 A 
ATOM     22  C   UNL     1      13.324  11.129  18.353  0.00  0.00    +0.032 A 
ATOM     23  C   UNL     1      14.053  11.034  16.051  0.00  0.00    +0.032 A 
ATOM     24  C   UNL     1      13.707  12.469  18.418  0.00  0.00    +0.047 A 
ATOM     25  C   UNL     1      14.436  12.374  16.117  0.00  0.00    +0.047 A 
ATOM     27  C   UNL     1      14.263  13.091  17.301  0.00  0.00    +0.120 A 
BRANCH  27   6
ATOM      6  O   UNL     1      14.637  14.398  17.365  0.00  0.00    -0.495 OA
ATOM     30  C   UNL     1      14.386  15.086  18.589  0.00  0.00    +0.277 C 
ENDBRANCH  27   6
ENDBRANCH   1  20
ENDBRANCH   7   1
TORSDOF 4
ENDMDL
MODEL 2
REMARK VINA RESULT:      -7.0      1.865      2.617
REMARK  Name = 7143818
REMARK  5 active torsions:
REMARK  status: ('A' for Active; 'I' for Inactive)
REMARK    1  A    between atoms: S_1  and  N_7
REMARK    2  A    between atoms: S_1  and  C_20
REMARK    3  A    between atoms: O_6  and  C_27
REMARK    4  A    between atoms: O_6  and  C_30
REMARK    5  A    between atoms: C_18  and  C_21
REMARK                            x       y       z     vdW  Elec       q    Type
REMARK                         _______ _______ _______ _____ _____    ______ ____
ROOT
ATOM      4  O   UNL     1      15.183  10.068  22.618  0.00  0.00    -0.267 OA
ATOM      7  N   UNL     1      12.286   8.154  19.042  0.00  0.00    -0.176 NA
ATOM      8  N   UNL     1      13.113   9.298  21.869  0.00  0.00    -0.311 N 
ATOM      9  C   UNL     1      12.726   6.873  21.139  0.00  0.00    +0.025 C 
ATOM     10  C   UNL     1      10.872   8.481  21.061  0.00  0.00    +0.052 C 
ATOM     11  C   UNL     1      11.293   7.115  21.594  0.00  0.00    +0.017 C 
ATOM     12  C   UNL     1      12.815   6.879  19.605  0.00  0.00    +0.114 C 
ATOM     13  C   UNL     1      10.907   8.467  19.522  0.00  0.00    +0.119 C 
ATOM     14  C   UNL     1      13.636   7.927  21.784  0.00  0.00    +0.130 C 
ATOM     15  C   UNL     1      11.772   9.578  21.599  0.00  0.00    +0.026 A 
ATOM     16  C   UNL     1      11.290  10.816  21.796  0.00  0.00    +0.022 A 
ATOM     17  C   UNL     1      14.003  10.285  22.336  0.00  0.00    +0.262 A 
ATOM     18  C   UNL     1      13.442  11.671  22.512  0.00  0.00    +0.082 A 
ATOM     19  C   UNL     1      12.143  11.876  22.253  0.00  0.00    +0.018 A 
ENDROOT
BRANCH  18  21
ATOM      5  O   UNL     1      15.195  13.396  22.122  0.00  0.00    -0.463 OA
ATOM     21  C   UNL     1      14.296  12.789  22.950  0.00  0.00    +0.140 A 
ATOM     26  C   UNL     1      14.332  13.385  24.197  0.00  0.00    +0.050 A 
ATOM     28  C   UNL     1      15.305  14.409  24.125  0.00  0.00    +0.042 A 
ATOM     29  C   UNL     1      15.801  14.376  22.842  0.00  0.00    +0.196 A 
ENDBRANCH  18  21
BRANCH   7   1
ATOM      1  S   UNL     1      12.560   8.396  17.371  0.00  0.00    +0.061 S 
ATOM      2  O   UNL     1      11.286   8.498  16.691  0.00  0.00    -0.153 OA
ATOM      3  O   UNL     1      13.572   7.462  16.921  0.00  0.00    -0.153 OA
BRANCH   1  20
ATOM     20  C   UNL     1      13.284  10.005  17.405  0.00  0.00    +0.106 A 
ATOM     22  C   UNL     1      13.838  10.524  16.246  0.00  0.00    +0.032 A 
ATOM     23  C   UNL     1      13.287  10.722  18.591  0.00  0.00    +0.032 A 
ATOM     24  C   UNL     1      14.411  11.796  16.274  0.00  0.00    +0.047 A 
ATOM     25  C   UNL     1      13.860  11.994  18.618  0.00  0.00    +0.047 A 
ATOM     27  C   UNL     1      14.421  12.531  17.460  0.00  0.00    +0.120 A 
BRANCH  27   6
ATOM      6  O   UNL     1      14.979  13.773  17.487  0.00  0.00    -0.495 OA
ATOM     30  C   UNL     1      15.849  14.070  18.577  0.00  0.00    +0.277 C 
ENDBRANCH  27   6
ENDBRANCH   1  20
ENDBRANCH   7   1
TORSDOF 4
ENDMDL
MODEL 3
REMARK VINA RESULT:      -7.0      2.805      5.582
REMARK  Name = 7143818
REMARK  5 active torsions:
REMARK  status: ('A' for Active; 'I' for Inactive)
REMARK    1  A    between atoms: S_1  and  N_7
REMARK    2  A    between atoms: S_1  and  C_20
REMARK    3  A    between atoms: O_6  and  C_27
REMARK    4  A    between atoms: O_6  and  C_30
REMARK    5  A    between atoms: C_18  and  C_21
REMARK                            x       y       z     vdW  Elec       q    Type
REMARK                         _______ _______ _______ _____ _____    ______ ____
ROOT
ATOM      4  O   UNL     1      15.969  11.815  19.940  0.00  0.00    -0.267 OA
ATOM      7  N   UNL     1      12.792   7.975  19.889  0.00  0.00    -0.176 NA
ATOM      8  N   UNL     1      15.495   9.569  19.527  0.00  0.00    -0.311 N 
ATOM      9  C   UNL     1      13.793   8.820  17.764  0.00  0.00    +0.025 C 
ATOM     10  C   UNL     1      14.993   7.140  19.093  0.00  0.00    +0.052 C 
ATOM     11  C   UNL     1      14.656   7.569  17.668  0.00  0.00    +0.017 C 
ATOM     12  C   UNL     1      12.496   8.525  18.535  0.00  0.00    +0.114 C 
ATOM     13  C   UNL     1      13.697   6.788  19.845  0.00  0.00    +0.119 C 
ATOM     14  C   UNL     1      14.616   9.943  18.410  0.00  0.00    +0.130 C 
ATOM     15  C   UNL     1      15.751   8.229  19.827  0.00  0.00    +0.026 A 
ATOM     16  C   UNL     1      16.647   7.912  20.776  0.00  0.00    +0.022 A 
ATOM     17  C   UNL     1      16.142  10.623  20.201  0.00  0.00    +0.262 A 
ATOM     18  C   UNL     1      17.114  10.236  21.283  0.00  0.00    +0.082 A 
ATOM     19  C   UNL     1      17.332   8.933  21.515  0.00  0.00    +0.018 A 
ENDROOT
BRANCH  18  21
ATOM      5  O   UNL     1      17.195  11.957  23.080  0.00  0.00    -0.463 OA
ATOM     21  C   UNL     1      17.812  11.258  22.084  0.00  0.00    +0.140 A 
ATOM     26  C   UNL     1      19.129  11.661  21.975  0.00  0.00    +0.050 A 
ATOM     28  C   UNL     1      19.327  12.659  22.957  0.00  0.00    +0.042 A 
ATOM     29  C   UNL     1      18.121  12.803  23.604  0.00  0.00    +0.196 A 
ENDBRANCH  18  21
BRANCH   7   1
ATOM      1  S   UNL     1      11.449   7.843  20.942  0.00  0.00    +0.061 S 
ATOM      2  O   UNL     1      11.578   6.631  21.724  0.00  0.00    -0.153 OA
ATOM      3  O   UNL     1      10.239   8.124  20.199  0.00  0.00    -0.153 OA
BRANCH   1  20
ATOM     20  C   UNL     1      11.759   9.212  22.012  0.00  0.00    +0.106 A 
ATOM     22  C   UNL     1      13.031   9.757  22.065  0.00  0.00    +0.032 A 
ATOM     23  C   UNL     1      10.723   9.718  22.782  0.00  0.00    +0.032 A 
ATOM     24  C   UNL     1      13.275  10.839  22.911  0.00  0.00    +0.047 A 
ATOM     25  C   UNL     1      10.968  10.800  23.628  0.00  0.00    +0.047 A 
ATOM     27  C   UNL     1      12.244  11.361  23.692  0.00  0.00    +0.120 A 
BRANCH  27   6
ATOM      6  O   UNL     1      12.482  12.417  24.517  0.00  0.00    -0.495 OA
ATOM     30  C   UNL     1      11.396  12.870  25.323  0.00  0.00    +0.277 C 
ENDBRANCH  27   6
ENDBRANCH   1  20
ENDBRANCH   7   1
TORSDOF 4
ENDMDL
MODEL 4
REMARK VINA RESULT:      -6.7     25.159     26.932
REMARK  Name = 7143818
REMARK  5 active torsions:
REMARK  status: ('A' for Active; 'I' for Inactive)
REMARK    1  A    between atoms: S_1  and  N_7
REMARK    2  A    between atoms: S_1  and  C_20
REMARK    3  A    between atoms: O_6  and  C_27
REMARK    4  A    between atoms: O_6  and  C_30
REMARK    5  A    between atoms: C_18  and  C_21
REMARK                            x       y       z     vdW  Elec       q    Type
REMARK                         _______ _______ _______ _____ _____    ______ ____
ROOT
ATOM      4  O   UNL     1     -14.891   9.209  19.844  0.00  0.00    -0.267 OA
ATOM      7  N   UNL     1     -11.372   9.508  16.326  0.00  0.00    -0.176 NA
ATOM      8  N   UNL     1     -12.655   9.412  19.212  0.00  0.00    -0.311 N 
ATOM      9  C   UNL     1     -11.775  11.418  17.883  0.00  0.00    +0.025 C 
ATOM     10  C   UNL     1     -10.238   9.618  18.536  0.00  0.00    +0.052 C 
ATOM     11  C   UNL     1     -10.457  11.127  18.589  0.00  0.00    +0.017 C 
ATOM     12  C   UNL     1     -11.718  10.955  16.418  0.00  0.00    +0.114 C 
ATOM     13  C   UNL     1     -10.123   9.165  17.069  0.00  0.00    +0.119 C 
ATOM     14  C   UNL     1     -12.915  10.751  18.664  0.00  0.00    +0.130 C 
ATOM     15  C   UNL     1     -11.365   8.877  19.229  0.00  0.00    +0.026 A 
ATOM     16  C   UNL     1     -11.132   7.703  19.840  0.00  0.00    +0.022 A 
ATOM     17  C   UNL     1     -13.747   8.752  19.809  0.00  0.00    +0.262 A 
ATOM     18  C   UNL     1     -13.460   7.422  20.453  0.00  0.00    +0.082 A 
ATOM     19  C   UNL     1     -12.199   6.966  20.454  0.00  0.00    +0.018 A 
ENDROOT
BRANCH  18  21
ATOM      5  O   UNL     1     -15.589   6.135  20.347  0.00  0.00    -0.463 OA
ATOM     21  C   UNL     1     -14.537   6.623  21.065  0.00  0.00    +0.140 A 
ATOM     26  C   UNL     1     -14.661   6.250  22.391  0.00  0.00    +0.050 A 
ATOM     28  C   UNL     1     -15.853   5.494  22.485  0.00  0.00    +0.042 A 
ATOM     29  C   UNL     1     -16.381   5.452  21.215  0.00  0.00    +0.196 A 
ENDBRANCH  18  21
BRANCH   7   1
ATOM      1  S   UNL     1     -11.525   8.808  14.772  0.00  0.00    +0.061 S 
ATOM      2  O   UNL     1     -10.597   7.703  14.657  0.00  0.00    -0.153 OA
ATOM      3  O   UNL     1     -11.554   9.863  13.782  0.00  0.00    -0.153 OA
BRANCH   1  20
ATOM     20  C   UNL     1     -13.153   8.135  14.895  0.00  0.00    +0.106 A 
ATOM     22  C   UNL     1     -13.840   8.236  16.093  0.00  0.00    +0.032 A 
ATOM     23  C   UNL     1     -13.715   7.516  13.789  0.00  0.00    +0.032 A 
ATOM     24  C   UNL     1     -15.126   7.703  16.189  0.00  0.00    +0.047 A 
ATOM     25  C   UNL     1     -15.001   6.983  13.886  0.00  0.00    +0.047 A 
ATOM     27  C   UNL     1     -15.706   7.078  15.086  0.00  0.00    +0.120 A 
BRANCH  27   6
ATOM      6  O   UNL     1     -16.962   6.559  15.179  0.00  0.00    -0.495 OA
ATOM     30  C   UNL     1     -17.075   5.138  15.228  0.00  0.00    +0.277 C 
ENDBRANCH  27   6
ENDBRANCH   1  20
ENDBRANCH   7   1
TORSDOF 4
ENDMDL
MODEL 5
REMARK VINA RESULT:      -6.5     14.716     18.430
REMARK  Name = 7143818
REMARK  5 active torsions:
REMARK  status: ('A' for Active; 'I' for Inactive)
REMARK    1  A    between atoms: S_1  and  N_7
REMARK    2  A    between atoms: S_1  and  C_20
REMARK    3  A    between atoms: O_6  and  C_27
REMARK    4  A    between atoms: O_6  and  C_30
REMARK    5  A    between atoms: C_18  and  C_21
REMARK                            x       y       z     vdW  Elec       q    Type
REMARK                         _______ _______ _______ _____ _____    ______ ____
ROOT
ATOM      4  O   UNL     1      10.350   6.818   1.133  0.00  0.00    -0.267 OA
ATOM      7  N   UNL     1      11.489   7.116   5.976  0.00  0.00    -0.176 NA
ATOM      8  N   UNL     1      10.052   6.129   3.341  0.00  0.00    -0.311 N 
ATOM      9  C   UNL     1       9.199   7.703   5.174  0.00  0.00    +0.025 C 
ATOM     10  C   UNL     1       9.737   5.371   5.722  0.00  0.00    +0.052 C 
ATOM     11  C   UNL     1       8.646   6.434   5.809  0.00  0.00    +0.017 C 
ATOM     12  C   UNL     1      10.450   8.184   5.927  0.00  0.00    +0.114 C 
ATOM     13  C   UNL     1      10.968   5.829   6.525  0.00  0.00    +0.119 C 
ATOM     14  C   UNL     1       9.476   7.436   3.689  0.00  0.00    +0.130 C 
ATOM     15  C   UNL     1      10.120   5.097   4.280  0.00  0.00    +0.026 A 
ATOM     16  C   UNL     1      10.543   3.877   3.909  0.00  0.00    +0.022 A 
ATOM     17  C   UNL     1      10.429   5.943   1.997  0.00  0.00    +0.262 A 
ATOM     18  C   UNL     1      10.932   4.575   1.620  0.00  0.00    +0.082 A 
ATOM     19  C   UNL     1      10.959   3.619   2.560  0.00  0.00    +0.018 A 
ENDROOT
BRANCH  18  21
ATOM      5  O   UNL     1      10.542   3.953  -0.759  0.00  0.00    -0.463 OA
ATOM     21  C   UNL     1      11.397   4.282   0.253  0.00  0.00    +0.140 A 
ATOM     26  C   UNL     1      12.697   4.291  -0.216  0.00  0.00    +0.050 A 
ATOM     28  C   UNL     1      12.632   3.949  -1.587  0.00  0.00    +0.042 A 
ATOM     29  C   UNL     1      11.300   3.754  -1.870  0.00  0.00    +0.196 A 
ENDBRANCH  18  21
BRANCH   7   1
ATOM      1  S   UNL     1      13.022   7.603   6.560  0.00  0.00    +0.061 S 
ATOM      2  O   UNL     1      13.530   6.589   7.460  0.00  0.00    -0.153 OA
ATOM      3  O   UNL     1      12.952   8.991   6.965  0.00  0.00    -0.153 OA
BRANCH   1  20
ATOM     20  C   UNL     1      13.962   7.520   5.068  0.00  0.00    +0.106 A 
ATOM     22  C   UNL     1      13.323   7.204   3.880  0.00  0.00    +0.032 A 
ATOM     23  C   UNL     1      15.325   7.773   5.110  0.00  0.00    +0.032 A 
ATOM     24  C   UNL     1      14.067   7.139   2.702  0.00  0.00    +0.047 A 
ATOM     25  C   UNL     1      16.068   7.707   3.931  0.00  0.00    +0.047 A 
ATOM     27  C   UNL     1      15.439   7.391   2.727  0.00  0.00    +0.120 A 
BRANCH  27   6
ATOM      6  O   UNL     1      16.164   7.328   1.577  0.00  0.00    -0.495 OA
ATOM     30  C   UNL     1      15.731   6.396   0.587  0.00  0.00    +0.277 C 
ENDBRANCH  27   6
ENDBRANCH   1  20
ENDBRANCH   7   1
TORSDOF 4
ENDMDL
MODEL 6
REMARK VINA RESULT:      -6.5     27.333     29.212
REMARK  Name = 7143818
REMARK  5 active torsions:
REMARK  status: ('A' for Active; 'I' for Inactive)
REMARK    1  A    between atoms: S_1  and  N_7
REMARK    2  A    between atoms: S_1  and  C_20
REMARK    3  A    between atoms: O_6  and  C_27
REMARK    4  A    between atoms: O_6  and  C_30
REMARK    5  A    between atoms: C_18  and  C_21
REMARK                            x       y       z     vdW  Elec       q    Type
REMARK                         _______ _______ _______ _____ _____    ______ ____
ROOT
ATOM      4  O   UNL     1      -7.812  -8.869  17.088  0.00  0.00    -0.267 OA
ATOM      7  N   UNL     1      -3.935 -11.681  15.707  0.00  0.00    -0.176 NA
ATOM      8  N   UNL     1      -6.717 -10.926  17.002  0.00  0.00    -0.311 N 
ATOM      9  C   UNL     1      -4.450 -11.330  18.125  0.00  0.00    +0.025 C 
ATOM     10  C   UNL     1      -5.546 -13.153  16.899  0.00  0.00    +0.052 C 
ATOM     11  C   UNL     1      -4.923 -12.773  18.239  0.00  0.00    +0.017 C 
ATOM     12  C   UNL     1      -3.401 -11.191  17.010  0.00  0.00    +0.114 C 
ATOM     13  C   UNL     1      -4.478 -13.069  15.793  0.00  0.00    +0.119 C 
ATOM     14  C   UNL     1      -5.668 -10.424  17.900  0.00  0.00    +0.130 C 
ATOM     15  C   UNL     1      -6.721 -12.253  16.567  0.00  0.00    +0.026 A 
ATOM     16  C   UNL     1      -7.751 -12.720  15.842  0.00  0.00    +0.022 A 
ATOM     17  C   UNL     1      -7.764 -10.035  16.693  0.00  0.00    +0.262 A 
ATOM     18  C   UNL     1      -8.886 -10.579  15.850  0.00  0.00    +0.082 A 
ATOM     19  C   UNL     1      -8.843 -11.866  15.476  0.00  0.00    +0.018 A 
ENDROOT
BRANCH  18  21
ATOM      5  O   UNL     1     -11.057  -9.427  16.251  0.00  0.00    -0.463 OA
ATOM     21  C   UNL     1     -10.008  -9.721  15.429  0.00  0.00    +0.140 A 
ATOM     26  C   UNL     1     -10.184  -9.102  14.206  0.00  0.00    +0.050 A 
ATOM     28  C   UNL     1     -11.405  -8.393  14.286  0.00  0.00    +0.042 A 
ATOM     29  C   UNL     1     -11.897  -8.622  15.550  0.00  0.00    +0.196 A 
ENDBRANCH  18  21
BRANCH   7   1
ATOM      1  S   UNL     1      -2.965 -11.348  14.338  0.00  0.00    +0.061 S 
ATOM      2  O   UNL     1      -2.589 -12.596  13.709  0.00  0.00    -0.153 OA
ATOM      3  O   UNL     1      -1.964 -10.365  14.698  0.00  0.00    -0.153 OA
BRANCH   1  20
ATOM     20  C   UNL     1      -4.153 -10.556  13.301  0.00  0.00    +0.106 A 
ATOM     22  C   UNL     1      -3.809 -10.233  11.999  0.00  0.00    +0.032 A 
ATOM     23  C   UNL     1      -5.412 -10.272  13.807  0.00  0.00    +0.032 A 
ATOM     24  C   UNL     1      -4.749  -9.607  11.179  0.00  0.00    +0.047 A 
ATOM     25  C   UNL     1      -6.351  -9.646  12.987  0.00  0.00    +0.047 A 
ATOM     27  C   UNL     1      -6.020  -9.314  11.673  0.00  0.00    +0.120 A 
BRANCH  27   6
ATOM      6  O   UNL     1      -6.937  -8.704  10.873  0.00  0.00    -0.495 OA
ATOM     30  C   UNL     1      -6.614  -8.584   9.489  0.00  0.00    +0.277 C 
ENDBRANCH  27   6
ENDBRANCH   1  20
ENDBRANCH   7   1
TORSDOF 4
ENDMDL
MODEL 7
REMARK VINA RESULT:      -6.4     14.823     18.114
REMARK  Name = 7143818
REMARK  5 active torsions:
REMARK  status: ('A' for Active; 'I' for Inactive)
REMARK    1  A    between atoms: S_1  and  N_7
REMARK    2  A    between atoms: S_1  and  C_20
REMARK    3  A    between atoms: O_6  and  C_27
REMARK    4  A    between atoms: O_6  and  C_30
REMARK    5  A    between atoms: C_18  and  C_21
REMARK                            x       y       z     vdW  Elec       q    Type
REMARK                         _______ _______ _______ _____ _____    ______ ____
ROOT
ATOM      4  O   UNL     1      12.102   7.555   5.141  0.00  0.00    -0.267 OA
ATOM      7  N   UNL     1      11.535   6.702   0.263  0.00  0.00    -0.176 NA
ATOM      8  N   UNL     1      12.226   6.137   3.293  0.00  0.00    -0.311 N 
ATOM      9  C   UNL     1      13.795   6.580   1.317  0.00  0.00    +0.025 C 
ATOM     10  C   UNL     1      12.347   4.596   1.305  0.00  0.00    +0.052 C 
ATOM     11  C   UNL     1      13.792   5.065   1.159  0.00  0.00    +0.017 C 
ATOM     12  C   UNL     1      12.926   7.238   0.234  0.00  0.00    +0.114 C 
ATOM     13  C   UNL     1      11.491   5.211   0.184  0.00  0.00    +0.119 C 
ATOM     14  C   UNL     1      13.329   6.932   2.736  0.00  0.00    +0.130 C 
ATOM     15  C   UNL     1      11.786   4.970   2.664  0.00  0.00    +0.026 A 
ATOM     16  C   UNL     1      10.857   4.198   3.250  0.00  0.00    +0.022 A 
ATOM     17  C   UNL     1      11.714   6.552   4.538  0.00  0.00    +0.262 A 
ATOM     18  C   UNL     1      10.649   5.685   5.153  0.00  0.00    +0.082 A 
ATOM     19  C   UNL     1      10.279   4.568   4.510  0.00  0.00    +0.018 A 
ENDROOT
BRANCH  18  21
ATOM      5  O   UNL     1       9.267   7.184   6.583  0.00  0.00    -0.463 OA
ATOM     21  C   UNL     1      10.011   6.050   6.431  0.00  0.00    +0.140 A 
ATOM     26  C   UNL     1      10.049   5.352   7.623  0.00  0.00    +0.050 A 
ATOM     28  C   UNL     1       9.289   6.100   8.551  0.00  0.00    +0.042 A 
ATOM     29  C   UNL     1       8.833   7.205   7.870  0.00  0.00    +0.196 A 
ENDBRANCH  18  21
BRANCH   7   1
ATOM      1  S   UNL     1      10.403   7.530  -0.718  0.00  0.00    +0.061 S 
ATOM      2  O   UNL     1       9.647   6.564  -1.487  0.00  0.00    -0.153 OA
ATOM      3  O   UNL     1      11.066   8.642  -1.365  0.00  0.00    -0.153 OA
BRANCH   1  20
ATOM     20  C   UNL     1       9.336   8.184   0.526  0.00  0.00    +0.106 A 
ATOM     22  C   UNL     1       8.354   9.093   0.168  0.00  0.00    +0.032 A 
ATOM     23  C   UNL     1       9.498   7.777   1.841  0.00  0.00    +0.032 A 
ATOM     24  C   UNL     1       7.511   9.610   1.151  0.00  0.00    +0.047 A 
ATOM     25  C   UNL     1       8.655   8.295   2.825  0.00  0.00    +0.047 A 
ATOM     27  C   UNL     1       7.661   9.211   2.480  0.00  0.00    +0.120 A 
BRANCH  27   6
ATOM      6  O   UNL     1       6.837   9.715   3.439  0.00  0.00    -0.495 OA
ATOM     30  C   UNL     1       7.283   9.622   4.791  0.00  0.00    +0.277 C 
ENDBRANCH  27   6
ENDBRANCH   1  20
ENDBRANCH   7   1
TORSDOF 4
ENDMDL
MODEL 8
REMARK VINA RESULT:      -6.2     22.120     25.178
REMARK  Name = 7143818
REMARK  5 active torsions:
REMARK  status: ('A' for Active; 'I' for Inactive)
REMARK    1  A    between atoms: S_1  and  N_7
REMARK    2  A    between atoms: S_1  and  C_20
REMARK    3  A    between atoms: O_6  and  C_27
REMARK    4  A    between atoms: O_6  and  C_30
REMARK    5  A    between atoms: C_18  and  C_21
REMARK                            x       y       z     vdW  Elec       q    Type
REMARK                         _______ _______ _______ _____ _____    ______ ____
ROOT
ATOM      4  O   UNL     1       9.249  -9.580  33.071  0.00  0.00    -0.267 OA
ATOM      7  N   UNL     1       7.979  -6.064  36.369  0.00  0.00    -0.176 NA
ATOM      8  N   UNL     1       8.575  -7.404  33.570  0.00  0.00    -0.311 N 
ATOM      9  C   UNL     1      10.015  -5.796  34.949  0.00  0.00    +0.025 C 
ATOM     10  C   UNL     1       7.832  -5.057  34.101  0.00  0.00    +0.052 C 
ATOM     11  C   UNL     1       9.317  -4.706  34.146  0.00  0.00    +0.017 C 
ATOM     12  C   UNL     1       9.456  -5.856  36.380  0.00  0.00    +0.114 C 
ATOM     13  C   UNL     1       7.261  -5.059  35.531  0.00  0.00    +0.119 C 
ATOM     14  C   UNL     1       9.870  -7.130  34.207  0.00  0.00    +0.130 C 
ATOM     15  C   UNL     1       7.608  -6.404  33.441  0.00  0.00    +0.026 A 
ATOM     16  C   UNL     1       6.480  -6.643  32.754  0.00  0.00    +0.022 A 
ATOM     17  C   UNL     1       8.404  -8.684  33.009  0.00  0.00    +0.262 A 
ATOM     18  C   UNL     1       7.114  -8.933  32.275  0.00  0.00    +0.082 A 
ATOM     19  C   UNL     1       6.231  -7.930  32.169  0.00  0.00    +0.018 A 
ENDROOT
BRANCH  18  21
ATOM      5  O   UNL     1       6.438 -11.324  32.446  0.00  0.00    -0.463 OA
ATOM     21  C   UNL     1       6.811 -10.251  31.689  0.00  0.00    +0.140 A 
ATOM     26  C   UNL     1       6.848 -10.610  30.355  0.00  0.00    +0.050 A 
ATOM     28  C   UNL     1       6.477 -11.974  30.295  0.00  0.00    +0.042 A 
ATOM     29  C   UNL     1       6.237 -12.362  31.593  0.00  0.00    +0.196 A 
ENDBRANCH  18  21
BRANCH   7   1
ATOM      1  S   UNL     1       7.270  -6.404  37.889  0.00  0.00    +0.061 S 
ATOM      2  O   UNL     1       6.634  -5.205  38.393  0.00  0.00    -0.153 OA
ATOM      3  O   UNL     1       8.219  -7.140  38.697  0.00  0.00    -0.153 OA
BRANCH   1  20
ATOM     20  C   UNL     1       5.997  -7.522  37.394  0.00  0.00    +0.106 A 
ATOM     22  C   UNL     1       4.842  -7.615  38.153  0.00  0.00    +0.032 A 
ATOM     23  C   UNL     1       6.175  -8.290  36.253  0.00  0.00    +0.032 A 
ATOM     24  C   UNL     1       3.837  -8.499  37.761  0.00  0.00    +0.047 A 
ATOM     25  C   UNL     1       5.169  -9.174  35.862  0.00  0.00    +0.047 A 
ATOM     27  C   UNL     1       4.000  -9.278  36.616  0.00  0.00    +0.120 A 
BRANCH  27   6
ATOM      6  O   UNL     1       3.019 -10.141  36.233  0.00  0.00    -0.495 OA
ATOM     30  C   UNL     1       1.672  -9.692  36.367  0.00  0.00    +0.277 C 
ENDBRANCH  27   6
ENDBRANCH   1  20
ENDBRANCH   7   1
TORSDOF 4
ENDMDL
MODEL 9
REMARK VINA RESULT:      -6.2     14.372     17.905
REMARK  Name = 7143818
REMARK  5 active torsions:
REMARK  status: ('A' for Active; 'I' for Inactive)
REMARK    1  A    between atoms: S_1  and  N_7
REMARK    2  A    between atoms: S_1  and  C_20
REMARK    3  A    between atoms: O_6  and  C_27
REMARK    4  A    between atoms: O_6  and  C_30
REMARK    5  A    between atoms: C_18  and  C_21
REMARK                            x       y       z     vdW  Elec       q    Type
REMARK                         _______ _______ _______ _____ _____    ______ ____
ROOT
ATOM      4  O   UNL     1      10.414   4.356   4.585  0.00  0.00    -0.267 OA
ATOM      7  N   UNL     1      12.622   6.025   0.440  0.00  0.00    -0.176 NA
ATOM      8  N   UNL     1      10.306   5.355   2.481  0.00  0.00    -0.311 N 
ATOM      9  C   UNL     1      10.995   4.134   0.337  0.00  0.00    +0.025 C 
ATOM     10  C   UNL     1      10.183   6.448   0.215  0.00  0.00    +0.052 C 
ATOM     11  C   UNL     1       9.976   5.042  -0.339  0.00  0.00    +0.017 C 
ATOM     12  C   UNL     1      12.426   4.605   0.030  0.00  0.00    +0.114 C 
ATOM     13  C   UNL     1      11.597   6.940  -0.143  0.00  0.00    +0.119 C 
ATOM     14  C   UNL     1      10.702   4.093   1.842  0.00  0.00    +0.130 C 
ATOM     15  C   UNL     1       9.979   6.479   1.718  0.00  0.00    +0.026 A 
ATOM     16  C   UNL     1       9.508   7.585   2.317  0.00  0.00    +0.022 A 
ATOM     17  C   UNL     1      10.170   5.339   3.883  0.00  0.00    +0.262 A 
ATOM     18  C   UNL     1       9.674   6.605   4.528  0.00  0.00    +0.082 A 
ATOM     19  C   UNL     1       9.361   7.646   3.743  0.00  0.00    +0.018 A 
ENDROOT
BRANCH  18  21
ATOM      5  O   UNL     1      10.511   6.291   6.852  0.00  0.00    -0.463 OA
ATOM     21  C   UNL     1       9.540   6.714   5.991  0.00  0.00    +0.140 A 
ATOM     26  C   UNL     1       8.476   7.232   6.705  0.00  0.00    +0.050 A 
ATOM     28  C   UNL     1       8.816   7.119   8.073  0.00  0.00    +0.042 A 
ATOM     29  C   UNL     1      10.064   6.541   8.110  0.00  0.00    +0.196 A 
ENDBRANCH  18  21
BRANCH   7   1
ATOM      1  S   UNL     1      14.236   6.593   0.390  0.00  0.00    +0.061 S 
ATOM      2  O   UNL     1      14.294   7.784  -0.431  0.00  0.00    -0.153 OA
ATOM      3  O   UNL     1      15.121   5.474   0.142  0.00  0.00    -0.153 OA
BRANCH   1  20
ATOM     20  C   UNL     1      14.443   7.086   2.072  0.00  0.00    +0.106 A 
ATOM     22  C   UNL     1      15.670   7.577   2.488  0.00  0.00    +0.032 A 
ATOM     23  C   UNL     1      13.375   6.973   2.948  0.00  0.00    +0.032 A 
ATOM     24  C   UNL     1      15.833   7.967   3.818  0.00  0.00    +0.047 A 
ATOM     25  C   UNL     1      13.539   7.362   4.278  0.00  0.00    +0.047 A 
ATOM     27  C   UNL     1      14.768   7.860   4.712  0.00  0.00    +0.120 A 
BRANCH  27   6
ATOM      6  O   UNL     1      14.927   8.241   6.010  0.00  0.00    -0.495 OA
ATOM     30  C   UNL     1      13.823   8.891   6.635  0.00  0.00    +0.277 C 
ENDBRANCH  27   6
ENDBRANCH   1  20
ENDBRANCH   7   1
TORSDOF 4
ENDMDL
MODEL 10
REMARK VINA RESULT:      -6.2      3.343      6.912
REMARK  Name = 7143818
REMARK  5 active torsions:
REMARK  status: ('A' for Active; 'I' for Inactive)
REMARK    1  A    between atoms: S_1  and  N_7
REMARK    2  A    between atoms: S_1  and  C_20
REMARK    3  A    between atoms: O_6  and  C_27
REMARK    4  A    between atoms: O_6  and  C_30
REMARK    5  A    between atoms: C_18  and  C_21
REMARK                            x       y       z     vdW  Elec       q    Type
REMARK                         _______ _______ _______ _____ _____    ______ ____
ROOT
ATOM      4  O   UNL     1      12.564  11.597  19.831  0.00  0.00    -0.267 OA
ATOM      7  N   UNL     1      12.924  12.828  24.648  0.00  0.00    -0.176 NA
ATOM      8  N   UNL     1      11.635  11.772  21.964  0.00  0.00    -0.311 N 
ATOM      9  C   UNL     1      11.321  14.020  23.151  0.00  0.00    +0.025 C 
ATOM     10  C   UNL     1      10.632  11.945  24.267  0.00  0.00    +0.052 C 
ATOM     11  C   UNL     1      10.153  13.330  23.843  0.00  0.00    +0.017 C 
ATOM     12  C   UNL     1      12.515  14.157  24.109  0.00  0.00    +0.114 C 
ATOM     13  C   UNL     1      11.789  12.084  25.272  0.00  0.00    +0.119 C 
ATOM     14  C   UNL     1      11.677  13.238  21.879  0.00  0.00    +0.130 C 
ATOM     15  C   UNL     1      11.071  11.128  23.067  0.00  0.00    +0.026 A 
ATOM     16  C   UNL     1      10.938   9.791  23.070  0.00  0.00    +0.022 A 
ATOM     17  C   UNL     1      12.093  11.061  20.837  0.00  0.00    +0.262 A 
ATOM     18  C   UNL     1      11.964   9.563  20.885  0.00  0.00    +0.082 A 
ATOM     19  C   UNL     1      11.398   9.001  21.964  0.00  0.00    +0.018 A 
ENDROOT
BRANCH  18  21
ATOM      5  O   UNL     1      11.617   8.138  18.873  0.00  0.00    -0.463 OA
ATOM     21  C   UNL     1      12.454   8.718  19.781  0.00  0.00    +0.140 A 
ATOM     26  C   UNL     1      13.763   8.387  19.490  0.00  0.00    +0.050 A 
ATOM     28  C   UNL     1      13.723   7.562  18.342  0.00  0.00    +0.042 A 
ATOM     29  C   UNL     1      12.395   7.441  18.004  0.00  0.00    +0.196 A 
ENDBRANCH  18  21
BRANCH   7   1
ATOM      1  S   UNL     1      14.394  12.806  25.523  0.00  0.00    +0.061 S 
ATOM      2  O   UNL     1      14.302  11.821  26.580  0.00  0.00    -0.153 OA
ATOM      3  O   UNL     1      14.793  14.169  25.808  0.00  0.00    -0.153 OA
BRANCH   1  20
ATOM     20  C   UNL     1      15.482  12.171  24.287  0.00  0.00    +0.106 A 
ATOM     22  C   UNL     1      14.983  11.311  23.322  0.00  0.00    +0.032 A 
ATOM     23  C   UNL     1      16.817  12.542  24.302  0.00  0.00    +0.032 A 
ATOM     24  C   UNL     1      15.843  10.809  22.345  0.00  0.00    +0.047 A 
ATOM     25  C   UNL     1      17.677  12.040  23.325  0.00  0.00    +0.047 A 
ATOM     27  C   UNL     1      17.190  11.174  22.346  0.00  0.00    +0.120 A 
BRANCH  27   6
ATOM      6  O   UNL     1      18.029  10.684  21.392  0.00  0.00    -0.495 OA
ATOM     30  C   UNL     1      18.058   9.269  21.218  0.00  0.00    +0.277 C 
ENDBRANCH  27   6
ENDBRANCH   1  20
ENDBRANCH   7   1
TORSDOF 4
ENDMDL
