MODEL 1
REMARK VINA RESULT:      -8.3      0.000      0.000
REMARK  Name = 11886264
REMARK  6 active torsions:
REMARK  status: ('A' for Active; 'I' for Inactive)
REMARK    1  A    between atoms: O_3  and  C_20
REMARK    2  A    between atoms: O_3  and  C_23
REMARK    3  A    between atoms: N_5  and  C_16
REMARK    4  A    between atoms: N_6  and  C_17
REMARK    5  A    between atoms: N_9  and  C_22
REMARK    6  A    between atoms: N_11  and  C_35
REMARK                            x       y       z     vdW  Elec       q    Type
REMARK                         _______ _______ _______ _____ _____    ______ ____
ROOT
ATOM      1  O   UNL     1      16.464  14.184  24.315  0.00  0.00    -0.370 OA
ATOM      2  O   UNL     1      15.121  13.133  21.673  0.00  0.00    -0.370 OA
ATOM     14  C   UNL     1      14.748  13.102  23.063  0.00  0.00    +0.176 C 
ATOM     15  C   UNL     1      16.019  12.896  23.863  0.00  0.00    +0.172 C 
ATOM     16  C   UNL     1      14.241  14.466  23.491  0.00  0.00    +0.171 C 
ATOM     17  C   UNL     1      17.000  12.323  22.864  0.00  0.00    +0.131 C 
ATOM     18  C   UNL     1      15.513  15.185  23.925  0.00  0.00    +0.190 C 
ATOM     19  C   UNL     1      16.539  12.950  21.562  0.00  0.00    +0.185 C 
ENDROOT
BRANCH  17   6
ATOM      4  O   UNL     1      17.684  10.644  20.647  0.00  0.00    -0.252 OA
ATOM      6  N   UNL     1      16.913  10.885  22.813  0.00  0.00    -0.292 N 
ATOM      9  N   UNL     1      17.078   8.772  21.927  0.00  0.00    -0.269 N 
ATOM     21  C   UNL     1      17.268  10.135  21.684  0.00  0.00    +0.304 C 
ATOM     40  H   UNL     1      16.647  10.386  23.658  0.00  0.00    +0.151 HD
ATOM     41  H   UNL     1      16.550   8.565  22.767  0.00  0.00    +0.156 HD
BRANCH   9  22
ATOM     22  C   UNL     1      17.319   7.692  21.045  0.00  0.00    +0.042 A 
ATOM     24  C   UNL     1      18.501   6.950  21.111  0.00  0.00    +0.003 A 
ATOM     25  C   UNL     1      16.329   7.406  20.115  0.00  0.00    +0.024 A 
ATOM     26  C   UNL     1      18.686   5.881  20.203  0.00  0.00    -0.016 A 
ATOM     29  C   UNL     1      19.506   7.236  22.050  0.00  0.00    +0.010 A 
ATOM     30  C   UNL     1      16.511   6.353  19.222  0.00  0.00    +0.002 A 
ATOM     31  C   UNL     1      17.681   5.595  19.265  0.00  0.00    +0.008 A 
ATOM     34  C   UNL     1      19.871   5.129  20.260  0.00  0.00    +0.008 A 
ATOM     36  C   UNL     1      20.677   6.479  22.093  0.00  0.00    +0.001 A 
ATOM     37  C   UNL     1      20.858   5.427  21.199  0.00  0.00    +0.001 A 
ENDBRANCH   9  22
ENDBRANCH  17   6
BRANCH  16   5
ATOM      5  N   UNL     1      13.196  14.381  24.515  0.00  0.00    -0.187 N 
ATOM      7  N   UNL     1      13.453  14.707  25.786  0.00  0.00    -0.041 NA
ATOM      8  N   UNL     1      11.329  14.070  25.558  0.00  0.00    -0.071 NA
ATOM     10  N   UNL     1      12.304  14.515  26.421  0.00  0.00    -0.020 NA
ATOM     20  C   UNL     1      11.906  13.995  24.381  0.00  0.00    +0.342 A 
BRANCH  20   3
ATOM      3  O   UNL     1      11.344  13.611  23.249  0.00  0.00    -0.423 OA
BRANCH   3  23
ATOM     23  C   UNL     1      11.366  12.294  22.813  0.00  0.00    +0.132 A 
ATOM     27  C   UNL     1      10.987  11.292  23.688  0.00  0.00    +0.048 A 
ATOM     28  C   UNL     1      11.766  12.022  21.520  0.00  0.00    +0.048 A 
ATOM     32  C   UNL     1      11.011   9.968  23.249  0.00  0.00    +0.031 A 
ATOM     33  C   UNL     1      11.788  10.697  21.081  0.00  0.00    +0.031 A 
ATOM     35  C   UNL     1      11.411   9.670  21.947  0.00  0.00    +0.067 A 
BRANCH  35  11
ATOM     11  N   UNL     1      11.434   8.358  21.514  0.00  0.00    -0.220 N 
ATOM     12  N   UNL     1      10.773   7.381  22.162  0.00  0.00    -0.154 NA
ATOM     13  N   UNL     1      11.876   6.567  20.330  0.00  0.00    -0.222 NA
ATOM     38  C   UNL     1      12.086   7.858  20.425  0.00  0.00    +0.225 A 
ATOM     39  C   UNL     1      11.073   6.321  21.408  0.00  0.00    +0.245 A 
ENDBRANCH  35  11
ENDBRANCH   3  23
ENDBRANCH  20   3
ENDBRANCH  16   5
TORSDOF 6
ENDMDL
MODEL 2
REMARK VINA RESULT:      -8.2      4.575      7.425
REMARK  Name = 11886264
REMARK  6 active torsions:
REMARK  status: ('A' for Active; 'I' for Inactive)
REMARK    1  A    between atoms: O_3  and  C_20
REMARK    2  A    between atoms: O_3  and  C_23
REMARK    3  A    between atoms: N_5  and  C_16
REMARK    4  A    between atoms: N_6  and  C_17
REMARK    5  A    between atoms: N_9  and  C_22
REMARK    6  A    between atoms: N_11  and  C_35
REMARK                            x       y       z     vdW  Elec       q    Type
REMARK                         _______ _______ _______ _____ _____    ______ ____
ROOT
ATOM      1  O   UNL     1      14.211   7.369  21.499  0.00  0.00    -0.370 OA
ATOM      2  O   UNL     1      16.157   9.519  20.281  0.00  0.00    -0.370 OA
ATOM     14  C   UNL     1      15.272   8.536  19.712  0.00  0.00    +0.176 C 
ATOM     15  C   UNL     1      15.331   7.311  20.603  0.00  0.00    +0.172 C 
ATOM     16  C   UNL     1      13.836   9.015  19.811  0.00  0.00    +0.171 C 
ATOM     17  C   UNL     1      16.625   7.469  21.371  0.00  0.00    +0.131 C 
ATOM     18  C   UNL     1      13.399   8.507  21.180  0.00  0.00    +0.190 C 
ATOM     19  C   UNL     1      16.765   8.977  21.461  0.00  0.00    +0.185 C 
ENDROOT
BRANCH  17   6
ATOM      4  O   UNL     1      19.128   6.624  22.478  0.00  0.00    -0.252 OA
ATOM      6  N   UNL     1      17.732   6.883  20.654  0.00  0.00    -0.292 N 
ATOM      9  N   UNL     1      19.811   5.963  20.332  0.00  0.00    -0.269 N 
ATOM     21  C   UNL     1      18.927   6.495  21.273  0.00  0.00    +0.304 C 
ATOM     40  H   UNL     1      17.612   6.677  19.666  0.00  0.00    +0.151 HD
ATOM     41  H   UNL     1      19.540   6.118  19.367  0.00  0.00    +0.156 HD
BRANCH   9  22
ATOM     22  C   UNL     1      21.115   5.461  20.552  0.00  0.00    +0.042 A 
ATOM     24  C   UNL     1      22.236   6.289  20.473  0.00  0.00    +0.003 A 
ATOM     25  C   UNL     1      21.226   4.108  20.850  0.00  0.00    +0.024 A 
ATOM     26  C   UNL     1      23.515   5.730  20.703  0.00  0.00    -0.016 A 
ATOM     29  C   UNL     1      22.129   7.657  20.171  0.00  0.00    +0.010 A 
ATOM     30  C   UNL     1      22.485   3.558  21.077  0.00  0.00    +0.002 A 
ATOM     31  C   UNL     1      23.622   4.362  21.004  0.00  0.00    +0.008 A 
ATOM     34  C   UNL     1      24.650   6.554  20.625  0.00  0.00    +0.008 A 
ATOM     36  C   UNL     1      23.267   8.462  20.098  0.00  0.00    +0.001 A 
ATOM     37  C   UNL     1      24.524   7.910  20.325  0.00  0.00    +0.001 A 
ENDBRANCH   9  22
ENDBRANCH  17   6
BRANCH  16   5
ATOM      5  N   UNL     1      13.013   8.559  18.688  0.00  0.00    -0.187 N 
ATOM      7  N   UNL     1      12.529   7.314  18.653  0.00  0.00    -0.041 NA
ATOM      8  N   UNL     1      11.898   8.447  16.840  0.00  0.00    -0.071 NA
ATOM     10  N   UNL     1      11.845   7.250  17.518  0.00  0.00    -0.020 NA
ATOM     20  C   UNL     1      12.629   9.244  17.585  0.00  0.00    +0.342 A 
BRANCH  20   3
ATOM      3  O   UNL     1      12.946  10.499  17.323  0.00  0.00    -0.423 OA
BRANCH   3  23
ATOM     23  C   UNL     1      14.071  10.848  16.588  0.00  0.00    +0.132 A 
ATOM     27  C   UNL     1      14.972  11.747  17.128  0.00  0.00    +0.048 A 
ATOM     28  C   UNL     1      14.256  10.288  15.340  0.00  0.00    +0.048 A 
ATOM     32  C   UNL     1      16.101  12.098  16.389  0.00  0.00    +0.031 A 
ATOM     33  C   UNL     1      15.386  10.639  14.601  0.00  0.00    +0.031 A 
ATOM     35  C   UNL     1      16.309  11.545  15.126  0.00  0.00    +0.067 A 
BRANCH  35  11
ATOM     11  N   UNL     1      17.429  11.893  14.394  0.00  0.00    -0.220 N 
ATOM     12  N   UNL     1      18.675  11.710  14.867  0.00  0.00    -0.154 NA
ATOM     13  N   UNL     1      18.705  12.637  12.775  0.00  0.00    -0.222 NA
ATOM     38  C   UNL     1      17.462  12.447  13.147  0.00  0.00    +0.225 A 
ATOM     39  C   UNL     1      19.407  12.175  13.852  0.00  0.00    +0.245 A 
ENDBRANCH  35  11
ENDBRANCH   3  23
ENDBRANCH  20   3
ENDBRANCH  16   5
TORSDOF 6
ENDMDL
MODEL 3
REMARK VINA RESULT:      -8.1     27.384     31.825
REMARK  Name = 11886264
REMARK  6 active torsions:
REMARK  status: ('A' for Active; 'I' for Inactive)
REMARK    1  A    between atoms: O_3  and  C_20
REMARK    2  A    between atoms: O_3  and  C_23
REMARK    3  A    between atoms: N_5  and  C_16
REMARK    4  A    between atoms: N_6  and  C_17
REMARK    5  A    between atoms: N_9  and  C_22
REMARK    6  A    between atoms: N_11  and  C_35
REMARK                            x       y       z     vdW  Elec       q    Type
REMARK                         _______ _______ _______ _____ _____    ______ ____
ROOT
ATOM      1  O   UNL     1     -19.397   4.764  24.520  0.00  0.00    -0.370 OA
ATOM      2  O   UNL     1     -17.232   6.894  25.336  0.00  0.00    -0.370 OA
ATOM     14  C   UNL     1     -17.248   5.790  24.413  0.00  0.00    +0.176 C 
ATOM     15  C   UNL     1     -18.065   4.684  25.050  0.00  0.00    +0.172 C 
ATOM     16  C   UNL     1     -18.024   6.172  23.166  0.00  0.00    +0.171 C 
ATOM     17  C   UNL     1     -18.067   5.023  26.525  0.00  0.00    +0.131 C 
ATOM     18  C   UNL     1     -19.457   5.795  23.525  0.00  0.00    +0.190 C 
ATOM     19  C   UNL     1     -17.979   6.538  26.507  0.00  0.00    +0.185 C 
ENDROOT
BRANCH  17   6
ATOM      4  O   UNL     1     -18.131   3.097  28.644  0.00  0.00    -0.252 OA
ATOM      6  N   UNL     1     -16.931   4.441  27.196  0.00  0.00    -0.292 N 
ATOM      9  N   UNL     1     -15.784   3.119  28.683  0.00  0.00    -0.269 N 
ATOM     21  C   UNL     1     -17.049   3.501  28.227  0.00  0.00    +0.304 C 
ATOM     40  H   UNL     1     -16.000   4.670  26.857  0.00  0.00    +0.151 HD
ATOM     41  H   UNL     1     -15.024   3.701  28.350  0.00  0.00    +0.156 HD
BRANCH   9  22
ATOM     22  C   UNL     1     -15.474   2.194  29.709  0.00  0.00    +0.042 A 
ATOM     24  C   UNL     1     -15.180   2.621  31.005  0.00  0.00    +0.003 A 
ATOM     25  C   UNL     1     -15.475   0.849  29.365  0.00  0.00    +0.024 A 
ATOM     26  C   UNL     1     -14.876   1.650  31.990  0.00  0.00    -0.016 A 
ATOM     29  C   UNL     1     -15.177   3.980  31.358  0.00  0.00    +0.010 A 
ATOM     30  C   UNL     1     -15.177  -0.106  30.334  0.00  0.00    +0.002 A 
ATOM     31  C   UNL     1     -14.879   0.291  31.637  0.00  0.00    +0.008 A 
ATOM     34  C   UNL     1     -14.578   2.068  33.297  0.00  0.00    +0.008 A 
ATOM     36  C   UNL     1     -14.879   4.378  32.662  0.00  0.00    +0.001 A 
ATOM     37  C   UNL     1     -14.580   3.422  33.629  0.00  0.00    +0.001 A 
ENDBRANCH   9  22
ENDBRANCH  17   6
BRANCH  16   5
ATOM      5  N   UNL     1     -17.497   5.531  21.959  0.00  0.00    -0.187 N 
ATOM      7  N   UNL     1     -18.267   4.728  21.218  0.00  0.00    -0.041 NA
ATOM      8  N   UNL     1     -16.225   4.881  20.337  0.00  0.00    -0.071 NA
ATOM     10  N   UNL     1     -17.481   4.332  20.223  0.00  0.00    -0.020 NA
ATOM     20  C   UNL     1     -16.258   5.622  21.421  0.00  0.00    +0.342 A 
BRANCH  20   3
ATOM      3  O   UNL     1     -15.267   6.338  21.919  0.00  0.00    -0.423 OA
BRANCH   3  23
ATOM     23  C   UNL     1     -14.286   6.912  21.122  0.00  0.00    +0.132 A 
ATOM     27  C   UNL     1     -14.652   7.873  20.198  0.00  0.00    +0.048 A 
ATOM     28  C   UNL     1     -12.976   6.505  21.274  0.00  0.00    +0.048 A 
ATOM     32  C   UNL     1     -13.666   8.449  19.396  0.00  0.00    +0.031 A 
ATOM     33  C   UNL     1     -11.990   7.082  20.472  0.00  0.00    +0.031 A 
ATOM     35  C   UNL     1     -12.336   8.054  19.532  0.00  0.00    +0.067 A 
BRANCH  35  11
ATOM     11  N   UNL     1     -11.360   8.625  18.737  0.00  0.00    -0.220 N 
ATOM     12  N   UNL     1     -11.095   8.172  17.498  0.00  0.00    -0.154 NA
ATOM     13  N   UNL     1      -9.748   9.938  18.045  0.00  0.00    -0.222 NA
ATOM     38  C   UNL     1     -10.550   9.677  19.050  0.00  0.00    +0.225 A 
ATOM     39  C   UNL     1     -10.115   8.998  17.125  0.00  0.00    +0.245 A 
ENDBRANCH  35  11
ENDBRANCH   3  23
ENDBRANCH  20   3
ENDBRANCH  16   5
TORSDOF 6
ENDMDL
MODEL 4
REMARK VINA RESULT:      -8.0     28.711     31.183
REMARK  Name = 11886264
REMARK  6 active torsions:
REMARK  status: ('A' for Active; 'I' for Inactive)
REMARK    1  A    between atoms: O_3  and  C_20
REMARK    2  A    between atoms: O_3  and  C_23
REMARK    3  A    between atoms: N_5  and  C_16
REMARK    4  A    between atoms: N_6  and  C_17
REMARK    5  A    between atoms: N_9  and  C_22
REMARK    6  A    between atoms: N_11  and  C_35
REMARK                            x       y       z     vdW  Elec       q    Type
REMARK                         _______ _______ _______ _____ _____    ______ ____
ROOT
ATOM      1  O   UNL     1      -1.533  -9.918  13.071  0.00  0.00    -0.370 OA
ATOM      2  O   UNL     1      -2.410 -12.831  12.270  0.00  0.00    -0.370 OA
ATOM     14  C   UNL     1      -3.098 -11.569  12.360  0.00  0.00    +0.176 C 
ATOM     15  C   UNL     1      -2.529 -10.832  13.556  0.00  0.00    +0.172 C 
ATOM     16  C   UNL     1      -2.743 -10.702  11.168  0.00  0.00    +0.171 C 
ATOM     17  C   UNL     1      -1.883 -11.916  14.391  0.00  0.00    +0.131 C 
ATOM     18  C   UNL     1      -1.493  -9.967  11.638  0.00  0.00    +0.190 C 
ATOM     19  C   UNL     1      -1.458 -12.923  13.339  0.00  0.00    +0.185 C 
ENDROOT
BRANCH  17   6
ATOM      4  O   UNL     1      -3.564 -10.502  16.230  0.00  0.00    -0.252 OA
ATOM      6  N   UNL     1      -2.826 -12.493  15.317  0.00  0.00    -0.292 N 
ATOM      9  N   UNL     1      -4.428 -12.557  16.961  0.00  0.00    -0.269 N 
ATOM     21  C   UNL     1      -3.613 -11.728  16.186  0.00  0.00    +0.304 C 
ATOM     40  H   UNL     1      -2.978 -13.498  15.288  0.00  0.00    +0.151 HD
ATOM     41  H   UNL     1      -4.188 -13.542  16.917  0.00  0.00    +0.156 HD
BRANCH   9  22
ATOM     22  C   UNL     1      -5.362 -12.176  17.953  0.00  0.00    +0.042 A 
ATOM     24  C   UNL     1      -6.727 -12.428  17.800  0.00  0.00    +0.003 A 
ATOM     25  C   UNL     1      -4.859 -11.540  19.081  0.00  0.00    +0.024 A 
ATOM     26  C   UNL     1      -7.614 -12.022  18.825  0.00  0.00    -0.016 A 
ATOM     29  C   UNL     1      -7.241 -13.069  16.661  0.00  0.00    +0.010 A 
ATOM     30  C   UNL     1      -5.732 -11.142  20.090  0.00  0.00    +0.002 A 
ATOM     31  C   UNL     1      -7.100 -11.381  19.964  0.00  0.00    +0.008 A 
ATOM     34  C   UNL     1      -8.989 -12.270  18.681  0.00  0.00    +0.008 A 
ATOM     36  C   UNL     1      -8.610 -13.308  16.535  0.00  0.00    +0.001 A 
ATOM     37  C   UNL     1      -9.482 -12.909  17.544  0.00  0.00    +0.001 A 
ENDBRANCH   9  22
ENDBRANCH  17   6
BRANCH  16   5
ATOM      5  N   UNL     1      -3.851  -9.838  10.752  0.00  0.00    -0.187 N 
ATOM      7  N   UNL     1      -3.642  -8.797   9.940  0.00  0.00    -0.041 NA
ATOM      8  N   UNL     1      -5.799  -8.942  10.482  0.00  0.00    -0.071 NA
ATOM     10  N   UNL     1      -4.840  -8.251   9.777  0.00  0.00    -0.020 NA
ATOM     20  C   UNL     1      -5.162  -9.923  11.079  0.00  0.00    +0.342 A 
BRANCH  20   3
ATOM      3  O   UNL     1      -5.689 -10.843  11.866  0.00  0.00    -0.423 OA
BRANCH   3  23
ATOM     23  C   UNL     1      -6.570 -10.533  12.892  0.00  0.00    +0.132 A 
ATOM     27  C   UNL     1      -7.928 -10.678  12.676  0.00  0.00    +0.048 A 
ATOM     28  C   UNL     1      -6.066 -10.087  14.097  0.00  0.00    +0.048 A 
ATOM     32  C   UNL     1      -8.814 -10.365  13.707  0.00  0.00    +0.031 A 
ATOM     33  C   UNL     1      -6.952  -9.774  15.129  0.00  0.00    +0.031 A 
ATOM     35  C   UNL     1      -8.327  -9.913  14.933  0.00  0.00    +0.067 A 
BRANCH  35  11
ATOM     11  N   UNL     1      -9.205  -9.603  15.954  0.00  0.00    -0.220 N 
ATOM     12  N   UNL     1     -10.503  -9.957  15.911  0.00  0.00    -0.154 NA
ATOM     13  N   UNL     1     -10.012  -8.825  17.838  0.00  0.00    -0.222 NA
ATOM     38  C   UNL     1      -8.927  -8.929  17.107  0.00  0.00    +0.225 A 
ATOM     39  C   UNL     1     -10.944  -9.464  17.070  0.00  0.00    +0.245 A 
ENDBRANCH  35  11
ENDBRANCH   3  23
ENDBRANCH  20   3
ENDBRANCH  16   5
TORSDOF 6
ENDMDL
MODEL 5
REMARK VINA RESULT:      -7.9      7.270     11.470
REMARK  Name = 11886264
REMARK  6 active torsions:
REMARK  status: ('A' for Active; 'I' for Inactive)
REMARK    1  A    between atoms: O_3  and  C_20
REMARK    2  A    between atoms: O_3  and  C_23
REMARK    3  A    between atoms: N_5  and  C_16
REMARK    4  A    between atoms: N_6  and  C_17
REMARK    5  A    between atoms: N_9  and  C_22
REMARK    6  A    between atoms: N_11  and  C_35
REMARK                            x       y       z     vdW  Elec       q    Type
REMARK                         _______ _______ _______ _____ _____    ______ ____
ROOT
ATOM      1  O   UNL     1      24.694   2.881  25.876  0.00  0.00    -0.370 OA
ATOM      2  O   UNL     1      23.336   2.247  23.111  0.00  0.00    -0.370 OA
ATOM     14  C   UNL     1      23.174   3.293  24.088  0.00  0.00    +0.176 C 
ATOM     15  C   UNL     1      23.340   2.660  25.455  0.00  0.00    +0.172 C 
ATOM     16  C   UNL     1      24.319   4.282  23.979  0.00  0.00    +0.171 C 
ATOM     17  C   UNL     1      23.101   1.185  25.215  0.00  0.00    +0.131 C 
ATOM     18  C   UNL     1      25.375   3.686  24.903  0.00  0.00    +0.190 C 
ATOM     19  C   UNL     1      23.584   1.007  23.788  0.00  0.00    +0.185 C 
ENDROOT
BRANCH  17   6
ATOM      4  O   UNL     1      21.971  -1.436  25.453  0.00  0.00    -0.252 OA
ATOM      6  N   UNL     1      21.702   0.857  25.339  0.00  0.00    -0.292 N 
ATOM      9  N   UNL     1      19.836  -0.465  25.554  0.00  0.00    -0.269 N 
ATOM     21  C   UNL     1      21.229  -0.457  25.451  0.00  0.00    +0.304 C 
ATOM     40  H   UNL     1      21.032   1.617  25.419  0.00  0.00    +0.151 HD
ATOM     41  H   UNL     1      19.394   0.422  25.341  0.00  0.00    +0.156 HD
BRANCH   9  22
ATOM     22  C   UNL     1      18.982  -1.586  25.684  0.00  0.00    +0.042 A 
ATOM     24  C   UNL     1      17.980  -1.847  24.747  0.00  0.00    +0.003 A 
ATOM     25  C   UNL     1      19.187  -2.410  26.783  0.00  0.00    +0.024 A 
ATOM     26  C   UNL     1      17.155  -2.983  24.929  0.00  0.00    -0.016 A 
ATOM     29  C   UNL     1      17.768  -1.017  23.634  0.00  0.00    +0.010 A 
ATOM     30  C   UNL     1      18.376  -3.528  26.961  0.00  0.00    +0.002 A 
ATOM     31  C   UNL     1      17.367  -3.813  26.042  0.00  0.00    +0.008 A 
ATOM     34  C   UNL     1      16.144  -3.254  23.993  0.00  0.00    +0.008 A 
ATOM     36  C   UNL     1      16.759  -1.302  22.714  0.00  0.00    +0.001 A 
ATOM     37  C   UNL     1      15.949  -2.419  22.894  0.00  0.00    +0.001 A 
ENDBRANCH   9  22
ENDBRANCH  17   6
BRANCH  16   5
ATOM      5  N   UNL     1      23.911   5.651  24.304  0.00  0.00    -0.187 N 
ATOM      7  N   UNL     1      24.028   6.125  25.549  0.00  0.00    -0.041 NA
ATOM      8  N   UNL     1      23.172   7.680  24.200  0.00  0.00    -0.071 NA
ATOM     10  N   UNL     1      23.574   7.370  25.479  0.00  0.00    -0.020 NA
ATOM     20  C   UNL     1      23.391   6.597  23.488  0.00  0.00    +0.342 A 
BRANCH  20   3
ATOM      3  O   UNL     1      23.152   6.439  22.199  0.00  0.00    -0.423 OA
BRANCH   3  23
ATOM     23  C   UNL     1      21.866   6.398  21.677  0.00  0.00    +0.132 A 
ATOM     27  C   UNL     1      21.453   5.266  21.000  0.00  0.00    +0.048 A 
ATOM     28  C   UNL     1      21.038   7.490  21.849  0.00  0.00    +0.048 A 
ATOM     32  C   UNL     1      20.162   5.227  20.474  0.00  0.00    +0.031 A 
ATOM     33  C   UNL     1      19.746   7.450  21.323  0.00  0.00    +0.031 A 
ATOM     35  C   UNL     1      19.308   6.317  20.635  0.00  0.00    +0.067 A 
BRANCH  35  11
ATOM     11  N   UNL     1      18.029   6.277  20.114  0.00  0.00    -0.220 N 
ATOM     12  N   UNL     1      16.990   6.875  20.727  0.00  0.00    -0.154 NA
ATOM     13  N   UNL     1      16.335   5.842  18.793  0.00  0.00    -0.222 NA
ATOM     38  C   UNL     1      17.624   5.666  18.964  0.00  0.00    +0.225 A 
ATOM     39  C   UNL     1      15.993   6.582  19.889  0.00  0.00    +0.245 A 
ENDBRANCH  35  11
ENDBRANCH   3  23
ENDBRANCH  20   3
ENDBRANCH  16   5
TORSDOF 6
ENDMDL
MODEL 6
REMARK VINA RESULT:      -7.8     10.320     12.708
REMARK  Name = 11886264
REMARK  6 active torsions:
REMARK  status: ('A' for Active; 'I' for Inactive)
REMARK    1  A    between atoms: O_3  and  C_20
REMARK    2  A    between atoms: O_3  and  C_23
REMARK    3  A    between atoms: N_5  and  C_16
REMARK    4  A    between atoms: N_6  and  C_17
REMARK    5  A    between atoms: N_9  and  C_22
REMARK    6  A    between atoms: N_11  and  C_35
REMARK                            x       y       z     vdW  Elec       q    Type
REMARK                         _______ _______ _______ _____ _____    ______ ____
ROOT
ATOM      1  O   UNL     1      12.029  13.607  10.682  0.00  0.00    -0.370 OA
ATOM      2  O   UNL     1      10.029  12.211  12.668  0.00  0.00    -0.370 OA
ATOM     14  C   UNL     1      11.370  11.919  12.230  0.00  0.00    +0.176 C 
ATOM     15  C   UNL     1      11.454  12.294  10.763  0.00  0.00    +0.172 C 
ATOM     16  C   UNL     1      12.351  12.845  12.921  0.00  0.00    +0.171 C 
ATOM     17  C   UNL     1      10.013  12.324  10.302  0.00  0.00    +0.131 C 
ATOM     18  C   UNL     1      12.392  14.055  11.995  0.00  0.00    +0.190 C 
ATOM     19  C   UNL     1       9.278  12.734  11.564  0.00  0.00    +0.185 C 
ENDROOT
BRANCH  17   6
ATOM      4  O   UNL     1      10.011  11.370   7.601  0.00  0.00    -0.252 OA
ATOM      6  N   UNL     1       9.585  11.024   9.846  0.00  0.00    -0.292 N 
ATOM      9  N   UNL     1       9.142   9.328   8.363  0.00  0.00    -0.269 N 
ATOM     21  C   UNL     1       9.616  10.634   8.501  0.00  0.00    +0.304 C 
ATOM     40  H   UNL     1       9.313  10.334  10.541  0.00  0.00    +0.151 HD
ATOM     41  H   UNL     1       8.685   8.957   9.189  0.00  0.00    +0.156 HD
BRANCH   9  22
ATOM     22  C   UNL     1       9.014   8.572   7.173  0.00  0.00    +0.042 A 
ATOM     24  C   UNL     1       9.298   7.205   7.148  0.00  0.00    +0.003 A 
ATOM     25  C   UNL     1       8.596   9.252   6.037  0.00  0.00    +0.024 A 
ATOM     26  C   UNL     1       9.154   6.501   5.928  0.00  0.00    -0.016 A 
ATOM     29  C   UNL     1       9.723   6.513   8.294  0.00  0.00    +0.010 A 
ATOM     30  C   UNL     1       8.452   8.559   4.838  0.00  0.00    +0.002 A 
ATOM     31  C   UNL     1       8.729   7.193   4.783  0.00  0.00    +0.008 A 
ATOM     34  C   UNL     1       9.437   5.126   5.892  0.00  0.00    +0.008 A 
ATOM     36  C   UNL     1      10.000   5.146   8.239  0.00  0.00    +0.001 A 
ATOM     37  C   UNL     1       9.857   4.455   7.040  0.00  0.00    +0.001 A 
ENDBRANCH   9  22
ENDBRANCH  17   6
BRANCH  16   5
ATOM      5  N   UNL     1      13.648  12.208  13.167  0.00  0.00    -0.187 N 
ATOM      7  N   UNL     1      14.721  12.533  12.440  0.00  0.00    -0.041 NA
ATOM      8  N   UNL     1      15.244  10.980  13.951  0.00  0.00    -0.071 NA
ATOM     10  N   UNL     1      15.698  11.778  12.926  0.00  0.00    -0.020 NA
ATOM     20  C   UNL     1      13.969  11.265  14.083  0.00  0.00    +0.342 A 
BRANCH  20   3
ATOM      3  O   UNL     1      13.128  10.734  14.952  0.00  0.00    -0.423 OA
BRANCH   3  23
ATOM     23  C   UNL     1      13.553  10.015  16.060  0.00  0.00    +0.132 A 
ATOM     27  C   UNL     1      13.653   8.639  15.968  0.00  0.00    +0.048 A 
ATOM     28  C   UNL     1      13.862  10.695  17.222  0.00  0.00    +0.048 A 
ATOM     32  C   UNL     1      14.079   7.917  17.083  0.00  0.00    +0.031 A 
ATOM     33  C   UNL     1      14.289   9.971  18.337  0.00  0.00    +0.031 A 
ATOM     35  C   UNL     1      14.397   8.582  18.267  0.00  0.00    +0.067 A 
BRANCH  35  11
ATOM     11  N   UNL     1      14.819   7.865  19.371  0.00  0.00    -0.220 N 
ATOM     12  N   UNL     1      14.497   8.232  20.625  0.00  0.00    -0.154 NA
ATOM     13  N   UNL     1      15.782   6.339  20.615  0.00  0.00    -0.222 NA
ATOM     38  C   UNL     1      15.585   6.737  19.380  0.00  0.00    +0.225 A 
ATOM     39  C   UNL     1      15.102   7.278  21.336  0.00  0.00    +0.245 A 
ENDBRANCH  35  11
ENDBRANCH   3  23
ENDBRANCH  20   3
ENDBRANCH  16   5
TORSDOF 6
ENDMDL
MODEL 7
REMARK VINA RESULT:      -7.6     24.620     28.095
REMARK  Name = 11886264
REMARK  6 active torsions:
REMARK  status: ('A' for Active; 'I' for Inactive)
REMARK    1  A    between atoms: O_3  and  C_20
REMARK    2  A    between atoms: O_3  and  C_23
REMARK    3  A    between atoms: N_5  and  C_16
REMARK    4  A    between atoms: N_6  and  C_17
REMARK    5  A    between atoms: N_9  and  C_22
REMARK    6  A    between atoms: N_11  and  C_35
REMARK                            x       y       z     vdW  Elec       q    Type
REMARK                         _______ _______ _______ _____ _____    ______ ____
ROOT
ATOM      1  O   UNL     1       8.843   5.939  -5.381  0.00  0.00    -0.370 OA
ATOM      2  O   UNL     1       7.250   6.722  -2.785  0.00  0.00    -0.370 OA
ATOM     14  C   UNL     1       7.821   5.494  -3.274  0.00  0.00    +0.176 C 
ATOM     15  C   UNL     1       7.626   5.476  -4.777  0.00  0.00    +0.172 C 
ATOM     16  C   UNL     1       9.326   5.513  -3.082  0.00  0.00    +0.171 C 
ATOM     17  C   UNL     1       6.510   6.469  -5.020  0.00  0.00    +0.131 C 
ATOM     18  C   UNL     1       9.827   6.169  -4.363  0.00  0.00    +0.190 C 
ATOM     19  C   UNL     1       6.706   7.459  -3.888  0.00  0.00    +0.185 C 
ENDROOT
BRANCH  17   6
ATOM      4  O   UNL     1       4.939   5.502  -7.212  0.00  0.00    -0.252 OA
ATOM      6  N   UNL     1       5.218   5.833  -4.941  0.00  0.00    -0.292 N 
ATOM      9  N   UNL     1       3.297   4.815  -5.681  0.00  0.00    -0.269 N 
ATOM     21  C   UNL     1       4.513   5.386  -6.066  0.00  0.00    +0.304 C 
ATOM     40  H   UNL     1       4.833   5.635  -4.021  0.00  0.00    +0.151 HD
ATOM     41  H   UNL     1       3.040   4.985  -4.715  0.00  0.00    +0.156 HD
BRANCH   9  22
ATOM     22  C   UNL     1       2.302   4.249  -6.514  0.00  0.00    +0.042 A 
ATOM     24  C   UNL     1       1.816   2.960  -6.290  0.00  0.00    +0.003 A 
ATOM     25  C   UNL     1       1.836   5.035  -7.560  0.00  0.00    +0.024 A 
ATOM     26  C   UNL     1       0.821   2.447  -7.156  0.00  0.00    -0.016 A 
ATOM     29  C   UNL     1       2.284   2.161  -5.234  0.00  0.00    +0.010 A 
ATOM     30  C   UNL     1       0.857   4.530  -8.411  0.00  0.00    +0.002 A 
ATOM     31  C   UNL     1       0.352   3.245  -8.212  0.00  0.00    +0.008 A 
ATOM     34  C   UNL     1       0.325   1.151  -6.940  0.00  0.00    +0.008 A 
ATOM     36  C   UNL     1       1.780   0.876  -5.034  0.00  0.00    +0.001 A 
ATOM     37  C   UNL     1       0.801   0.372  -5.886  0.00  0.00    +0.001 A 
ENDBRANCH   9  22
ENDBRANCH  17   6
BRANCH  16   5
ATOM      5  N   UNL     1       9.874   4.181  -2.811  0.00  0.00    -0.187 N 
ATOM      7  N   UNL     1       9.393   3.101  -3.435  0.00  0.00    -0.041 NA
ATOM      8  N   UNL     1      11.032   2.528  -2.038  0.00  0.00    -0.071 NA
ATOM     10  N   UNL     1      10.108   2.090  -2.958  0.00  0.00    -0.020 NA
ATOM     20  C   UNL     1      10.868   3.830  -1.963  0.00  0.00    +0.342 A 
BRANCH  20   3
ATOM      3  O   UNL     1      11.546   4.668  -1.200  0.00  0.00    -0.423 OA
BRANCH   3  23
ATOM     23  C   UNL     1      11.296   4.810   0.158  0.00  0.00    +0.132 A 
ATOM     27  C   UNL     1      10.437   5.808   0.580  0.00  0.00    +0.048 A 
ATOM     28  C   UNL     1      11.914   3.953   1.047  0.00  0.00    +0.048 A 
ATOM     32  C   UNL     1      10.188   5.952   1.945  0.00  0.00    +0.031 A 
ATOM     33  C   UNL     1      11.664   4.097   2.412  0.00  0.00    +0.031 A 
ATOM     35  C   UNL     1      10.800   5.097   2.861  0.00  0.00    +0.067 A 
BRANCH  35  11
ATOM     11  N   UNL     1      10.553   5.240   4.213  0.00  0.00    -0.220 N 
ATOM     12  N   UNL     1       9.842   4.333   4.908  0.00  0.00    -0.154 NA
ATOM     13  N   UNL     1      10.536   6.052   6.249  0.00  0.00    -0.222 NA
ATOM     38  C   UNL     1      10.960   6.258   5.025  0.00  0.00    +0.225 A 
ATOM     39  C   UNL     1       9.861   4.870   6.130  0.00  0.00    +0.245 A 
ENDBRANCH  35  11
ENDBRANCH   3  23
ENDBRANCH  20   3
ENDBRANCH  16   5
TORSDOF 6
ENDMDL
MODEL 8
REMARK VINA RESULT:      -7.5     17.069     19.973
REMARK  Name = 11886264
REMARK  6 active torsions:
REMARK  status: ('A' for Active; 'I' for Inactive)
REMARK    1  A    between atoms: O_3  and  C_20
REMARK    2  A    between atoms: O_3  and  C_23
REMARK    3  A    between atoms: N_5  and  C_16
REMARK    4  A    between atoms: N_6  and  C_17
REMARK    5  A    between atoms: N_9  and  C_22
REMARK    6  A    between atoms: N_11  and  C_35
REMARK                            x       y       z     vdW  Elec       q    Type
REMARK                         _______ _______ _______ _____ _____    ______ ____
ROOT
ATOM      1  O   UNL     1       8.961   7.644   6.262  0.00  0.00    -0.370 OA
ATOM      2  O   UNL     1      10.752   5.438   7.609  0.00  0.00    -0.370 OA
ATOM     14  C   UNL     1      11.036   6.653   6.890  0.00  0.00    +0.176 C 
ATOM     15  C   UNL     1      10.001   6.774   5.789  0.00  0.00    +0.172 C 
ATOM     16  C   UNL     1      10.788   7.852   7.786  0.00  0.00    +0.171 C 
ATOM     17  C   UNL     1       9.469   5.368   5.620  0.00  0.00    +0.131 C 
ATOM     18  C   UNL     1       9.310   8.150   7.558  0.00  0.00    +0.190 C 
ATOM     19  C   UNL     1       9.614   4.797   7.018  0.00  0.00    +0.185 C 
ENDROOT
BRANCH  17   6
ATOM      4  O   UNL     1       9.899   6.029   2.865  0.00  0.00    -0.252 OA
ATOM      6  N   UNL     1      10.256   4.624   4.666  0.00  0.00    -0.292 N 
ATOM      9  N   UNL     1      11.227   4.105   2.651  0.00  0.00    -0.269 N 
ATOM     21  C   UNL     1      10.417   5.017   3.332  0.00  0.00    +0.304 C 
ATOM     40  H   UNL     1      10.776   3.815   4.996  0.00  0.00    +0.151 HD
ATOM     41  H   UNL     1      11.399   3.240   3.152  0.00  0.00    +0.156 HD
BRANCH   9  22
ATOM     22  C   UNL     1      11.628   4.144   1.294  0.00  0.00    +0.042 A 
ATOM     24  C   UNL     1      12.971   4.033   0.930  0.00  0.00    +0.003 A 
ATOM     25  C   UNL     1      10.624   4.297   0.346  0.00  0.00    +0.024 A 
ATOM     26  C   UNL     1      13.311   4.079  -0.443  0.00  0.00    -0.016 A 
ATOM     29  C   UNL     1      13.989   3.878   1.885  0.00  0.00    +0.010 A 
ATOM     30  C   UNL     1      10.959   4.342  -1.004  0.00  0.00    +0.002 A 
ATOM     31  C   UNL     1      12.293   4.233  -1.398  0.00  0.00    +0.008 A 
ATOM     34  C   UNL     1      14.659   3.968  -0.820  0.00  0.00    +0.008 A 
ATOM     36  C   UNL     1      15.324   3.769   1.492  0.00  0.00    +0.001 A 
ATOM     37  C   UNL     1      15.657   3.814   0.141  0.00  0.00    +0.001 A 
ENDBRANCH   9  22
ENDBRANCH  17   6
BRANCH  16   5
ATOM      5  N   UNL     1      11.697   8.964   7.499  0.00  0.00    -0.187 N 
ATOM      7  N   UNL     1      11.382  10.215   7.849  0.00  0.00    -0.041 NA
ATOM      8  N   UNL     1      13.370  10.165   6.842  0.00  0.00    -0.071 NA
ATOM     10  N   UNL     1      12.412  10.948   7.444  0.00  0.00    -0.020 NA
ATOM     20  C   UNL     1      12.904   8.937   6.888  0.00  0.00    +0.342 A 
BRANCH  20   3
ATOM      3  O   UNL     1      13.495   7.851   6.424  0.00  0.00    -0.423 OA
BRANCH   3  23
ATOM     23  C   UNL     1      13.959   7.753   5.119  0.00  0.00    +0.132 A 
ATOM     27  C   UNL     1      15.302   7.511   4.902  0.00  0.00    +0.048 A 
ATOM     28  C   UNL     1      13.065   7.900   4.077  0.00  0.00    +0.048 A 
ATOM     32  C   UNL     1      15.768   7.413   3.591  0.00  0.00    +0.031 A 
ATOM     33  C   UNL     1      13.531   7.801   2.765  0.00  0.00    +0.031 A 
ATOM     35  C   UNL     1      14.884   7.558   2.523  0.00  0.00    +0.067 A 
BRANCH  35  11
ATOM     11  N   UNL     1      15.346   7.461   1.224  0.00  0.00    -0.220 N 
ATOM     12  N   UNL     1      16.651   7.290   0.942  0.00  0.00    -0.154 NA
ATOM     13  N   UNL     1      15.393   7.387  -0.966  0.00  0.00    -0.222 NA
ATOM     38  C   UNL     1      14.609   7.518   0.078  0.00  0.00    +0.225 A 
ATOM     39  C   UNL     1      16.625   7.252  -0.392  0.00  0.00    +0.245 A 
ENDBRANCH  35  11
ENDBRANCH   3  23
ENDBRANCH  20   3
ENDBRANCH  16   5
TORSDOF 6
ENDMDL
MODEL 9
REMARK VINA RESULT:      -7.5     16.544     19.150
REMARK  Name = 11886264
REMARK  6 active torsions:
REMARK  status: ('A' for Active; 'I' for Inactive)
REMARK    1  A    between atoms: O_3  and  C_20
REMARK    2  A    between atoms: O_3  and  C_23
REMARK    3  A    between atoms: N_5  and  C_16
REMARK    4  A    between atoms: N_6  and  C_17
REMARK    5  A    between atoms: N_9  and  C_22
REMARK    6  A    between atoms: N_11  and  C_35
REMARK                            x       y       z     vdW  Elec       q    Type
REMARK                         _______ _______ _______ _____ _____    ______ ____
ROOT
ATOM      1  O   UNL     1      12.970   9.125   7.299  0.00  0.00    -0.370 OA
ATOM      2  O   UNL     1      12.618   8.619   4.215  0.00  0.00    -0.370 OA
ATOM     14  C   UNL     1      12.598   7.767   5.376  0.00  0.00    +0.176 C 
ATOM     15  C   UNL     1      13.642   8.296   6.338  0.00  0.00    +0.172 C 
ATOM     16  C   UNL     1      11.281   7.929   6.110  0.00  0.00    +0.171 C 
ATOM     17  C   UNL     1      14.558   9.134   5.473  0.00  0.00    +0.131 C 
ATOM     18  C   UNL     1      11.557   9.089   7.059  0.00  0.00    +0.190 C 
ATOM     19  C   UNL     1      13.615   9.635   4.395  0.00  0.00    +0.185 C 
ENDROOT
BRANCH  17   6
ATOM      4  O   UNL     1      16.928  10.098   4.184  0.00  0.00    -0.252 OA
ATOM      6  N   UNL     1      15.619   8.336   4.910  0.00  0.00    -0.292 N 
ATOM      9  N   UNL     1      17.601   7.875   3.846  0.00  0.00    -0.269 N 
ATOM     21  C   UNL     1      16.749   8.887   4.294  0.00  0.00    +0.304 C 
ATOM     40  H   UNL     1      15.579   7.327   5.028  0.00  0.00    +0.151 HD
ATOM     41  H   UNL     1      17.193   6.947   3.857  0.00  0.00    +0.156 HD
BRANCH   9  22
ATOM     22  C   UNL     1      18.840   8.015   3.176  0.00  0.00    +0.042 A 
ATOM     24  C   UNL     1      20.047   8.025   3.877  0.00  0.00    +0.003 A 
ATOM     25  C   UNL     1      18.797   8.143   1.794  0.00  0.00    +0.024 A 
ATOM     26  C   UNL     1      21.255   8.169   3.153  0.00  0.00    -0.016 A 
ATOM     29  C   UNL     1      20.096   7.897   5.275  0.00  0.00    +0.010 A 
ATOM     30  C   UNL     1      19.985   8.284   1.082  0.00  0.00    +0.002 A 
ATOM     31  C   UNL     1      21.206   8.298   1.755  0.00  0.00    +0.008 A 
ATOM     34  C   UNL     1      22.475   8.181   3.849  0.00  0.00    +0.008 A 
ATOM     36  C   UNL     1      21.317   7.910   5.950  0.00  0.00    +0.001 A 
ATOM     37  C   UNL     1      22.504   8.052   5.237  0.00  0.00    +0.001 A 
ENDBRANCH   9  22
ENDBRANCH  17   6
BRANCH  16   5
ATOM      5  N   UNL     1      10.843   6.689   6.757  0.00  0.00    -0.187 N 
ATOM      7  N   UNL     1      11.303   6.345   7.963  0.00  0.00    -0.041 NA
ATOM      8  N   UNL     1       9.878   4.808   7.206  0.00  0.00    -0.071 NA
ATOM     10  N   UNL     1      10.707   5.190   8.234  0.00  0.00    -0.020 NA
ATOM     20  C   UNL     1       9.978   5.754   6.299  0.00  0.00    +0.342 A 
BRANCH  20   3
ATOM      3  O   UNL     1       9.353   5.803   5.137  0.00  0.00    -0.423 OA
BRANCH   3  23
ATOM     23  C   UNL     1       9.939   5.374   3.954  0.00  0.00    +0.132 A 
ATOM     27  C   UNL     1      10.584   4.152   3.931  0.00  0.00    +0.048 A 
ATOM     28  C   UNL     1       9.863   6.182   2.837  0.00  0.00    +0.048 A 
ATOM     32  C   UNL     1      11.175   3.722   2.742  0.00  0.00    +0.031 A 
ATOM     33  C   UNL     1      10.453   5.752   1.648  0.00  0.00    +0.031 A 
ATOM     35  C   UNL     1      11.109   4.522   1.601  0.00  0.00    +0.067 A 
BRANCH  35  11
ATOM     11  N   UNL     1      11.695   4.095   0.424  0.00  0.00    -0.220 N 
ATOM     12  N   UNL     1      10.971   3.846  -0.683  0.00  0.00    -0.154 NA
ATOM     13  N   UNL     1      13.200   3.474  -1.043  0.00  0.00    -0.222 NA
ATOM     38  C   UNL     1      13.021   3.869   0.195  0.00  0.00    +0.225 A 
ATOM     39  C   UNL     1      11.927   3.474  -1.538  0.00  0.00    +0.245 A 
ENDBRANCH  35  11
ENDBRANCH   3  23
ENDBRANCH  20   3
ENDBRANCH  16   5
TORSDOF 6
ENDMDL
MODEL 10
REMARK VINA RESULT:      -7.4      4.067      7.813
REMARK  Name = 11886264
REMARK  6 active torsions:
REMARK  status: ('A' for Active; 'I' for Inactive)
REMARK    1  A    between atoms: O_3  and  C_20
REMARK    2  A    between atoms: O_3  and  C_23
REMARK    3  A    between atoms: N_5  and  C_16
REMARK    4  A    between atoms: N_6  and  C_17
REMARK    5  A    between atoms: N_9  and  C_22
REMARK    6  A    between atoms: N_11  and  C_35
REMARK                            x       y       z     vdW  Elec       q    Type
REMARK                         _______ _______ _______ _____ _____    ______ ____
ROOT
ATOM      1  O   UNL     1      11.336  11.710  23.574  0.00  0.00    -0.370 OA
ATOM      2  O   UNL     1      14.258  11.732  22.410  0.00  0.00    -0.370 OA
ATOM     14  C   UNL     1      13.284  10.698  22.646  0.00  0.00    +0.176 C 
ATOM     15  C   UNL     1      12.560  11.049  23.930  0.00  0.00    +0.172 C 
ATOM     16  C   UNL     1      12.212  10.744  21.574  0.00  0.00    +0.171 C 
ATOM     17  C   UNL     1      13.491  12.013  24.633  0.00  0.00    +0.131 C 
ATOM     18  C   UNL     1      11.197  11.727  22.146  0.00  0.00    +0.190 C 
ATOM     19  C   UNL     1      14.187  12.695  23.470  0.00  0.00    +0.185 C 
ENDROOT
BRANCH  17   6
ATOM      4  O   UNL     1      14.787  13.027  26.978  0.00  0.00    -0.252 OA
ATOM      6  N   UNL     1      14.434  11.312  25.469  0.00  0.00    -0.292 N 
ATOM      9  N   UNL     1      15.893  10.970  27.210  0.00  0.00    -0.269 N 
ATOM     21  C   UNL     1      15.025  11.882  26.603  0.00  0.00    +0.304 C 
ATOM     40  H   UNL     1      14.626  10.334  25.266  0.00  0.00    +0.151 HD
ATOM     41  H   UNL     1      16.100  10.151  26.649  0.00  0.00    +0.156 HD
BRANCH   9  22
ATOM     22  C   UNL     1      16.677  11.159  28.372  0.00  0.00    +0.042 A 
ATOM     24  C   UNL     1      16.296  10.618  29.602  0.00  0.00    +0.003 A 
ATOM     25  C   UNL     1      17.840  11.906  28.232  0.00  0.00    +0.024 A 
ATOM     26  C   UNL     1      17.120  10.841  30.730  0.00  0.00    -0.016 A 
ATOM     29  C   UNL     1      15.121   9.863  29.748  0.00  0.00    +0.010 A 
ATOM     30  C   UNL     1      18.651  12.125  29.342  0.00  0.00    +0.002 A 
ATOM     31  C   UNL     1      18.295  11.597  30.583  0.00  0.00    +0.008 A 
ATOM     34  C   UNL     1      16.745  10.302  31.971  0.00  0.00    +0.008 A 
ATOM     36  C   UNL     1      14.764   9.335  30.990  0.00  0.00    +0.001 A 
ATOM     37  C   UNL     1      15.576   9.554  32.099  0.00  0.00    +0.001 A 
ENDBRANCH   9  22
ENDBRANCH  17   6
BRANCH  16   5
ATOM      5  N   UNL     1      11.680   9.417  21.254  0.00  0.00    -0.187 N 
ATOM      7  N   UNL     1      10.613   8.933  21.898  0.00  0.00    -0.041 NA
ATOM      8  N   UNL     1      11.348   7.464  20.391  0.00  0.00    -0.071 NA
ATOM     10  N   UNL     1      10.413   7.735  21.364  0.00  0.00    -0.020 NA
ATOM     20  C   UNL     1      12.123   8.523  20.341  0.00  0.00    +0.342 A 
BRANCH  20   3
ATOM      3  O   UNL     1      13.162   8.703  19.545  0.00  0.00    -0.423 OA
BRANCH   3  23
ATOM     23  C   UNL     1      14.430   8.231  19.852  0.00  0.00    +0.132 A 
ATOM     27  C   UNL     1      15.405   9.132  20.238  0.00  0.00    +0.048 A 
ATOM     28  C   UNL     1      14.681   6.876  19.762  0.00  0.00    +0.048 A 
ATOM     32  C   UNL     1      16.680   8.656  20.545  0.00  0.00    +0.031 A 
ATOM     33  C   UNL     1      15.956   6.401  20.071  0.00  0.00    +0.031 A 
ATOM     35  C   UNL     1      16.956   7.292  20.462  0.00  0.00    +0.067 A 
BRANCH  35  11
ATOM     11  N   UNL     1      18.220   6.822  20.767  0.00  0.00    -0.220 N 
ATOM     12  N   UNL     1      18.820   5.865  20.035  0.00  0.00    -0.154 NA
ATOM     13  N   UNL     1      20.152   6.551  21.764  0.00  0.00    -0.222 NA
ATOM     38  C   UNL     1      19.025   7.221  21.793  0.00  0.00    +0.225 A 
ATOM     39  C   UNL     1      19.983   5.739  20.680  0.00  0.00    +0.245 A 
ENDBRANCH  35  11
ENDBRANCH   3  23
ENDBRANCH  20   3
ENDBRANCH  16   5
TORSDOF 6
ENDMDL
