MODEL 1
REMARK VINA RESULT:      -7.1      0.000      0.000
REMARK  Name = 51137588
REMARK  8 active torsions:
REMARK  status: ('A' for Active; 'I' for Inactive)
REMARK    1  A    between atoms: O_3  and  C_20
REMARK    2  A    between atoms: O_3  and  C_22
REMARK    3  A    between atoms: O_4  and  C_21
REMARK    4  A    between atoms: O_4  and  C_23
REMARK    5  A    between atoms: N_5  and  C_12
REMARK    6  A    between atoms: C_8  and  C_13
REMARK    7  A    between atoms: C_12  and  C_14
REMARK    8  A    between atoms: C_17  and  C_20
REMARK                            x       y       z     vdW  Elec       q    Type
REMARK                         _______ _______ _______ _____ _____    ______ ____
ROOT
ATOM      5  N   UNL     1      15.883   7.409  20.111  0.00  0.00    -0.297 NA
ATOM      8  C   UNL     1      13.675   6.672  20.388  0.00  0.00    +0.092 C 
ATOM      9  C   UNL     1      13.845   7.267  18.980  0.00  0.00    +0.029 C 
ATOM     10  C   UNL     1      14.902   7.163  21.169  0.00  0.00    +0.097 C 
ATOM     11  C   UNL     1      15.133   8.078  19.047  0.00  0.00    +0.085 C 
ENDROOT
BRANCH   8  13
ATOM      2  O   UNL     1      12.314   8.200  21.734  0.00  0.00    -0.421 OA
ATOM      6  N   UNL     1      11.249   6.331  21.120  0.00  0.00    -0.112 NA
ATOM      7  N   UNL     1      10.373   7.097  21.867  0.00  0.00    -0.109 NA
ATOM     13  C   UNL     1      12.369   7.013  21.068  0.00  0.00    +0.222 A 
ATOM     17  C   UNL     1      11.038   8.177  22.203  0.00  0.00    +0.254 A 
BRANCH  17  20
ATOM     20  C   UNL     1      10.601   9.335  22.995  0.00  0.00    +0.326 C 
BRANCH  20   3
ATOM      3  O   UNL     1      11.193  10.534  22.488  0.00  0.00    -0.483 OA
BRANCH   3  22
ATOM      1  F   UNL     1      10.460  15.083  25.482  0.00  0.00    -0.205 F 
ATOM     22  C   UNL     1      11.010  11.666  23.233  0.00  0.00    +0.121 A 
ATOM     24  C   UNL     1      10.895  12.904  22.602  0.00  0.00    +0.048 A 
ATOM     25  C   UNL     1      10.940  11.581  24.623  0.00  0.00    +0.048 A 
ATOM     26  C   UNL     1      10.709  14.058  23.362  0.00  0.00    +0.042 A 
ATOM     27  C   UNL     1      10.754  12.736  25.383  0.00  0.00    +0.042 A 
ATOM     28  C   UNL     1      10.639  13.975  24.753  0.00  0.00    +0.124 A 
ENDBRANCH   3  22
ENDBRANCH  20   3
ENDBRANCH  17  20
ENDBRANCH   8  13
BRANCH   5  12
ATOM     12  C   UNL     1      17.012   8.202  20.574  0.00  0.00    +0.119 C 
BRANCH  12  14
ATOM     14  C   UNL     1      18.211   7.345  20.883  0.00  0.00    -0.033 A 
ATOM     15  C   UNL     1      18.501   6.238  20.085  0.00  0.00    +0.008 A 
ATOM     16  C   UNL     1      19.031   7.658  21.967  0.00  0.00    +0.008 A 
ATOM     18  C   UNL     1      19.613   5.445  20.371  0.00  0.00    +0.046 A 
ATOM     19  C   UNL     1      20.142   6.865  22.254  0.00  0.00    +0.046 A 
ATOM     21  C   UNL     1      20.433   5.758  21.456  0.00  0.00    +0.120 A 
BRANCH  21   4
ATOM      4  O   UNL     1      21.517   4.985  21.734  0.00  0.00    -0.495 OA
ATOM     23  C   UNL     1      22.710   5.659  22.132  0.00  0.00    +0.277 C 
ENDBRANCH  21   4
ENDBRANCH  12  14
ENDBRANCH   5  12
TORSDOF 7
ENDMDL
MODEL 2
REMARK VINA RESULT:      -7.0     26.234     29.785
REMARK  Name = 51137588
REMARK  8 active torsions:
REMARK  status: ('A' for Active; 'I' for Inactive)
REMARK    1  A    between atoms: O_3  and  C_20
REMARK    2  A    between atoms: O_3  and  C_22
REMARK    3  A    between atoms: O_4  and  C_21
REMARK    4  A    between atoms: O_4  and  C_23
REMARK    5  A    between atoms: N_5  and  C_12
REMARK    6  A    between atoms: C_8  and  C_13
REMARK    7  A    between atoms: C_12  and  C_14
REMARK    8  A    between atoms: C_17  and  C_20
REMARK                            x       y       z     vdW  Elec       q    Type
REMARK                         _______ _______ _______ _____ _____    ______ ____
ROOT
ATOM      5  N   UNL     1     -14.221   6.476  21.943  0.00  0.00    -0.297 NA
ATOM      8  C   UNL     1     -14.869   5.006  23.650  0.00  0.00    +0.092 C 
ATOM      9  C   UNL     1     -13.385   4.782  23.315  0.00  0.00    +0.029 C 
ATOM     10  C   UNL     1     -15.417   5.815  22.467  0.00  0.00    +0.097 C 
ATOM     11  C   UNL     1     -13.182   5.446  21.959  0.00  0.00    +0.085 C 
ENDROOT
BRANCH   8  13
ATOM      2  O   UNL     1     -15.723   3.322  25.209  0.00  0.00    -0.421 OA
ATOM      6  N   UNL     1     -16.304   2.969  23.078  0.00  0.00    -0.112 NA
ATOM      7  N   UNL     1     -16.848   1.954  23.843  0.00  0.00    -0.109 NA
ATOM     13  C   UNL     1     -15.657   3.743  23.916  0.00  0.00    +0.222 A 
ATOM     17  C   UNL     1     -16.484   2.201  25.079  0.00  0.00    +0.254 A 
BRANCH  17  20
ATOM     20  C   UNL     1     -16.778   1.453  26.308  0.00  0.00    +0.326 C 
BRANCH  20   3
ATOM      3  O   UNL     1     -16.933   2.351  27.410  0.00  0.00    -0.483 OA
BRANCH   3  22
ATOM      1  F   UNL     1     -13.493   1.651  31.639  0.00  0.00    -0.205 F 
ATOM     22  C   UNL     1     -16.078   2.177  28.462  0.00  0.00    +0.121 A 
ATOM     24  C   UNL     1     -15.318   3.250  28.928  0.00  0.00    +0.048 A 
ATOM     25  C   UNL     1     -15.964   0.927  29.069  0.00  0.00    +0.048 A 
ATOM     26  C   UNL     1     -14.446   3.072  30.001  0.00  0.00    +0.042 A 
ATOM     27  C   UNL     1     -15.091   0.748  30.142  0.00  0.00    +0.042 A 
ATOM     28  C   UNL     1     -14.332   1.821  30.608  0.00  0.00    +0.124 A 
ENDBRANCH   3  22
ENDBRANCH  20   3
ENDBRANCH  17  20
ENDBRANCH   8  13
BRANCH   5  12
ATOM     12  C   UNL     1     -14.430   7.030  20.614  0.00  0.00    +0.119 C 
BRANCH  12  14
ATOM     14  C   UNL     1     -13.259   7.862  20.162  0.00  0.00    -0.033 A 
ATOM     15  C   UNL     1     -12.554   7.508  19.012  0.00  0.00    +0.008 A 
ATOM     16  C   UNL     1     -12.879   8.986  20.895  0.00  0.00    +0.008 A 
ATOM     18  C   UNL     1     -11.469   8.280  18.593  0.00  0.00    +0.046 A 
ATOM     19  C   UNL     1     -11.794   9.758  20.478  0.00  0.00    +0.046 A 
ATOM     21  C   UNL     1     -11.089   9.404  19.327  0.00  0.00    +0.120 A 
BRANCH  21   4
ATOM      4  O   UNL     1     -10.032  10.156  18.918  0.00  0.00    -0.495 OA
ATOM     23  C   UNL     1     -10.323  11.317  18.141  0.00  0.00    +0.277 C 
ENDBRANCH  21   4
ENDBRANCH  12  14
ENDBRANCH   5  12
TORSDOF 7
ENDMDL
MODEL 3
REMARK VINA RESULT:      -6.8     26.996     29.254
REMARK  Name = 51137588
REMARK  8 active torsions:
REMARK  status: ('A' for Active; 'I' for Inactive)
REMARK    1  A    between atoms: O_3  and  C_20
REMARK    2  A    between atoms: O_3  and  C_22
REMARK    3  A    between atoms: O_4  and  C_21
REMARK    4  A    between atoms: O_4  and  C_23
REMARK    5  A    between atoms: N_5  and  C_12
REMARK    6  A    between atoms: C_8  and  C_13
REMARK    7  A    between atoms: C_12  and  C_14
REMARK    8  A    between atoms: C_17  and  C_20
REMARK                            x       y       z     vdW  Elec       q    Type
REMARK                         _______ _______ _______ _____ _____    ______ ____
ROOT
ATOM      5  N   UNL     1      -2.313 -11.044  13.841  0.00  0.00    -0.297 NA
ATOM      8  C   UNL     1      -3.451 -10.636  15.849  0.00  0.00    +0.092 C 
ATOM      9  C   UNL     1      -1.939 -10.699  16.119  0.00  0.00    +0.029 C 
ATOM     10  C   UNL     1      -3.623 -11.258  14.456  0.00  0.00    +0.097 C 
ATOM     11  C   UNL     1      -1.345 -11.372  14.888  0.00  0.00    +0.085 C 
ENDROOT
BRANCH   8  13
ATOM      2  O   UNL     1      -4.920 -10.480  17.802  0.00  0.00    -0.421 OA
ATOM      6  N   UNL     1      -4.574 -12.571  17.086  0.00  0.00    -0.112 NA
ATOM      7  N   UNL     1      -5.413 -12.628  18.184  0.00  0.00    -0.109 NA
ATOM     13  C   UNL     1      -4.312 -11.299  16.900  0.00  0.00    +0.222 A 
ATOM     17  C   UNL     1      -5.588 -11.386  18.568  0.00  0.00    +0.254 A 
BRANCH  17  20
ATOM     20  C   UNL     1      -6.385 -10.854  19.680  0.00  0.00    +0.326 C 
BRANCH  20   3
ATOM      3  O   UNL     1      -7.628 -11.555  19.779  0.00  0.00    -0.483 OA
BRANCH   3  22
ATOM      1  F   UNL     1     -12.098  -8.876  18.035  0.00  0.00    -0.205 F 
ATOM     22  C   UNL     1      -8.739 -10.889  19.345  0.00  0.00    +0.121 A 
ATOM     24  C   UNL     1      -8.673 -10.091  18.203  0.00  0.00    +0.048 A 
ATOM     25  C   UNL     1      -9.940 -11.007  20.045  0.00  0.00    +0.048 A 
ATOM     26  C   UNL     1      -9.807  -9.411  17.761  0.00  0.00    +0.042 A 
ATOM     27  C   UNL     1     -11.075 -10.327  19.602  0.00  0.00    +0.042 A 
ATOM     28  C   UNL     1     -11.009  -9.529  18.461  0.00  0.00    +0.124 A 
ENDBRANCH   3  22
ENDBRANCH  20   3
ENDBRANCH  17  20
ENDBRANCH   8  13
BRANCH   5  12
ATOM     12  C   UNL     1      -2.124 -11.849  12.643  0.00  0.00    +0.119 C 
BRANCH  12  14
ATOM     14  C   UNL     1      -2.817 -11.248  11.449  0.00  0.00    -0.033 A 
ATOM     15  C   UNL     1      -2.659  -9.892  11.159  0.00  0.00    +0.008 A 
ATOM     16  C   UNL     1      -3.618 -12.046  10.632  0.00  0.00    +0.008 A 
ATOM     18  C   UNL     1      -3.301  -9.336  10.051  0.00  0.00    +0.046 A 
ATOM     19  C   UNL     1      -4.260 -11.491   9.526  0.00  0.00    +0.046 A 
ATOM     21  C   UNL     1      -4.102 -10.136   9.236  0.00  0.00    +0.120 A 
BRANCH  21   4
ATOM      4  O   UNL     1      -4.727  -9.593   8.156  0.00  0.00    -0.495 OA
ATOM     23  C   UNL     1      -6.136  -9.392   8.255  0.00  0.00    +0.277 C 
ENDBRANCH  21   4
ENDBRANCH  12  14
ENDBRANCH   5  12
TORSDOF 7
ENDMDL
MODEL 4
REMARK VINA RESULT:      -6.5     27.448     30.432
REMARK  Name = 51137588
REMARK  8 active torsions:
REMARK  status: ('A' for Active; 'I' for Inactive)
REMARK    1  A    between atoms: O_3  and  C_20
REMARK    2  A    between atoms: O_3  and  C_22
REMARK    3  A    between atoms: O_4  and  C_21
REMARK    4  A    between atoms: O_4  and  C_23
REMARK    5  A    between atoms: N_5  and  C_12
REMARK    6  A    between atoms: C_8  and  C_13
REMARK    7  A    between atoms: C_12  and  C_14
REMARK    8  A    between atoms: C_17  and  C_20
REMARK                            x       y       z     vdW  Elec       q    Type
REMARK                         _______ _______ _______ _____ _____    ______ ____
ROOT
ATOM      5  N   UNL     1      -6.098 -11.231  18.196  0.00  0.00    -0.297 NA
ATOM      8  C   UNL     1      -4.501 -10.343  16.728  0.00  0.00    +0.092 C 
ATOM      9  C   UNL     1      -5.810 -10.604  15.965  0.00  0.00    +0.029 C 
ATOM     10  C   UNL     1      -4.647 -11.135  18.034  0.00  0.00    +0.097 C 
ATOM     11  C   UNL     1      -6.607 -11.545  16.860  0.00  0.00    +0.085 C 
ENDROOT
BRANCH   8  13
ATOM      2  O   UNL     1      -3.381 -10.954  14.637  0.00  0.00    -0.421 OA
ATOM      6  N   UNL     1      -2.004 -10.778  16.392  0.00  0.00    -0.112 NA
ATOM      7  N   UNL     1      -1.248 -11.125  15.287  0.00  0.00    -0.109 NA
ATOM     13  C   UNL     1      -3.242 -10.690  15.966  0.00  0.00    +0.222 A 
ATOM     17  C   UNL     1      -2.093 -11.217  14.287  0.00  0.00    +0.254 A 
BRANCH  17  20
ATOM     20  C   UNL     1      -1.843 -11.552  12.880  0.00  0.00    +0.326 C 
BRANCH  20   3
ATOM      3  O   UNL     1      -1.877 -10.371  12.074  0.00  0.00    -0.483 OA
BRANCH   3  22
ATOM      1  F   UNL     1      -5.437 -10.365   7.888  0.00  0.00    -0.205 F 
ATOM     22  C   UNL     1      -2.762 -10.369  11.033  0.00  0.00    +0.121 A 
ATOM     24  C   UNL     1      -3.034  -9.184  10.351  0.00  0.00    +0.048 A 
ATOM     25  C   UNL     1      -3.394 -11.553  10.653  0.00  0.00    +0.048 A 
ATOM     26  C   UNL     1      -3.938  -9.183   9.289  0.00  0.00    +0.042 A 
ATOM     27  C   UNL     1      -4.298 -11.552   9.590  0.00  0.00    +0.042 A 
ATOM     28  C   UNL     1      -4.570 -10.367   8.908  0.00  0.00    +0.124 A 
ENDBRANCH   3  22
ENDBRANCH  20   3
ENDBRANCH  17  20
ENDBRANCH   8  13
BRANCH   5  12
ATOM     12  C   UNL     1      -6.482 -12.229  19.183  0.00  0.00    +0.119 C 
BRANCH  12  14
ATOM     14  C   UNL     1      -7.937 -12.120  19.554  0.00  0.00    -0.033 A 
ATOM     15  C   UNL     1      -8.591 -10.891  19.461  0.00  0.00    +0.008 A 
ATOM     16  C   UNL     1      -8.632 -13.248  19.991  0.00  0.00    +0.008 A 
ATOM     18  C   UNL     1      -9.940 -10.791  19.805  0.00  0.00    +0.046 A 
ATOM     19  C   UNL     1      -9.980 -13.148  20.335  0.00  0.00    +0.046 A 
ATOM     21  C   UNL     1     -10.634 -11.919  20.242  0.00  0.00    +0.120 A 
BRANCH  21   4
ATOM      4  O   UNL     1     -11.949 -11.821  20.576  0.00  0.00    -0.495 OA
ATOM     23  C   UNL     1     -12.571 -12.988  21.113  0.00  0.00    +0.277 C 
ENDBRANCH  21   4
ENDBRANCH  12  14
ENDBRANCH   5  12
TORSDOF 7
ENDMDL
MODEL 5
REMARK VINA RESULT:      -6.5      3.341      8.332
REMARK  Name = 51137588
REMARK  8 active torsions:
REMARK  status: ('A' for Active; 'I' for Inactive)
REMARK    1  A    between atoms: O_3  and  C_20
REMARK    2  A    between atoms: O_3  and  C_22
REMARK    3  A    between atoms: O_4  and  C_21
REMARK    4  A    between atoms: O_4  and  C_23
REMARK    5  A    between atoms: N_5  and  C_12
REMARK    6  A    between atoms: C_8  and  C_13
REMARK    7  A    between atoms: C_12  and  C_14
REMARK    8  A    between atoms: C_17  and  C_20
REMARK                            x       y       z     vdW  Elec       q    Type
REMARK                         _______ _______ _______ _____ _____    ______ ____
ROOT
ATOM      5  N   UNL     1      10.738   9.706  22.240  0.00  0.00    -0.297 NA
ATOM      8  C   UNL     1      10.926   8.556  20.206  0.00  0.00    +0.092 C 
ATOM      9  C   UNL     1      10.619   7.558  21.334  0.00  0.00    +0.029 C 
ATOM     10  C   UNL     1      11.375   9.834  20.928  0.00  0.00    +0.097 C 
ATOM     11  C   UNL     1      10.936   8.307  22.622  0.00  0.00    +0.085 C 
ENDROOT
BRANCH   8  13
ATOM      2  O   UNL     1      13.191   7.819  19.636  0.00  0.00    -0.421 OA
ATOM      6  N   UNL     1      11.779   7.850  17.901  0.00  0.00    -0.112 NA
ATOM      7  N   UNL     1      13.010   7.419  17.443  0.00  0.00    -0.109 NA
ATOM     13  C   UNL     1      11.931   8.072  19.185  0.00  0.00    +0.222 A 
ATOM     17  C   UNL     1      13.802   7.416  18.489  0.00  0.00    +0.254 A 
BRANCH  17  20
ATOM     20  C   UNL     1      15.220   7.045  18.588  0.00  0.00    +0.326 C 
BRANCH  20   3
ATOM      3  O   UNL     1      15.519   6.578  19.906  0.00  0.00    -0.483 OA
BRANCH   3  22
ATOM      1  F   UNL     1      20.017   8.660  22.280  0.00  0.00    -0.205 F 
ATOM     22  C   UNL     1      16.638   7.096  20.496  0.00  0.00    +0.121 A 
ATOM     24  C   UNL     1      17.789   6.316  20.615  0.00  0.00    +0.048 A 
ATOM     25  C   UNL     1      16.629   8.403  20.980  0.00  0.00    +0.048 A 
ATOM     26  C   UNL     1      18.929   6.845  21.217  0.00  0.00    +0.042 A 
ATOM     27  C   UNL     1      17.770   8.933  21.583  0.00  0.00    +0.042 A 
ATOM     28  C   UNL     1      18.921   8.153  21.701  0.00  0.00    +0.124 A 
ENDBRANCH   3  22
ENDBRANCH  20   3
ENDBRANCH  17  20
ENDBRANCH   8  13
BRANCH   5  12
ATOM     12  C   UNL     1      11.292  10.630  23.218  0.00  0.00    +0.119 C 
BRANCH  12  14
ATOM     14  C   UNL     1      11.769  11.907  22.578  0.00  0.00    -0.033 A 
ATOM     15  C   UNL     1      13.135  12.176  22.490  0.00  0.00    +0.008 A 
ATOM     16  C   UNL     1      10.844  12.820  22.072  0.00  0.00    +0.008 A 
ATOM     18  C   UNL     1      13.576  13.359  21.895  0.00  0.00    +0.046 A 
ATOM     19  C   UNL     1      11.285  14.003  21.478  0.00  0.00    +0.046 A 
ATOM     21  C   UNL     1      12.651  14.272  21.391  0.00  0.00    +0.120 A 
BRANCH  21   4
ATOM      4  O   UNL     1      13.081  15.425  20.810  0.00  0.00    -0.495 OA
ATOM     23  C   UNL     1      13.574  15.334  19.474  0.00  0.00    +0.277 C 
ENDBRANCH  21   4
ENDBRANCH  12  14
ENDBRANCH   5  12
TORSDOF 7
ENDMDL
MODEL 6
REMARK VINA RESULT:      -6.4     27.683     29.691
REMARK  Name = 51137588
REMARK  8 active torsions:
REMARK  status: ('A' for Active; 'I' for Inactive)
REMARK    1  A    between atoms: O_3  and  C_20
REMARK    2  A    between atoms: O_3  and  C_22
REMARK    3  A    between atoms: O_4  and  C_21
REMARK    4  A    between atoms: O_4  and  C_23
REMARK    5  A    between atoms: N_5  and  C_12
REMARK    6  A    between atoms: C_8  and  C_13
REMARK    7  A    between atoms: C_12  and  C_14
REMARK    8  A    between atoms: C_17  and  C_20
REMARK                            x       y       z     vdW  Elec       q    Type
REMARK                         _______ _______ _______ _____ _____    ______ ____
ROOT
ATOM      5  N   UNL     1      -3.106 -11.454  15.205  0.00  0.00    -0.297 NA
ATOM      8  C   UNL     1      -3.632 -11.338  12.924  0.00  0.00    +0.092 C 
ATOM      9  C   UNL     1      -2.340 -12.151  13.113  0.00  0.00    +0.029 C 
ATOM     10  C   UNL     1      -3.828 -10.604  14.257  0.00  0.00    +0.097 C 
ATOM     11  C   UNL     1      -1.864 -11.814  14.521  0.00  0.00    +0.085 C 
ENDROOT
BRANCH   8  13
ATOM      2  O   UNL     1      -4.764  -9.693  11.506  0.00  0.00    -0.421 OA
ATOM      6  N   UNL     1      -2.675 -10.168  10.862  0.00  0.00    -0.112 NA
ATOM      7  N   UNL     1      -3.192  -9.235   9.983  0.00  0.00    -0.109 NA
ATOM     13  C   UNL     1      -3.627 -10.407  11.733  0.00  0.00    +0.222 A 
ATOM     17  C   UNL     1      -4.413  -8.988  10.397  0.00  0.00    +0.254 A 
BRANCH  17  20
ATOM     20  C   UNL     1      -5.422  -8.076   9.844  0.00  0.00    +0.326 C 
BRANCH  20   3
ATOM      3  O   UNL     1      -6.562  -8.812   9.395  0.00  0.00    -0.483 OA
BRANCH   3  22
ATOM      1  F   UNL     1      -8.913  -7.080   4.739  0.00  0.00    -0.205 F 
ATOM     22  C   UNL     1      -7.147  -8.381   8.236  0.00  0.00    +0.121 A 
ATOM     24  C   UNL     1      -6.941  -9.082   7.048  0.00  0.00    +0.048 A 
ATOM     25  C   UNL     1      -7.950  -7.241   8.243  0.00  0.00    +0.048 A 
ATOM     26  C   UNL     1      -7.537  -8.642   5.868  0.00  0.00    +0.042 A 
ATOM     27  C   UNL     1      -8.547  -6.801   7.061  0.00  0.00    +0.042 A 
ATOM     28  C   UNL     1      -8.341  -7.502   5.873  0.00  0.00    +0.124 A 
ENDBRANCH   3  22
ENDBRANCH  20   3
ENDBRANCH  17  20
ENDBRANCH   8  13
BRANCH   5  12
ATOM     12  C   UNL     1      -2.864 -10.786  16.475  0.00  0.00    +0.119 C 
BRANCH  12  14
ATOM     14  C   UNL     1      -4.001 -10.987  17.441  0.00  0.00    -0.033 A 
ATOM     15  C   UNL     1      -5.213 -10.326  17.239  0.00  0.00    +0.008 A 
ATOM     16  C   UNL     1      -3.843 -11.834  18.538  0.00  0.00    +0.008 A 
ATOM     18  C   UNL     1      -6.267 -10.514  18.134  0.00  0.00    +0.046 A 
ATOM     19  C   UNL     1      -4.896 -12.021  19.434  0.00  0.00    +0.046 A 
ATOM     21  C   UNL     1      -6.108 -11.360  19.232  0.00  0.00    +0.120 A 
BRANCH  21   4
ATOM      4  O   UNL     1      -7.137 -11.543  20.103  0.00  0.00    -0.495 OA
ATOM     23  C   UNL     1      -8.074 -12.573  19.794  0.00  0.00    +0.277 C 
ENDBRANCH  21   4
ENDBRANCH  12  14
ENDBRANCH   5  12
TORSDOF 7
ENDMDL
MODEL 7
REMARK VINA RESULT:      -6.4     28.594     30.908
REMARK  Name = 51137588
REMARK  8 active torsions:
REMARK  status: ('A' for Active; 'I' for Inactive)
REMARK    1  A    between atoms: O_3  and  C_20
REMARK    2  A    between atoms: O_3  and  C_22
REMARK    3  A    between atoms: O_4  and  C_21
REMARK    4  A    between atoms: O_4  and  C_23
REMARK    5  A    between atoms: N_5  and  C_12
REMARK    6  A    between atoms: C_8  and  C_13
REMARK    7  A    between atoms: C_12  and  C_14
REMARK    8  A    between atoms: C_17  and  C_20
REMARK                            x       y       z     vdW  Elec       q    Type
REMARK                         _______ _______ _______ _____ _____    ______ ____
ROOT
ATOM      5  N   UNL     1      -9.431  -8.970  16.928  0.00  0.00    -0.297 NA
ATOM      8  C   UNL     1     -11.118  -7.348  16.788  0.00  0.00    +0.092 C 
ATOM      9  C   UNL     1     -11.684  -8.622  17.437  0.00  0.00    +0.029 C 
ATOM     10  C   UNL     1      -9.800  -7.793  16.140  0.00  0.00    +0.097 C 
ATOM     11  C   UNL     1     -10.678  -9.716  17.100  0.00  0.00    +0.085 C 
ENDROOT
BRANCH   8  13
ATOM      2  O   UNL     1     -11.482  -5.833  14.898  0.00  0.00    -0.421 OA
ATOM      6  N   UNL     1     -13.357  -6.744  15.710  0.00  0.00    -0.112 NA
ATOM      7  N   UNL     1     -13.703  -5.919  14.656  0.00  0.00    -0.109 NA
ATOM     13  C   UNL     1     -12.051  -6.663  15.815  0.00  0.00    +0.222 A 
ATOM     17  C   UNL     1     -12.578  -5.409  14.214  0.00  0.00    +0.254 A 
BRANCH  17  20
ATOM     20  C   UNL     1     -12.348  -4.470  13.108  0.00  0.00    +0.326 C 
BRANCH  20   3
ATOM      3  O   UNL     1     -13.431  -3.541  13.013  0.00  0.00    -0.483 OA
BRANCH   3  22
ATOM      1  F   UNL     1     -15.332  -2.507   7.961  0.00  0.00    -0.205 F 
ATOM     22  C   UNL     1     -13.904  -3.283  11.757  0.00  0.00    +0.121 A 
ATOM     24  C   UNL     1     -15.175  -2.733  11.589  0.00  0.00    +0.048 A 
ATOM     25  C   UNL     1     -13.116  -3.571  10.643  0.00  0.00    +0.048 A 
ATOM     26  C   UNL     1     -15.657  -2.471  10.307  0.00  0.00    +0.042 A 
ATOM     27  C   UNL     1     -13.598  -3.309   9.360  0.00  0.00    +0.042 A 
ATOM     28  C   UNL     1     -14.869  -2.759   9.192  0.00  0.00    +0.124 A 
ENDBRANCH   3  22
ENDBRANCH  20   3
ENDBRANCH  17  20
ENDBRANCH   8  13
BRANCH   5  12
ATOM     12  C   UNL     1      -8.395  -9.765  16.288  0.00  0.00    +0.119 C 
BRANCH  12  14
ATOM     14  C   UNL     1      -7.368 -10.249  17.277  0.00  0.00    -0.033 A 
ATOM     15  C   UNL     1      -7.755 -10.601  18.570  0.00  0.00    +0.008 A 
ATOM     16  C   UNL     1      -6.028 -10.346  16.900  0.00  0.00    +0.008 A 
ATOM     18  C   UNL     1      -6.803 -11.050  19.486  0.00  0.00    +0.046 A 
ATOM     19  C   UNL     1      -5.076 -10.794  17.815  0.00  0.00    +0.046 A 
ATOM     21  C   UNL     1      -5.463 -11.146  19.108  0.00  0.00    +0.120 A 
BRANCH  21   4
ATOM      4  O   UNL     1      -4.535 -11.584  20.001  0.00  0.00    -0.495 OA
ATOM     23  C   UNL     1      -3.414 -12.295  19.476  0.00  0.00    +0.277 C 
ENDBRANCH  21   4
ENDBRANCH  12  14
ENDBRANCH   5  12
TORSDOF 7
ENDMDL
MODEL 8
REMARK VINA RESULT:      -6.3     28.595     30.660
REMARK  Name = 51137588
REMARK  8 active torsions:
REMARK  status: ('A' for Active; 'I' for Inactive)
REMARK    1  A    between atoms: O_3  and  C_20
REMARK    2  A    between atoms: O_3  and  C_22
REMARK    3  A    between atoms: O_4  and  C_21
REMARK    4  A    between atoms: O_4  and  C_23
REMARK    5  A    between atoms: N_5  and  C_12
REMARK    6  A    between atoms: C_8  and  C_13
REMARK    7  A    between atoms: C_12  and  C_14
REMARK    8  A    between atoms: C_17  and  C_20
REMARK                            x       y       z     vdW  Elec       q    Type
REMARK                         _______ _______ _______ _____ _____    ______ ____
ROOT
ATOM      5  N   UNL     1      -9.664  -8.660  16.346  0.00  0.00    -0.297 NA
ATOM      8  C   UNL     1     -11.392  -7.077  16.288  0.00  0.00    +0.092 C 
ATOM      9  C   UNL     1     -11.949  -8.428  16.767  0.00  0.00    +0.029 C 
ATOM     10  C   UNL     1     -10.029  -7.416  15.668  0.00  0.00    +0.097 C 
ATOM     11  C   UNL     1     -10.894  -9.453  16.371  0.00  0.00    +0.085 C 
ENDROOT
BRANCH   8  13
ATOM      2  O   UNL     1     -11.699  -5.424  14.507  0.00  0.00    -0.421 OA
ATOM      6  N   UNL     1     -13.598  -6.383  15.198  0.00  0.00    -0.112 NA
ATOM      7  N   UNL     1     -13.913  -5.479  14.200  0.00  0.00    -0.109 NA
ATOM     13  C   UNL     1     -12.296  -6.317  15.344  0.00  0.00    +0.222 A 
ATOM     17  C   UNL     1     -12.775  -4.944  13.828  0.00  0.00    +0.254 A 
BRANCH  17  20
ATOM     20  C   UNL     1     -12.512  -3.926  12.802  0.00  0.00    +0.326 C 
BRANCH  20   3
ATOM      3  O   UNL     1     -13.018  -4.355  11.536  0.00  0.00    -0.483 OA
BRANCH   3  22
ATOM      1  F   UNL     1      -9.286  -5.679   7.726  0.00  0.00    -0.205 F 
ATOM     22  C   UNL     1     -12.089  -4.684  10.588  0.00  0.00    +0.121 A 
ATOM     24  C   UNL     1     -11.375  -3.681   9.934  0.00  0.00    +0.048 A 
ATOM     25  C   UNL     1     -11.857  -6.023  10.275  0.00  0.00    +0.048 A 
ATOM     26  C   UNL     1     -10.428  -4.018   8.967  0.00  0.00    +0.042 A 
ATOM     27  C   UNL     1     -10.910  -6.360   9.308  0.00  0.00    +0.042 A 
ATOM     28  C   UNL     1     -10.195  -5.357   8.654  0.00  0.00    +0.124 A 
ENDBRANCH   3  22
ENDBRANCH  20   3
ENDBRANCH  17  20
ENDBRANCH   8  13
BRANCH   5  12
ATOM     12  C   UNL     1      -8.571  -9.355  15.682  0.00  0.00    +0.119 C 
BRANCH  12  14
ATOM     14  C   UNL     1      -7.522  -9.814  16.659  0.00  0.00    -0.033 A 
ATOM     15  C   UNL     1      -6.189  -9.911  16.258  0.00  0.00    +0.008 A 
ATOM     16  C   UNL     1      -7.882 -10.142  17.966  0.00  0.00    +0.008 A 
ATOM     18  C   UNL     1      -5.217 -10.335  17.164  0.00  0.00    +0.046 A 
ATOM     19  C   UNL     1      -6.910 -10.567  18.872  0.00  0.00    +0.046 A 
ATOM     21  C   UNL     1      -5.578 -10.664  18.471  0.00  0.00    +0.120 A 
BRANCH  21   4
ATOM      4  O   UNL     1      -4.629 -11.076  19.354  0.00  0.00    -0.495 OA
ATOM     23  C   UNL     1      -4.069 -12.373  19.148  0.00  0.00    +0.277 C 
ENDBRANCH  21   4
ENDBRANCH  12  14
ENDBRANCH   5  12
TORSDOF 7
ENDMDL
MODEL 9
REMARK VINA RESULT:      -6.2     27.348     30.690
REMARK  Name = 51137588
REMARK  8 active torsions:
REMARK  status: ('A' for Active; 'I' for Inactive)
REMARK    1  A    between atoms: O_3  and  C_20
REMARK    2  A    between atoms: O_3  and  C_22
REMARK    3  A    between atoms: O_4  and  C_21
REMARK    4  A    between atoms: O_4  and  C_23
REMARK    5  A    between atoms: N_5  and  C_12
REMARK    6  A    between atoms: C_8  and  C_13
REMARK    7  A    between atoms: C_12  and  C_14
REMARK    8  A    between atoms: C_17  and  C_20
REMARK                            x       y       z     vdW  Elec       q    Type
REMARK                         _______ _______ _______ _____ _____    ______ ____
ROOT
ATOM      5  N   UNL     1       1.714   3.980  -6.189  0.00  0.00    -0.297 NA
ATOM      8  C   UNL     1       2.801   5.218  -4.521  0.00  0.00    +0.092 C 
ATOM      9  C   UNL     1       1.983   6.166  -5.413  0.00  0.00    +0.029 C 
ATOM     10  C   UNL     1       2.891   3.911  -5.321  0.00  0.00    +0.097 C 
ATOM     11  C   UNL     1       1.680   5.361  -6.671  0.00  0.00    +0.085 C 
ENDROOT
BRANCH   8  13
ATOM      2  O   UNL     1       5.234   5.285  -4.794  0.00  0.00    -0.421 OA
ATOM      6  N   UNL     1       4.463   6.606  -3.162  0.00  0.00    -0.112 NA
ATOM      7  N   UNL     1       5.839   6.740  -3.207  0.00  0.00    -0.109 NA
ATOM     13  C   UNL     1       4.155   5.748  -4.105  0.00  0.00    +0.222 A 
ATOM     17  C   UNL     1       6.245   5.951  -4.174  0.00  0.00    +0.254 A 
BRANCH  17  20
ATOM     20  C   UNL     1       7.606   5.698  -4.665  0.00  0.00    +0.326 C 
BRANCH  20   3
ATOM      3  O   UNL     1       8.553   5.853  -3.605  0.00  0.00    -0.483 OA
BRANCH   3  22
ATOM      1  F   UNL     1      11.595   1.445  -2.375  0.00  0.00    -0.205 F 
ATOM     22  C   UNL     1       9.309   4.757  -3.298  0.00  0.00    +0.121 A 
ATOM     24  C   UNL     1      10.262   4.829  -2.283  0.00  0.00    +0.048 A 
ATOM     25  C   UNL     1       9.129   3.567  -4.003  0.00  0.00    +0.048 A 
ATOM     26  C   UNL     1      11.034   3.710  -1.971  0.00  0.00    +0.042 A 
ATOM     27  C   UNL     1       9.901   2.447  -3.691  0.00  0.00    +0.042 A 
ATOM     28  C   UNL     1      10.854   2.519  -2.675  0.00  0.00    +0.124 A 
ENDBRANCH   3  22
ENDBRANCH  20   3
ENDBRANCH  17  20
ENDBRANCH   8  13
BRANCH   5  12
ATOM     12  C   UNL     1       1.769   3.016  -7.277  0.00  0.00    +0.119 C 
BRANCH  12  14
ATOM     14  C   UNL     1       0.635   2.027  -7.209  0.00  0.00    -0.033 A 
ATOM     15  C   UNL     1      -0.401   2.087  -8.141  0.00  0.00    +0.008 A 
ATOM     16  C   UNL     1       0.621   1.051  -6.213  0.00  0.00    +0.008 A 
ATOM     18  C   UNL     1      -1.450   1.170  -8.077  0.00  0.00    +0.046 A 
ATOM     19  C   UNL     1      -0.428   0.134  -6.148  0.00  0.00    +0.046 A 
ATOM     21  C   UNL     1      -1.464   0.194  -7.080  0.00  0.00    +0.120 A 
BRANCH  21   4
ATOM      4  O   UNL     1      -2.488  -0.700  -7.019  0.00  0.00    -0.495 OA
ATOM     23  C   UNL     1      -3.680  -0.371  -7.731  0.00  0.00    +0.277 C 
ENDBRANCH  21   4
ENDBRANCH  12  14
ENDBRANCH   5  12
TORSDOF 7
ENDMDL
MODEL 10
REMARK VINA RESULT:      -6.2     27.737     30.025
REMARK  Name = 51137588
REMARK  8 active torsions:
REMARK  status: ('A' for Active; 'I' for Inactive)
REMARK    1  A    between atoms: O_3  and  C_20
REMARK    2  A    between atoms: O_3  and  C_22
REMARK    3  A    between atoms: O_4  and  C_21
REMARK    4  A    between atoms: O_4  and  C_23
REMARK    5  A    between atoms: N_5  and  C_12
REMARK    6  A    between atoms: C_8  and  C_13
REMARK    7  A    between atoms: C_12  and  C_14
REMARK    8  A    between atoms: C_17  and  C_20
REMARK                            x       y       z     vdW  Elec       q    Type
REMARK                         _______ _______ _______ _____ _____    ______ ____
ROOT
ATOM      5  N   UNL     1      -3.048 -11.438  15.249  0.00  0.00    -0.297 NA
ATOM      8  C   UNL     1      -3.539 -11.358  12.958  0.00  0.00    +0.092 C 
ATOM      9  C   UNL     1      -2.236 -12.144  13.177  0.00  0.00    +0.029 C 
ATOM     10  C   UNL     1      -3.770 -10.612  14.279  0.00  0.00    +0.097 C 
ATOM     11  C   UNL     1      -1.789 -11.783  14.588  0.00  0.00    +0.085 C 
ENDROOT
BRANCH   8  13
ATOM      2  O   UNL     1      -4.737  -9.964  11.339  0.00  0.00    -0.421 OA
ATOM      6  N   UNL     1      -2.521 -10.015  11.035  0.00  0.00    -0.112 NA
ATOM      7  N   UNL     1      -3.068  -9.199  10.062  0.00  0.00    -0.109 NA
ATOM     13  C   UNL     1      -3.531 -10.439  11.757  0.00  0.00    +0.222 A 
ATOM     17  C   UNL     1      -4.362  -9.199  10.278  0.00  0.00    +0.254 A 
BRANCH  17  20
ATOM     20  C   UNL     1      -5.432  -8.502   9.553  0.00  0.00    +0.326 C 
BRANCH  20   3
ATOM      3  O   UNL     1      -6.394  -9.441   9.066  0.00  0.00    -0.483 OA
BRANCH   3  22
ATOM      1  F   UNL     1      -5.536 -11.431   4.016  0.00  0.00    -0.205 F 
ATOM     22  C   UNL     1      -6.181  -9.936   7.810  0.00  0.00    +0.121 A 
ATOM     24  C   UNL     1      -5.338 -11.032   7.627  0.00  0.00    +0.048 A 
ATOM     25  C   UNL     1      -6.805  -9.345   6.712  0.00  0.00    +0.048 A 
ATOM     26  C   UNL     1      -5.121 -11.537   6.345  0.00  0.00    +0.042 A 
ATOM     27  C   UNL     1      -6.588  -9.850   5.430  0.00  0.00    +0.042 A 
ATOM     28  C   UNL     1      -5.745 -10.946   5.246  0.00  0.00    +0.124 A 
ENDBRANCH   3  22
ENDBRANCH  20   3
ENDBRANCH  17  20
ENDBRANCH   8  13
BRANCH   5  12
ATOM     12  C   UNL     1      -2.838 -10.752  16.515  0.00  0.00    +0.119 C 
BRANCH  12  14
ATOM     14  C   UNL     1      -3.968 -10.997  17.480  0.00  0.00    -0.033 A 
ATOM     15  C   UNL     1      -5.208 -10.393  17.272  0.00  0.00    +0.008 A 
ATOM     16  C   UNL     1      -3.774 -11.829  18.583  0.00  0.00    +0.008 A 
ATOM     18  C   UNL     1      -6.255 -10.622  18.166  0.00  0.00    +0.046 A 
ATOM     19  C   UNL     1      -4.820 -12.057  19.478  0.00  0.00    +0.046 A 
ATOM     21  C   UNL     1      -6.060 -11.453  19.269  0.00  0.00    +0.120 A 
BRANCH  21   4
ATOM      4  O   UNL     1      -7.081 -11.677  20.140  0.00  0.00    -0.495 OA
ATOM     23  C   UNL     1      -8.024 -12.688  19.788  0.00  0.00    +0.277 C 
ENDBRANCH  21   4
ENDBRANCH  12  14
ENDBRANCH   5  12
TORSDOF 7
ENDMDL
