MODEL 1
REMARK VINA RESULT:      -6.7      0.000      0.000
REMARK  Name = 75536671
REMARK  9 active torsions:
REMARK  status: ('A' for Active; 'I' for Inactive)
REMARK    1  A    between atoms: S_1  and  N_7
REMARK    2  A    between atoms: S_1  and  C_16
REMARK    3  A    between atoms: O_3  and  C_10
REMARK    4  A    between atoms: N_6  and  C_9
REMARK    5  A    between atoms: N_6  and  C_14
REMARK    6  A    between atoms: N_7  and  C_13
REMARK    7  A    between atoms: C_11  and  C_13
REMARK    8  A    between atoms: C_14  and  C_15
REMARK    9  A    between atoms: C_19  and  C_22
REMARK                            x       y       z     vdW  Elec       q    Type
REMARK                         _______ _______ _______ _____ _____    ______ ____
ROOT
ATOM      2  O   UNL     1      11.479   9.067  20.309  0.00  0.00    -0.371 OA
ATOM      9  C   UNL     1      12.706   7.085  19.849  0.00  0.00    +0.111 C 
ATOM     10  C   UNL     1      12.179   7.023  21.271  0.00  0.00    +0.164 C 
ATOM     11  C   UNL     1      11.042   8.033  21.207  0.00  0.00    +0.164 C 
ATOM     12  C   UNL     1      12.600   8.574  19.555  0.00  0.00    +0.181 C 
ENDROOT
BRANCH  10   3
ATOM      3  O   UNL     1      11.719   5.733  21.626  0.00  0.00    -0.388 OA
ATOM     24  H   UNL     1      11.404   5.289  20.821  0.00  0.00    +0.210 HD
ENDBRANCH  10   3
BRANCH   9   6
ATOM      6  N   UNL     1      14.060   6.575  19.705  0.00  0.00    -0.305 NA
ATOM     23  H   UNL     1      14.174   6.197  18.764  0.00  0.00    +0.123 HD
BRANCH   6  14
ATOM     14  C   UNL     1      15.044   7.632  19.911  0.00  0.00    +0.116 C 
BRANCH  14  15
ATOM     15  C   UNL     1      16.434   7.078  20.076  0.00  0.00    -0.032 A 
ATOM     17  C   UNL     1      17.265   7.565  21.085  0.00  0.00    +0.023 A 
ATOM     18  C   UNL     1      16.891   6.078  19.218  0.00  0.00    +0.005 A 
ATOM     19  C   UNL     1      18.552   7.051  21.237  0.00  0.00    +0.052 A 
ATOM     20  C   UNL     1      18.179   5.564  19.371  0.00  0.00    +0.002 A 
ATOM     21  C   UNL     1      19.009   6.051  20.379  0.00  0.00    +0.019 A 
BRANCH  19  22
ATOM      8  N   UNL     1      20.095   7.951  23.113  0.00  0.00    -0.191 NA
ATOM     22  C   UNL     1      19.404   7.549  22.272  0.00  0.00    +0.099 C 
ENDBRANCH  19  22
ENDBRANCH  14  15
ENDBRANCH   6  14
ENDBRANCH   9   6
BRANCH  11  13
ATOM     13  C   UNL     1      10.700   8.637  22.558  0.00  0.00    +0.139 C 
BRANCH  13   7
ATOM      7  N   UNL     1      11.781   9.551  22.980  0.00  0.00    -0.192 NA
ATOM     25  H   UNL     1      12.677   9.367  22.509  0.00  0.00    +0.148 HD
BRANCH   7   1
ATOM      1  S   UNL     1      11.413  11.187  23.290  0.00  0.00    +0.027 S 
ATOM      4  O   UNL     1      10.563  11.288  24.458  0.00  0.00    -0.158 OA
ATOM      5  O   UNL     1      11.034  11.816  22.039  0.00  0.00    -0.158 OA
ATOM     16  C   UNL     1      13.022  11.806  23.727  0.00  0.00    +0.214 C 
ENDBRANCH   7   1
ENDBRANCH  13   7
ENDBRANCH  11  13
TORSDOF 8
ENDMDL
MODEL 2
REMARK VINA RESULT:      -6.0     26.037     28.045
REMARK  Name = 75536671
REMARK  9 active torsions:
REMARK  status: ('A' for Active; 'I' for Inactive)
REMARK    1  A    between atoms: S_1  and  N_7
REMARK    2  A    between atoms: S_1  and  C_16
REMARK    3  A    between atoms: O_3  and  C_10
REMARK    4  A    between atoms: N_6  and  C_9
REMARK    5  A    between atoms: N_6  and  C_14
REMARK    6  A    between atoms: N_7  and  C_13
REMARK    7  A    between atoms: C_11  and  C_13
REMARK    8  A    between atoms: C_14  and  C_15
REMARK    9  A    between atoms: C_19  and  C_22
REMARK                            x       y       z     vdW  Elec       q    Type
REMARK                         _______ _______ _______ _____ _____    ______ ____
ROOT
ATOM      2  O   UNL     1     -15.424   7.531  22.120  0.00  0.00    -0.371 OA
ATOM      9  C   UNL     1     -13.562   6.529  21.035  0.00  0.00    +0.111 C 
ATOM     10  C   UNL     1     -13.967   5.671  22.220  0.00  0.00    +0.164 C 
ATOM     11  C   UNL     1     -15.401   6.129  22.438  0.00  0.00    +0.164 C 
ATOM     12  C   UNL     1     -14.233   7.850  21.379  0.00  0.00    +0.181 C 
ENDROOT
BRANCH  10   3
ATOM      3  O   UNL     1     -13.891   4.286  21.941  0.00  0.00    -0.388 OA
ATOM     24  H   UNL     1     -13.823   3.808  22.784  0.00  0.00    +0.210 HD
ENDBRANCH  10   3
BRANCH   9   6
ATOM      6  N   UNL     1     -12.124   6.652  20.867  0.00  0.00    -0.305 NA
ATOM     23  H   UNL     1     -11.852   6.207  19.989  0.00  0.00    +0.123 HD
BRANCH   6  14
ATOM     14  C   UNL     1     -11.716   8.052  20.832  0.00  0.00    +0.116 C 
BRANCH  14  15
ATOM     15  C   UNL     1     -11.205   8.453  19.473  0.00  0.00    -0.032 A 
ATOM     17  C   UNL     1     -10.815   9.771  19.235  0.00  0.00    +0.023 A 
ATOM     18  C   UNL     1     -11.120   7.505  18.454  0.00  0.00    +0.005 A 
ATOM     19  C   UNL     1     -10.340  10.141  17.977  0.00  0.00    +0.052 A 
ATOM     20  C   UNL     1     -10.645   7.876  17.195  0.00  0.00    +0.002 A 
ATOM     21  C   UNL     1     -10.256   9.193  16.957  0.00  0.00    +0.019 A 
BRANCH  19  22
ATOM      8  N   UNL     1      -9.615  12.588  17.534  0.00  0.00    -0.191 NA
ATOM     22  C   UNL     1      -9.941  11.491  17.732  0.00  0.00    +0.099 C 
ENDBRANCH  19  22
ENDBRANCH  14  15
ENDBRANCH   6  14
ENDBRANCH   9   6
BRANCH  11  13
ATOM     13  C   UNL     1     -15.888   5.919  23.861  0.00  0.00    +0.139 C 
BRANCH  13   7
ATOM      7  N   UNL     1     -15.352   4.647  24.386  0.00  0.00    -0.192 NA
ATOM     25  H   UNL     1     -14.780   4.764  25.233  0.00  0.00    +0.148 HD
BRANCH   7   1
ATOM      1  S   UNL     1     -16.322   3.246  24.319  0.00  0.00    +0.027 S 
ATOM      4  O   UNL     1     -16.049   2.402  25.465  0.00  0.00    -0.158 OA
ATOM      5  O   UNL     1     -16.261   2.710  22.972  0.00  0.00    -0.158 OA
ATOM     16  C   UNL     1     -17.937   3.956  24.533  0.00  0.00    +0.214 C 
ENDBRANCH   7   1
ENDBRANCH  13   7
ENDBRANCH  11  13
TORSDOF 8
ENDMDL
MODEL 3
REMARK VINA RESULT:      -5.7     26.379     28.321
REMARK  Name = 75536671
REMARK  9 active torsions:
REMARK  status: ('A' for Active; 'I' for Inactive)
REMARK    1  A    between atoms: S_1  and  N_7
REMARK    2  A    between atoms: S_1  and  C_16
REMARK    3  A    between atoms: O_3  and  C_10
REMARK    4  A    between atoms: N_6  and  C_9
REMARK    5  A    between atoms: N_6  and  C_14
REMARK    6  A    between atoms: N_7  and  C_13
REMARK    7  A    between atoms: C_11  and  C_13
REMARK    8  A    between atoms: C_14  and  C_15
REMARK    9  A    between atoms: C_19  and  C_22
REMARK                            x       y       z     vdW  Elec       q    Type
REMARK                         _______ _______ _______ _____ _____    ______ ____
ROOT
ATOM      2  O   UNL     1      -7.561 -13.111  18.135  0.00  0.00    -0.371 OA
ATOM      9  C   UNL     1      -5.339 -12.527  18.739  0.00  0.00    +0.111 C 
ATOM     10  C   UNL     1      -6.302 -11.547  19.384  0.00  0.00    +0.164 C 
ATOM     11  C   UNL     1      -7.598 -12.344  19.350  0.00  0.00    +0.164 C 
ATOM     12  C   UNL     1      -6.209 -13.126  17.645  0.00  0.00    +0.181 C 
ENDROOT
BRANCH  10   3
ATOM      3  O   UNL     1      -5.928 -11.204  20.704  0.00  0.00    -0.388 OA
ATOM     24  H   UNL     1      -6.174 -10.276  20.860  0.00  0.00    +0.210 HD
ENDBRANCH  10   3
BRANCH   9   6
ATOM      6  N   UNL     1      -4.131 -11.904  18.223  0.00  0.00    -0.305 NA
ATOM     23  H   UNL     1      -3.623 -12.583  17.654  0.00  0.00    +0.123 HD
BRANCH   6  14
ATOM     14  C   UNL     1      -4.448 -10.743  17.400  0.00  0.00    +0.116 C 
BRANCH  14  15
ATOM     15  C   UNL     1      -3.579 -10.671  16.172  0.00  0.00    -0.032 A 
ATOM     17  C   UNL     1      -4.162 -10.628  14.906  0.00  0.00    +0.023 A 
ATOM     18  C   UNL     1      -2.191 -10.648  16.303  0.00  0.00    +0.005 A 
ATOM     19  C   UNL     1      -3.355 -10.561  13.770  0.00  0.00    +0.052 A 
ATOM     20  C   UNL     1      -1.385 -10.580  15.166  0.00  0.00    +0.002 A 
ATOM     21  C   UNL     1      -1.967 -10.537  13.900  0.00  0.00    +0.019 A 
BRANCH  19  22
ATOM      8  N   UNL     1      -4.436 -10.478  11.417  0.00  0.00    -0.191 NA
ATOM     22  C   UNL     1      -3.952 -10.516  12.471  0.00  0.00    +0.099 C 
ENDBRANCH  19  22
ENDBRANCH  14  15
ENDBRANCH   6  14
ENDBRANCH   9   6
BRANCH  11  13
ATOM     13  C   UNL     1      -8.840 -11.470  19.367  0.00  0.00    +0.139 C 
BRANCH  13   7
ATOM      7  N   UNL     1      -8.490 -10.102  18.933  0.00  0.00    -0.192 NA
ATOM     25  H   UNL     1      -7.600  -9.766  19.325  0.00  0.00    +0.148 HD
BRANCH   7   1
ATOM      1  S   UNL     1      -8.839  -9.623  17.334  0.00  0.00    +0.027 S 
ATOM      4  O   UNL     1      -7.760 -10.022  16.453  0.00  0.00    -0.158 OA
ATOM      5  O   UNL     1      -9.307  -8.250  17.359  0.00  0.00    -0.158 OA
ATOM     16  C   UNL     1     -10.244 -10.655  16.983  0.00  0.00    +0.214 C 
ENDBRANCH   7   1
ENDBRANCH  13   7
ENDBRANCH  11  13
TORSDOF 8
ENDMDL
MODEL 4
REMARK VINA RESULT:      -5.7     25.441     27.645
REMARK  Name = 75536671
REMARK  9 active torsions:
REMARK  status: ('A' for Active; 'I' for Inactive)
REMARK    1  A    between atoms: S_1  and  N_7
REMARK    2  A    between atoms: S_1  and  C_16
REMARK    3  A    between atoms: O_3  and  C_10
REMARK    4  A    between atoms: N_6  and  C_9
REMARK    5  A    between atoms: N_6  and  C_14
REMARK    6  A    between atoms: N_7  and  C_13
REMARK    7  A    between atoms: C_11  and  C_13
REMARK    8  A    between atoms: C_14  and  C_15
REMARK    9  A    between atoms: C_19  and  C_22
REMARK                            x       y       z     vdW  Elec       q    Type
REMARK                         _______ _______ _______ _____ _____    ______ ____
ROOT
ATOM      2  O   UNL     1     -11.961  10.501  15.419  0.00  0.00    -0.371 OA
ATOM      9  C   UNL     1     -10.116   9.540  16.567  0.00  0.00    +0.111 C 
ATOM     10  C   UNL     1     -11.023   8.430  16.068  0.00  0.00    +0.164 C 
ATOM     11  C   UNL     1     -11.788   9.148  14.966  0.00  0.00    +0.164 C 
ATOM     12  C   UNL     1     -11.049  10.740  16.506  0.00  0.00    +0.181 C 
ENDROOT
BRANCH  10   3
ATOM      3  O   UNL     1     -10.302   7.318  15.573  0.00  0.00    -0.388 OA
ATOM     24  H   UNL     1      -9.695   7.632  14.881  0.00  0.00    +0.210 HD
ENDBRANCH  10   3
BRANCH   9   6
ATOM      6  N   UNL     1      -9.584   9.305  17.899  0.00  0.00    -0.305 NA
ATOM     23  H   UNL     1      -8.603   9.587  17.920  0.00  0.00    +0.123 HD
BRANCH   6  14
ATOM     14  C   UNL     1     -10.316  10.072  18.900  0.00  0.00    +0.116 C 
BRANCH  14  15
ATOM     15  C   UNL     1     -11.176   9.188  19.765  0.00  0.00    -0.032 A 
ATOM     17  C   UNL     1     -12.070   9.757  20.672  0.00  0.00    +0.023 A 
ATOM     18  C   UNL     1     -11.077   7.801  19.658  0.00  0.00    +0.005 A 
ATOM     19  C   UNL     1     -12.867   8.937  21.471  0.00  0.00    +0.052 A 
ATOM     20  C   UNL     1     -11.875   6.982  20.457  0.00  0.00    +0.002 A 
ATOM     21  C   UNL     1     -12.769   7.550  21.364  0.00  0.00    +0.019 A 
BRANCH  19  22
ATOM      8  N   UNL     1     -14.529   9.993  23.154  0.00  0.00    -0.191 NA
ATOM     22  C   UNL     1     -13.785   9.519  22.400  0.00  0.00    +0.099 C 
ENDBRANCH  19  22
ENDBRANCH  14  15
ENDBRANCH   6  14
ENDBRANCH   9   6
BRANCH  11  13
ATOM     13  C   UNL     1     -13.143   8.528  14.674  0.00  0.00    +0.139 C 
BRANCH  13   7
ATOM      7  N   UNL     1     -12.970   7.346  13.805  0.00  0.00    -0.192 NA
ATOM     25  H   UNL     1     -12.322   6.648  14.192  0.00  0.00    +0.148 HD
BRANCH   7   1
ATOM      1  S   UNL     1     -14.317   6.735  12.956  0.00  0.00    +0.027 S 
ATOM      4  O   UNL     1     -14.091   5.347  12.607  0.00  0.00    -0.158 OA
ATOM      5  O   UNL     1     -14.698   7.702  11.943  0.00  0.00    -0.158 OA
ATOM     16  C   UNL     1     -15.557   6.786  14.229  0.00  0.00    +0.214 C 
ENDBRANCH   7   1
ENDBRANCH  13   7
ENDBRANCH  11  13
TORSDOF 8
ENDMDL
MODEL 5
REMARK VINA RESULT:      -5.7      3.238      4.758
REMARK  Name = 75536671
REMARK  9 active torsions:
REMARK  status: ('A' for Active; 'I' for Inactive)
REMARK    1  A    between atoms: S_1  and  N_7
REMARK    2  A    between atoms: S_1  and  C_16
REMARK    3  A    between atoms: O_3  and  C_10
REMARK    4  A    between atoms: N_6  and  C_9
REMARK    5  A    between atoms: N_6  and  C_14
REMARK    6  A    between atoms: N_7  and  C_13
REMARK    7  A    between atoms: C_11  and  C_13
REMARK    8  A    between atoms: C_14  and  C_15
REMARK    9  A    between atoms: C_19  and  C_22
REMARK                            x       y       z     vdW  Elec       q    Type
REMARK                         _______ _______ _______ _____ _____    ______ ____
ROOT
ATOM      2  O   UNL     1      16.205   8.890  21.560  0.00  0.00    -0.371 OA
ATOM      9  C   UNL     1      17.208   7.234  20.184  0.00  0.00    +0.111 C 
ATOM     10  C   UNL     1      15.818   6.772  20.583  0.00  0.00    +0.164 C 
ATOM     11  C   UNL     1      15.168   8.094  20.964  0.00  0.00    +0.164 C 
ATOM     12  C   UNL     1      17.477   8.309  21.226  0.00  0.00    +0.181 C 
ENDROOT
BRANCH  10   3
ATOM      3  O   UNL     1      15.132   6.131  19.525  0.00  0.00    -0.388 OA
ATOM     24  H   UNL     1      14.992   5.201  19.771  0.00  0.00    +0.210 HD
ENDBRANCH  10   3
BRANCH   9   6
ATOM      6  N   UNL     1      18.202   6.173  20.196  0.00  0.00    -0.305 NA
ATOM     23  H   UNL     1      18.805   6.273  19.379  0.00  0.00    +0.123 HD
BRANCH   6  14
ATOM     14  C   UNL     1      19.024   6.237  21.399  0.00  0.00    +0.116 C 
BRANCH  14  15
ATOM     15  C   UNL     1      20.485   6.048  21.090  0.00  0.00    -0.032 A 
ATOM     17  C   UNL     1      21.066   4.785  21.206  0.00  0.00    +0.023 A 
ATOM     18  C   UNL     1      21.258   7.138  20.688  0.00  0.00    +0.005 A 
ATOM     19  C   UNL     1      22.420   4.612  20.918  0.00  0.00    +0.052 A 
ATOM     20  C   UNL     1      22.612   6.963  20.400  0.00  0.00    +0.002 A 
ATOM     21  C   UNL     1      23.193   5.701  20.516  0.00  0.00    +0.019 A 
BRANCH  19  22
ATOM      8  N   UNL     1      23.499   2.267  21.132  0.00  0.00    -0.191 NA
ATOM     22  C   UNL     1      23.016   3.318  21.035  0.00  0.00    +0.099 C 
ENDBRANCH  19  22
ENDBRANCH  14  15
ENDBRANCH   6  14
ENDBRANCH   9   6
BRANCH  11  13
ATOM     13  C   UNL     1      14.016   7.936  21.941  0.00  0.00    +0.139 C 
BRANCH  13   7
ATOM      7  N   UNL     1      13.299   6.675  21.663  0.00  0.00    -0.192 NA
ATOM     25  H   UNL     1      13.542   5.917  22.315  0.00  0.00    +0.148 HD
BRANCH   7   1
ATOM      1  S   UNL     1      11.674   6.739  21.151  0.00  0.00    +0.027 S 
ATOM      4  O   UNL     1      10.988   5.521  21.535  0.00  0.00    -0.158 OA
ATOM      5  O   UNL     1      11.643   7.205  19.778  0.00  0.00    -0.158 OA
ATOM     16  C   UNL     1      11.061   8.058  22.173  0.00  0.00    +0.214 C 
ENDBRANCH   7   1
ENDBRANCH  13   7
ENDBRANCH  11  13
TORSDOF 8
ENDMDL
MODEL 6
REMARK VINA RESULT:      -5.7     27.612     29.540
REMARK  Name = 75536671
REMARK  9 active torsions:
REMARK  status: ('A' for Active; 'I' for Inactive)
REMARK    1  A    between atoms: S_1  and  N_7
REMARK    2  A    between atoms: S_1  and  C_16
REMARK    3  A    between atoms: O_3  and  C_10
REMARK    4  A    between atoms: N_6  and  C_9
REMARK    5  A    between atoms: N_6  and  C_14
REMARK    6  A    between atoms: N_7  and  C_13
REMARK    7  A    between atoms: C_11  and  C_13
REMARK    8  A    between atoms: C_14  and  C_15
REMARK    9  A    between atoms: C_19  and  C_22
REMARK                            x       y       z     vdW  Elec       q    Type
REMARK                         _______ _______ _______ _____ _____    ______ ____
ROOT
ATOM      2  O   UNL     1     -12.107  -9.044  15.709  0.00  0.00    -0.371 OA
ATOM      9  C   UNL     1     -10.584  -8.241  17.346  0.00  0.00    +0.111 C 
ATOM     10  C   UNL     1     -10.758  -7.184  16.271  0.00  0.00    +0.164 C 
ATOM     11  C   UNL     1     -12.084  -7.608  15.656  0.00  0.00    +0.164 C 
ATOM     12  C   UNL     1     -11.095  -9.483  16.632  0.00  0.00    +0.181 C 
ENDROOT
BRANCH  10   3
ATOM      3  O   UNL     1     -10.816  -5.873  16.799  0.00  0.00    -0.388 OA
ATOM     24  H   UNL     1     -10.585  -5.914  17.743  0.00  0.00    +0.210 HD
ENDBRANCH  10   3
BRANCH   9   6
ATOM      6  N   UNL     1      -9.214  -8.380  17.812  0.00  0.00    -0.305 NA
ATOM     23  H   UNL     1      -9.131  -7.952  18.735  0.00  0.00    +0.123 HD
BRANCH   6  14
ATOM     14  C   UNL     1      -8.831  -9.784  17.908  0.00  0.00    +0.116 C 
BRANCH  14  15
ATOM     15  C   UNL     1      -7.373  -9.990  17.595  0.00  0.00    -0.032 A 
ATOM     17  C   UNL     1      -6.563 -10.701  18.481  0.00  0.00    +0.023 A 
ATOM     18  C   UNL     1      -6.832  -9.469  16.420  0.00  0.00    +0.005 A 
ATOM     19  C   UNL     1      -5.212 -10.893  18.189  0.00  0.00    +0.052 A 
ATOM     20  C   UNL     1      -5.482  -9.661  16.129  0.00  0.00    +0.002 A 
ATOM     21  C   UNL     1      -4.672 -10.372  17.014  0.00  0.00    +0.019 A 
BRANCH  19  22
ATOM      8  N   UNL     1      -3.706 -12.214  19.831  0.00  0.00    -0.191 NA
ATOM     22  C   UNL     1      -4.381 -11.622  19.096  0.00  0.00    +0.099 C 
ENDBRANCH  19  22
ENDBRANCH  14  15
ENDBRANCH   6  14
ENDBRANCH   9   6
BRANCH  11  13
ATOM     13  C   UNL     1     -12.254  -7.145  14.219  0.00  0.00    +0.139 C 
BRANCH  13   7
ATOM      7  N   UNL     1     -12.142  -5.674  14.156  0.00  0.00    -0.192 NA
ATOM     25  H   UNL     1     -11.247  -5.317  14.516  0.00  0.00    +0.148 HD
BRANCH   7   1
ATOM      1  S   UNL     1     -12.798  -4.848  12.816  0.00  0.00    +0.027 S 
ATOM      4  O   UNL     1     -12.489  -5.565  11.595  0.00  0.00    -0.158 OA
ATOM      5  O   UNL     1     -12.485  -3.438  12.947  0.00  0.00    -0.158 OA
ATOM     16  C   UNL     1     -14.537  -5.035  13.136  0.00  0.00    +0.214 C 
ENDBRANCH   7   1
ENDBRANCH  13   7
ENDBRANCH  11  13
TORSDOF 8
ENDMDL
MODEL 7
REMARK VINA RESULT:      -5.6     26.376     28.615
REMARK  Name = 75536671
REMARK  9 active torsions:
REMARK  status: ('A' for Active; 'I' for Inactive)
REMARK    1  A    between atoms: S_1  and  N_7
REMARK    2  A    between atoms: S_1  and  C_16
REMARK    3  A    between atoms: O_3  and  C_10
REMARK    4  A    between atoms: N_6  and  C_9
REMARK    5  A    between atoms: N_6  and  C_14
REMARK    6  A    between atoms: N_7  and  C_13
REMARK    7  A    between atoms: C_11  and  C_13
REMARK    8  A    between atoms: C_14  and  C_15
REMARK    9  A    between atoms: C_19  and  C_22
REMARK                            x       y       z     vdW  Elec       q    Type
REMARK                         _______ _______ _______ _____ _____    ______ ____
ROOT
ATOM      2  O   UNL     1     -16.516   6.495  20.006  0.00  0.00    -0.371 OA
ATOM      9  C   UNL     1     -14.199   6.525  20.529  0.00  0.00    +0.111 C 
ATOM     10  C   UNL     1     -14.914   5.604  21.500  0.00  0.00    +0.164 C 
ATOM     11  C   UNL     1     -16.189   5.296  20.728  0.00  0.00    +0.164 C 
ATOM     12  C   UNL     1     -15.357   7.347  19.986  0.00  0.00    +0.181 C 
ENDROOT
BRANCH  10   3
ATOM      3  O   UNL     1     -14.174   4.433  21.787  0.00  0.00    -0.388 OA
ATOM     24  H   UNL     1     -13.434   4.378  21.159  0.00  0.00    +0.210 HD
ENDBRANCH  10   3
BRANCH   9   6
ATOM      6  N   UNL     1     -13.168   7.341  21.149  0.00  0.00    -0.305 NA
ATOM     23  H   UNL     1     -13.190   7.194  22.159  0.00  0.00    +0.123 HD
BRANCH   6  14
ATOM     14  C   UNL     1     -11.845   6.985  20.650  0.00  0.00    +0.116 C 
BRANCH  14  15
ATOM     15  C   UNL     1     -11.329   7.996  19.660  0.00  0.00    -0.032 A 
ATOM     17  C   UNL     1     -11.195   7.652  18.315  0.00  0.00    +0.023 A 
ATOM     18  C   UNL     1     -10.984   9.278  20.090  0.00  0.00    +0.005 A 
ATOM     19  C   UNL     1     -10.719   8.590  17.399  0.00  0.00    +0.052 A 
ATOM     20  C   UNL     1     -10.508  10.215  19.173  0.00  0.00    +0.002 A 
ATOM     21  C   UNL     1     -10.374   9.871  17.829  0.00  0.00    +0.019 A 
BRANCH  19  22
ATOM      8  N   UNL     1     -10.472   7.953  14.901  0.00  0.00    -0.191 NA
ATOM     22  C   UNL     1     -10.583   8.238  16.021  0.00  0.00    +0.099 C 
ENDBRANCH  19  22
ENDBRANCH  14  15
ENDBRANCH   6  14
ENDBRANCH   9   6
BRANCH  11  13
ATOM     13  C   UNL     1     -17.352   4.902  21.622  0.00  0.00    +0.139 C 
BRANCH  13   7
ATOM      7  N   UNL     1     -16.878   4.750  23.013  0.00  0.00    -0.192 NA
ATOM     25  H   UNL     1     -17.102   5.557  23.610  0.00  0.00    +0.148 HD
BRANCH   7   1
ATOM      1  S   UNL     1     -16.961   3.217  23.756  0.00  0.00    +0.027 S 
ATOM      4  O   UNL     1     -16.577   2.189  22.809  0.00  0.00    -0.158 OA
ATOM      5  O   UNL     1     -18.212   3.126  24.482  0.00  0.00    -0.158 OA
ATOM     16  C   UNL     1     -15.660   3.367  24.959  0.00  0.00    +0.214 C 
ENDBRANCH   7   1
ENDBRANCH  13   7
ENDBRANCH  11  13
TORSDOF 8
ENDMDL
MODEL 8
REMARK VINA RESULT:      -5.6     16.122     17.896
REMARK  Name = 75536671
REMARK  9 active torsions:
REMARK  status: ('A' for Active; 'I' for Inactive)
REMARK    1  A    between atoms: S_1  and  N_7
REMARK    2  A    between atoms: S_1  and  C_16
REMARK    3  A    between atoms: O_3  and  C_10
REMARK    4  A    between atoms: N_6  and  C_9
REMARK    5  A    between atoms: N_6  and  C_14
REMARK    6  A    between atoms: N_7  and  C_13
REMARK    7  A    between atoms: C_11  and  C_13
REMARK    8  A    between atoms: C_14  and  C_15
REMARK    9  A    between atoms: C_19  and  C_22
REMARK                            x       y       z     vdW  Elec       q    Type
REMARK                         _______ _______ _______ _____ _____    ______ ____
ROOT
ATOM      2  O   UNL     1      11.071   8.500   5.953  0.00  0.00    -0.371 OA
ATOM      9  C   UNL     1       9.627   8.030   4.126  0.00  0.00    +0.111 C 
ATOM     10  C   UNL     1       8.909   7.701   5.422  0.00  0.00    +0.164 C 
ATOM     11  C   UNL     1       9.711   8.525   6.419  0.00  0.00    +0.164 C 
ATOM     12  C   UNL     1      11.077   8.059   4.584  0.00  0.00    +0.181 C 
ENDROOT
BRANCH  10   3
ATOM      3  O   UNL     1       7.546   8.077   5.402  0.00  0.00    -0.388 OA
ATOM     24  H   UNL     1       7.457   8.927   5.864  0.00  0.00    +0.210 HD
ENDBRANCH  10   3
BRANCH   9   6
ATOM      6  N   UNL     1       9.388   7.066   3.065  0.00  0.00    -0.305 NA
ATOM     23  H   UNL     1       9.848   7.388   2.213  0.00  0.00    +0.123 HD
BRANCH   6  14
ATOM     14  C   UNL     1       9.917   5.754   3.419  0.00  0.00    +0.116 C 
BRANCH  14  15
ATOM     15  C   UNL     1      10.671   5.127   2.276  0.00  0.00    -0.032 A 
ATOM     17  C   UNL     1      11.966   4.648   2.474  0.00  0.00    +0.023 A 
ATOM     18  C   UNL     1      10.073   5.025   1.020  0.00  0.00    +0.005 A 
ATOM     19  C   UNL     1      12.663   4.066   1.415  0.00  0.00    +0.052 A 
ATOM     20  C   UNL     1      10.771   4.443  -0.038  0.00  0.00    +0.002 A 
ATOM     21  C   UNL     1      12.066   3.964   0.159  0.00  0.00    +0.019 A 
BRANCH  19  22
ATOM      8  N   UNL     1      15.068   3.176   1.783  0.00  0.00    -0.191 NA
ATOM     22  C   UNL     1      13.990   3.575   1.617  0.00  0.00    +0.099 C 
ENDBRANCH  19  22
ENDBRANCH  14  15
ENDBRANCH   6  14
ENDBRANCH   9   6
BRANCH  11  13
ATOM     13  C   UNL     1       9.645   7.983   7.836  0.00  0.00    +0.139 C 
BRANCH  13   7
ATOM      7  N   UNL     1       9.042   6.635   7.824  0.00  0.00    -0.192 NA
ATOM     25  H   UNL     1       8.322   6.517   7.099  0.00  0.00    +0.148 HD
BRANCH   7   1
ATOM      1  S   UNL     1      10.032   5.280   8.130  0.00  0.00    +0.027 S 
ATOM      4  O   UNL     1      11.380   5.713   8.437  0.00  0.00    -0.158 OA
ATOM      5  O   UNL     1       9.789   4.291   7.097  0.00  0.00    -0.158 OA
ATOM     16  C   UNL     1       9.297   4.670   9.629  0.00  0.00    +0.214 C 
ENDBRANCH   7   1
ENDBRANCH  13   7
ENDBRANCH  11  13
TORSDOF 8
ENDMDL
MODEL 9
REMARK VINA RESULT:      -5.6      2.114      2.532
REMARK  Name = 75536671
REMARK  9 active torsions:
REMARK  status: ('A' for Active; 'I' for Inactive)
REMARK    1  A    between atoms: S_1  and  N_7
REMARK    2  A    between atoms: S_1  and  C_16
REMARK    3  A    between atoms: O_3  and  C_10
REMARK    4  A    between atoms: N_6  and  C_9
REMARK    5  A    between atoms: N_6  and  C_14
REMARK    6  A    between atoms: N_7  and  C_13
REMARK    7  A    between atoms: C_11  and  C_13
REMARK    8  A    between atoms: C_14  and  C_15
REMARK    9  A    between atoms: C_19  and  C_22
REMARK                            x       y       z     vdW  Elec       q    Type
REMARK                         _______ _______ _______ _____ _____    ______ ____
ROOT
ATOM      2  O   UNL     1      13.054  11.208  20.521  0.00  0.00    -0.371 OA
ATOM      9  C   UNL     1      13.717   9.129  21.460  0.00  0.00    +0.111 C 
ATOM     10  C   UNL     1      12.544   9.678  22.251  0.00  0.00    +0.164 C 
ATOM     11  C   UNL     1      11.945  10.653  21.248  0.00  0.00    +0.164 C 
ATOM     12  C   UNL     1      14.207  10.377  20.743  0.00  0.00    +0.181 C 
ENDROOT
BRANCH  10   3
ATOM      3  O   UNL     1      11.621   8.674  22.627  0.00  0.00    -0.388 OA
ATOM     24  H   UNL     1      11.345   8.841  23.544  0.00  0.00    +0.210 HD
ENDBRANCH  10   3
BRANCH   9   6
ATOM      6  N   UNL     1      14.741   8.512  22.287  0.00  0.00    -0.305 NA
ATOM     23  H   UNL     1      14.660   7.497  22.216  0.00  0.00    +0.123 HD
BRANCH   6  14
ATOM     14  C   UNL     1      16.076   8.909  21.853  0.00  0.00    +0.116 C 
BRANCH  14  15
ATOM     15  C   UNL     1      16.735   7.842  21.019  0.00  0.00    -0.032 A 
ATOM     17  C   UNL     1      18.069   7.502  21.247  0.00  0.00    +0.023 A 
ATOM     18  C   UNL     1      16.010   7.194  20.019  0.00  0.00    +0.005 A 
ATOM     19  C   UNL     1      18.677   6.512  20.475  0.00  0.00    +0.052 A 
ATOM     20  C   UNL     1      16.619   6.204  19.247  0.00  0.00    +0.002 A 
ATOM     21  C   UNL     1      17.953   5.864  19.475  0.00  0.00    +0.019 A 
BRANCH  19  22
ATOM      8  N   UNL     1      21.153   5.880  20.899  0.00  0.00    -0.191 NA
ATOM     22  C   UNL     1      20.043   6.163  20.708  0.00  0.00    +0.099 C 
ENDBRANCH  19  22
ENDBRANCH  14  15
ENDBRANCH   6  14
ENDBRANCH   9   6
BRANCH  11  13
ATOM     13  C   UNL     1      11.149  11.771  21.900  0.00  0.00    +0.139 C 
BRANCH  13   7
ATOM      7  N   UNL     1      10.722  11.353  23.250  0.00  0.00    -0.192 NA
ATOM     25  H   UNL     1      10.744  10.334  23.387  0.00  0.00    +0.148 HD
BRANCH   7   1
ATOM      1  S   UNL     1      11.167  12.304  24.594  0.00  0.00    +0.027 S 
ATOM      4  O   UNL     1      12.559  12.693  24.483  0.00  0.00    -0.158 OA
ATOM      5  O   UNL     1      10.670  11.662  25.796  0.00  0.00    -0.158 OA
ATOM     16  C   UNL     1      10.171  13.750  24.315  0.00  0.00    +0.214 C 
ENDBRANCH   7   1
ENDBRANCH  13   7
ENDBRANCH  11  13
TORSDOF 8
ENDMDL
MODEL 10
REMARK VINA RESULT:      -5.5     29.080     31.245
REMARK  Name = 75536671
REMARK  9 active torsions:
REMARK  status: ('A' for Active; 'I' for Inactive)
REMARK    1  A    between atoms: S_1  and  N_7
REMARK    2  A    between atoms: S_1  and  C_16
REMARK    3  A    between atoms: O_3  and  C_10
REMARK    4  A    between atoms: N_6  and  C_9
REMARK    5  A    between atoms: N_6  and  C_14
REMARK    6  A    between atoms: N_7  and  C_13
REMARK    7  A    between atoms: C_11  and  C_13
REMARK    8  A    between atoms: C_14  and  C_15
REMARK    9  A    between atoms: C_19  and  C_22
REMARK                            x       y       z     vdW  Elec       q    Type
REMARK                         _______ _______ _______ _____ _____    ______ ____
ROOT
ATOM      2  O   UNL     1     -13.747   1.916  30.334  0.00  0.00    -0.371 OA
ATOM      9  C   UNL     1     -13.790   2.825  32.529  0.00  0.00    +0.111 C 
ATOM     10  C   UNL     1     -14.822   1.716  32.432  0.00  0.00    +0.164 C 
ATOM     11  C   UNL     1     -14.305   0.939  31.229  0.00  0.00    +0.164 C 
ATOM     12  C   UNL     1     -13.550   3.141  31.060  0.00  0.00    +0.181 C 
ENDROOT
BRANCH  10   3
ATOM      3  O   UNL     1     -14.872   0.915  33.596  0.00  0.00    -0.388 OA
ATOM     24  H   UNL     1     -14.560   1.447  34.347  0.00  0.00    +0.210 HD
ENDBRANCH  10   3
BRANCH   9   6
ATOM      6  N   UNL     1     -14.242   3.978  33.290  0.00  0.00    -0.305 NA
ATOM     23  H   UNL     1     -13.603   4.133  34.070  0.00  0.00    +0.123 HD
BRANCH   6  14
ATOM     14  C   UNL     1     -14.271   5.177  32.459  0.00  0.00    +0.116 C 
BRANCH  14  15
ATOM     15  C   UNL     1     -13.653   6.358  33.159  0.00  0.00    -0.032 A 
ATOM     17  C   UNL     1     -12.970   7.327  32.422  0.00  0.00    +0.023 A 
ATOM     18  C   UNL     1     -13.764   6.483  34.543  0.00  0.00    +0.005 A 
ATOM     19  C   UNL     1     -12.400   8.422  33.072  0.00  0.00    +0.052 A 
ATOM     20  C   UNL     1     -13.192   7.579  35.192  0.00  0.00    +0.002 A 
ATOM     21  C   UNL     1     -12.510   8.547  34.456  0.00  0.00    +0.019 A 
BRANCH  19  22
ATOM      8  N   UNL     1     -11.133  10.220  31.705  0.00  0.00    -0.191 NA
ATOM     22  C   UNL     1     -11.701   9.415  32.318  0.00  0.00    +0.099 C 
ENDBRANCH  19  22
ENDBRANCH  14  15
ENDBRANCH   6  14
ENDBRANCH   9   6
BRANCH  11  13
ATOM     13  C   UNL     1     -15.388   0.148  30.516  0.00  0.00    +0.139 C 
BRANCH  13   7
ATOM      7  N   UNL     1     -15.355   0.456  29.072  0.00  0.00    -0.192 NA
ATOM     25  H   UNL     1     -14.835  -0.238  28.519  0.00  0.00    +0.148 HD
BRANCH   7   1
ATOM      1  S   UNL     1     -16.740   1.123  28.333  0.00  0.00    +0.027 S 
ATOM      4  O   UNL     1     -17.833   0.172  28.385  0.00  0.00    -0.158 OA
ATOM      5  O   UNL     1     -16.344   1.728  27.076  0.00  0.00    -0.158 OA
ATOM     16  C   UNL     1     -17.109   2.444  29.464  0.00  0.00    +0.214 C 
ENDBRANCH   7   1
ENDBRANCH  13   7
ENDBRANCH  11  13
TORSDOF 8
ENDMDL
