MODEL 1
REMARK VINA RESULT:      -7.0      0.000      0.000
REMARK  Name = 40778218
REMARK  10 active torsions:
REMARK  status: ('A' for Active; 'I' for Inactive)
REMARK    1  A    between atoms: O_3  and  C_13
REMARK    2  A    between atoms: O_4  and  C_14
REMARK    3  A    between atoms: O_6  and  C_25
REMARK    4  A    between atoms: O_6  and  C_31
REMARK    5  A    between atoms: N_9  and  C_23
REMARK    6  A    between atoms: N_10  and  C_17
REMARK    7  A    between atoms: N_11  and  C_30
REMARK    8  A    between atoms: C_12  and  C_16
REMARK    9  A    between atoms: C_15  and  C_17
REMARK   10  A    between atoms: C_16  and  C_18
REMARK                            x       y       z     vdW  Elec       q    Type
REMARK                         _______ _______ _______ _____ _____    ______ ____
ROOT
ATOM      2  O   UNL     1      -4.742  -9.301  11.592  0.00  0.00    -0.366 OA
ATOM     12  C   UNL     1      -4.107  -9.799  10.401  0.00  0.00    +0.159 C 
ATOM     13  C   UNL     1      -5.225  -9.988   9.390  0.00  0.00    +0.175 C 
ATOM     14  C   UNL     1      -6.138  -8.827   9.725  0.00  0.00    +0.176 C 
ATOM     15  C   UNL     1      -6.047  -8.783  11.247  0.00  0.00    +0.167 C 
ENDROOT
BRANCH  13   3
ATOM      3  O   UNL     1      -4.746  -9.957   8.062  0.00  0.00    -0.387 OA
ATOM     37  H   UNL     1      -3.781 -10.080   8.098  0.00  0.00    +0.210 HD
ENDBRANCH  13   3
BRANCH  14   4
ATOM      4  O   UNL     1      -5.602  -7.609   9.213  0.00  0.00    -0.387 OA
ATOM     38  H   UNL     1      -4.691  -7.789   8.928  0.00  0.00    +0.210 HD
ENDBRANCH  14   4
BRANCH  12  16
ATOM     16  C   UNL     1      -3.359 -11.081  10.719  0.00  0.00    +0.130 C 
BRANCH  16  18
ATOM      5  O   UNL     1      -1.460 -10.163  11.800  0.00  0.00    -0.276 OA
ATOM      8  N   UNL     1      -2.843 -11.503  13.095  0.00  0.00    -0.298 N 
ATOM      9  N   UNL     1      -4.075 -11.647  15.630  0.00  0.00    -0.324 N 
ATOM     18  C   UNL     1      -2.464 -10.871  11.914  0.00  0.00    +0.218 C 
ATOM     19  C   UNL     1      -4.025 -12.350  13.271  0.00  0.00    +0.126 C 
ATOM     20  C   UNL     1      -2.023 -11.374  14.297  0.00  0.00    +0.126 C 
ATOM     21  C   UNL     1      -4.890 -11.838  14.423  0.00  0.00    +0.124 C 
ATOM     22  C   UNL     1      -2.853 -10.842  15.463  0.00  0.00    +0.124 C 
BRANCH   9  23
ATOM     23  C   UNL     1      -4.691 -11.638  16.887  0.00  0.00    +0.072 A 
ATOM     25  C   UNL     1      -5.068 -12.832  17.501  0.00  0.00    +0.141 A 
ATOM     26  C   UNL     1      -4.925 -10.420  17.525  0.00  0.00    +0.027 A 
ATOM     27  C   UNL     1      -5.681 -12.808  18.754  0.00  0.00    +0.047 A 
ATOM     28  C   UNL     1      -5.537 -10.397  18.778  0.00  0.00    +0.002 A 
ATOM     29  C   UNL     1      -5.915 -11.590  19.393  0.00  0.00    +0.004 A 
BRANCH  25   6
ATOM      6  O   UNL     1      -4.849 -14.031  16.893  0.00  0.00    -0.493 OA
ATOM     31  C   UNL     1      -5.998 -14.770  16.483  0.00  0.00    +0.277 C 
ENDBRANCH  25   6
ENDBRANCH   9  23
ENDBRANCH  16  18
ENDBRANCH  12  16
BRANCH  15  17
ATOM     17  C   UNL     1      -7.091  -9.655  11.932  0.00  0.00    +0.140 C 
BRANCH  17  10
ATOM      7  O   UNL     1      -9.313 -10.261  13.635  0.00  0.00    -0.253 OA
ATOM     10  N   UNL     1      -7.232  -9.302  13.314  0.00  0.00    -0.297 N 
ATOM     11  N   UNL     1      -8.214  -9.162  15.395  0.00  0.00    -0.269 N 
ATOM     24  C   UNL     1      -8.356  -9.636  14.088  0.00  0.00    +0.304 C 
ATOM     39  H   UNL     1      -6.474  -8.793  13.759  0.00  0.00    +0.150 HD
ATOM     40  H   UNL     1      -7.356  -8.659  15.608  0.00  0.00    +0.156 HD
BRANCH  11  30
ATOM      1  F   UNL     1      -9.479 -11.157  19.574  0.00  0.00    -0.205 F 
ATOM     30  C   UNL     1      -9.124  -9.294  16.470  0.00  0.00    +0.037 A 
ATOM     32  C   UNL     1      -8.848 -10.178  17.512  0.00  0.00    +0.061 A 
ATOM     33  C   UNL     1     -10.298  -8.540  16.486  0.00  0.00    +0.023 A 
ATOM     34  C   UNL     1      -9.745 -10.309  18.572  0.00  0.00    +0.125 A 
ATOM     35  C   UNL     1     -11.196  -8.670  17.547  0.00  0.00    +0.005 A 
ATOM     36  C   UNL     1     -10.920  -9.556  18.589  0.00  0.00    +0.038 A 
ENDBRANCH  11  30
ENDBRANCH  17  10
ENDBRANCH  15  17
TORSDOF 9
ENDMDL
MODEL 2
REMARK VINA RESULT:      -6.9     24.252     27.671
REMARK  Name = 40778218
REMARK  10 active torsions:
REMARK  status: ('A' for Active; 'I' for Inactive)
REMARK    1  A    between atoms: O_3  and  C_13
REMARK    2  A    between atoms: O_4  and  C_14
REMARK    3  A    between atoms: O_6  and  C_25
REMARK    4  A    between atoms: O_6  and  C_31
REMARK    5  A    between atoms: N_9  and  C_23
REMARK    6  A    between atoms: N_10  and  C_17
REMARK    7  A    between atoms: N_11  and  C_30
REMARK    8  A    between atoms: C_12  and  C_16
REMARK    9  A    between atoms: C_15  and  C_17
REMARK   10  A    between atoms: C_16  and  C_18
REMARK                            x       y       z     vdW  Elec       q    Type
REMARK                         _______ _______ _______ _____ _____    ______ ____
ROOT
ATOM      2  O   UNL     1      13.491   3.196  -0.081  0.00  0.00    -0.366 OA
ATOM     12  C   UNL     1      14.648   3.919  -0.539  0.00  0.00    +0.159 C 
ATOM     13  C   UNL     1      14.987   4.897   0.573  0.00  0.00    +0.175 C 
ATOM     14  C   UNL     1      14.632   4.091   1.805  0.00  0.00    +0.176 C 
ATOM     15  C   UNL     1      13.375   3.357   1.351  0.00  0.00    +0.167 C 
ENDROOT
BRANCH  13   3
ATOM      3  O   UNL     1      16.342   5.291   0.535  0.00  0.00    -0.387 OA
ATOM     37  H   UNL     1      16.626   5.448   1.453  0.00  0.00    +0.210 HD
ENDBRANCH  13   3
BRANCH  14   4
ATOM      4  O   UNL     1      15.641   3.119   2.071  0.00  0.00    -0.387 OA
ATOM     38  H   UNL     1      16.463   3.599   2.269  0.00  0.00    +0.210 HD
ENDBRANCH  14   4
BRANCH  12  16
ATOM     16  C   UNL     1      14.337   4.595  -1.863  0.00  0.00    +0.130 C 
BRANCH  16  18
ATOM      5  O   UNL     1      12.429   3.414  -2.625  0.00  0.00    -0.276 OA
ATOM      8  N   UNL     1      12.080   5.592  -1.906  0.00  0.00    -0.298 N 
ATOM      9  N   UNL     1      10.337   7.177  -0.353  0.00  0.00    -0.324 N 
ATOM     18  C   UNL     1      12.866   4.473  -2.169  0.00  0.00    +0.218 C 
ATOM     19  C   UNL     1      12.560   6.866  -1.365  0.00  0.00    +0.126 C 
ATOM     20  C   UNL     1      10.649   5.572  -2.193  0.00  0.00    +0.126 C 
ATOM     21  C   UNL     1      11.783   7.244  -0.104  0.00  0.00    +0.124 C 
ATOM     22  C   UNL     1       9.842   5.924  -0.946  0.00  0.00    +0.124 C 
BRANCH   9  23
ATOM     23  C   UNL     1       9.460   7.900   0.465  0.00  0.00    +0.072 A 
ATOM     25  C   UNL     1       8.621   8.872  -0.078  0.00  0.00    +0.141 A 
ATOM     26  C   UNL     1       9.430   7.637   1.835  0.00  0.00    +0.027 A 
ATOM     27  C   UNL     1       7.752   9.583   0.748  0.00  0.00    +0.047 A 
ATOM     28  C   UNL     1       8.560   8.349   2.661  0.00  0.00    +0.002 A 
ATOM     29  C   UNL     1       7.721   9.322   2.118  0.00  0.00    +0.004 A 
BRANCH  25   6
ATOM      6  O   UNL     1       8.636   9.142  -1.413  0.00  0.00    -0.493 OA
ATOM     31  C   UNL     1       7.447   9.695  -1.976  0.00  0.00    +0.277 C 
ENDBRANCH  25   6
ENDBRANCH   9  23
ENDBRANCH  16  18
ENDBRANCH  12  16
BRANCH  15  17
ATOM     17  C   UNL     1      12.096   4.135   1.630  0.00  0.00    +0.140 C 
BRANCH  17  10
ATOM      7  O   UNL     1       9.941   4.669   3.440  0.00  0.00    -0.253 OA
ATOM     10  N   UNL     1      12.179   4.835   2.878  0.00  0.00    -0.297 N 
ATOM     11  N   UNL     1      11.456   5.767   4.859  0.00  0.00    -0.269 N 
ATOM     24  C   UNL     1      11.073   5.059   3.716  0.00  0.00    +0.304 C 
ATOM     39  H   UNL     1      13.088   5.177   3.175  0.00  0.00    +0.150 HD
ATOM     40  H   UNL     1      12.439   6.017   4.934  0.00  0.00    +0.156 HD
BRANCH  11  30
ATOM      1  F   UNL     1       9.146   4.817   8.959  0.00  0.00    -0.205 F 
ATOM     30  C   UNL     1      10.638   6.183   5.935  0.00  0.00    +0.037 A 
ATOM     32  C   UNL     1      10.289   5.277   6.936  0.00  0.00    +0.061 A 
ATOM     33  C   UNL     1      10.182   7.500   5.995  0.00  0.00    +0.023 A 
ATOM     34  C   UNL     1       9.482   5.687   7.997  0.00  0.00    +0.125 A 
ATOM     35  C   UNL     1       9.376   7.911   7.057  0.00  0.00    +0.005 A 
ATOM     36  C   UNL     1       9.025   7.004   8.058  0.00  0.00    +0.038 A 
ENDBRANCH  11  30
ENDBRANCH  17  10
ENDBRANCH  15  17
TORSDOF 9
ENDMDL
MODEL 3
REMARK VINA RESULT:      -6.9      2.792      7.035
REMARK  Name = 40778218
REMARK  10 active torsions:
REMARK  status: ('A' for Active; 'I' for Inactive)
REMARK    1  A    between atoms: O_3  and  C_13
REMARK    2  A    between atoms: O_4  and  C_14
REMARK    3  A    between atoms: O_6  and  C_25
REMARK    4  A    between atoms: O_6  and  C_31
REMARK    5  A    between atoms: N_9  and  C_23
REMARK    6  A    between atoms: N_10  and  C_17
REMARK    7  A    between atoms: N_11  and  C_30
REMARK    8  A    between atoms: C_12  and  C_16
REMARK    9  A    between atoms: C_15  and  C_17
REMARK   10  A    between atoms: C_16  and  C_18
REMARK                            x       y       z     vdW  Elec       q    Type
REMARK                         _______ _______ _______ _____ _____    ______ ____
ROOT
ATOM      2  O   UNL     1      -8.952 -10.615  15.990  0.00  0.00    -0.366 OA
ATOM     12  C   UNL     1      -9.308 -10.186  17.317  0.00  0.00    +0.159 C 
ATOM     13  C   UNL     1     -10.640  -9.470  17.173  0.00  0.00    +0.175 C 
ATOM     14  C   UNL     1     -11.306 -10.283  16.082  0.00  0.00    +0.176 C 
ATOM     15  C   UNL     1     -10.133 -10.593  15.158  0.00  0.00    +0.167 C 
ENDROOT
BRANCH  13   3
ATOM      3  O   UNL     1     -11.366  -9.456  18.383  0.00  0.00    -0.387 OA
ATOM     37  H   UNL     1     -12.141  -8.882  18.250  0.00  0.00    +0.210 HD
ENDBRANCH  13   3
BRANCH  14   4
ATOM      4  O   UNL     1     -11.792 -11.516  16.610  0.00  0.00    -0.387 OA
ATOM     38  H   UNL     1     -12.469 -11.303  17.272  0.00  0.00    +0.210 HD
ENDBRANCH  14   4
BRANCH  12  16
ATOM     16  C   UNL     1      -8.208  -9.305  17.881  0.00  0.00    +0.130 C 
BRANCH  16  18
ATOM      5  O   UNL     1      -7.344 -10.672  19.614  0.00  0.00    -0.276 OA
ATOM      8  N   UNL     1      -5.960 -10.318  17.784  0.00  0.00    -0.298 N 
ATOM      9  N   UNL     1      -4.215 -11.654  16.015  0.00  0.00    -0.324 N 
ATOM     18  C   UNL     1      -7.137 -10.159  18.511  0.00  0.00    +0.218 C 
ATOM     19  C   UNL     1      -5.677  -9.727  16.475  0.00  0.00    +0.126 C 
ATOM     20  C   UNL     1      -4.859 -11.110  18.327  0.00  0.00    +0.126 C 
ATOM     21  C   UNL     1      -5.284 -10.808  15.468  0.00  0.00    +0.124 C 
ATOM     22  C   UNL     1      -4.457 -12.215  17.354  0.00  0.00    +0.124 C 
BRANCH   9  23
ATOM     23  C   UNL     1      -3.395 -12.383  15.144  0.00  0.00    +0.072 A 
ATOM     25  C   UNL     1      -2.263 -11.797  14.579  0.00  0.00    +0.141 A 
ATOM     26  C   UNL     1      -3.720 -13.706  14.846  0.00  0.00    +0.027 A 
ATOM     27  C   UNL     1      -1.455 -12.535  13.713  0.00  0.00    +0.047 A 
ATOM     28  C   UNL     1      -2.911 -14.443  13.981  0.00  0.00    +0.002 A 
ATOM     29  C   UNL     1      -1.779 -13.858  13.415  0.00  0.00    +0.004 A 
BRANCH  25   6
ATOM      6  O   UNL     1      -1.930 -10.506  14.857  0.00  0.00    -0.493 OA
ATOM     31  C   UNL     1      -0.836 -10.297  15.748  0.00  0.00    +0.277 C 
ENDBRANCH  25   6
ENDBRANCH   9  23
ENDBRANCH  16  18
ENDBRANCH  12  16
BRANCH  15  17
ATOM     17  C   UNL     1      -9.926  -9.534  14.083  0.00  0.00    +0.140 C 
BRANCH  17  10
ATOM      7  O   UNL     1      -8.389 -10.060  11.723  0.00  0.00    -0.253 OA
ATOM     10  N   UNL     1      -8.533  -9.259  13.889  0.00  0.00    -0.297 N 
ATOM     11  N   UNL     1      -6.502  -9.172  12.801  0.00  0.00    -0.269 N 
ATOM     24  C   UNL     1      -7.845  -9.547  12.699  0.00  0.00    +0.304 C 
ATOM     39  H   UNL     1      -8.020  -8.824  14.650  0.00  0.00    +0.150 HD
ATOM     40  H   UNL     1      -6.210  -8.758  13.683  0.00  0.00    +0.156 HD
BRANCH  11  30
ATOM      1  F   UNL     1      -2.593 -11.376  11.096  0.00  0.00    -0.205 F 
ATOM     30  C   UNL     1      -5.489  -9.297  11.822  0.00  0.00    +0.037 A 
ATOM     32  C   UNL     1      -4.522 -10.294  11.945  0.00  0.00    +0.061 A 
ATOM     33  C   UNL     1      -5.456  -8.422  10.736  0.00  0.00    +0.023 A 
ATOM     34  C   UNL     1      -3.522 -10.418  10.980  0.00  0.00    +0.125 A 
ATOM     35  C   UNL     1      -4.457  -8.546   9.771  0.00  0.00    +0.005 A 
ATOM     36  C   UNL     1      -3.488  -9.543   9.893  0.00  0.00    +0.038 A 
ENDBRANCH  11  30
ENDBRANCH  17  10
ENDBRANCH  15  17
TORSDOF 9
ENDMDL
MODEL 4
REMARK VINA RESULT:      -6.6      3.909      7.406
REMARK  Name = 40778218
REMARK  10 active torsions:
REMARK  status: ('A' for Active; 'I' for Inactive)
REMARK    1  A    between atoms: O_3  and  C_13
REMARK    2  A    between atoms: O_4  and  C_14
REMARK    3  A    between atoms: O_6  and  C_25
REMARK    4  A    between atoms: O_6  and  C_31
REMARK    5  A    between atoms: N_9  and  C_23
REMARK    6  A    between atoms: N_10  and  C_17
REMARK    7  A    between atoms: N_11  and  C_30
REMARK    8  A    between atoms: C_12  and  C_16
REMARK    9  A    between atoms: C_15  and  C_17
REMARK   10  A    between atoms: C_16  and  C_18
REMARK                            x       y       z     vdW  Elec       q    Type
REMARK                         _______ _______ _______ _____ _____    ______ ____
ROOT
ATOM      2  O   UNL     1      -9.158 -10.429  17.415  0.00  0.00    -0.366 OA
ATOM     12  C   UNL     1      -9.132 -11.069  18.703  0.00  0.00    +0.159 C 
ATOM     13  C   UNL     1      -9.944 -10.174  19.623  0.00  0.00    +0.175 C 
ATOM     14  C   UNL     1     -11.022  -9.672  18.684  0.00  0.00    +0.176 C 
ATOM     15  C   UNL     1     -10.245  -9.477  17.386  0.00  0.00    +0.167 C 
ENDROOT
BRANCH  13   3
ATOM      3  O   UNL     1     -10.454 -10.880  20.733  0.00  0.00    -0.387 OA
ATOM     37  H   UNL     1     -11.397 -11.052  20.560  0.00  0.00    +0.210 HD
ENDBRANCH  13   3
BRANCH  14   4
ATOM      4  O   UNL     1     -12.002 -10.685  18.467  0.00  0.00    -0.387 OA
ATOM     38  H   UNL     1     -11.530 -11.525  18.344  0.00  0.00    +0.210 HD
ENDBRANCH  14   4
BRANCH  12  16
ATOM     16  C   UNL     1      -7.694 -11.251  19.154  0.00  0.00    +0.130 C 
BRANCH  16  18
ATOM      5  O   UNL     1      -7.532 -13.494  18.407  0.00  0.00    -0.276 OA
ATOM      8  N   UNL     1      -5.913 -12.023  17.630  0.00  0.00    -0.298 N 
ATOM      9  N   UNL     1      -4.524 -11.265  15.295  0.00  0.00    -0.324 N 
ATOM     18  C   UNL     1      -7.045 -12.362  18.368  0.00  0.00    +0.218 C 
ATOM     19  C   UNL     1      -5.305 -10.693  17.559  0.00  0.00    +0.126 C 
ATOM     20  C   UNL     1      -5.206 -13.040  16.857  0.00  0.00    +0.126 C 
ATOM     21  C   UNL     1      -5.183 -10.233  16.106  0.00  0.00    +0.124 C 
ATOM     22  C   UNL     1      -5.087 -12.621  15.393  0.00  0.00    +0.124 C 
BRANCH   9  23
ATOM     23  C   UNL     1      -3.900 -10.906  14.093  0.00  0.00    +0.072 A 
ATOM     25  C   UNL     1      -2.510 -10.910  13.987  0.00  0.00    +0.141 A 
ATOM     26  C   UNL     1      -4.684 -10.546  12.997  0.00  0.00    +0.027 A 
ATOM     27  C   UNL     1      -1.902 -10.551  12.784  0.00  0.00    +0.047 A 
ATOM     28  C   UNL     1      -4.075 -10.188  11.794  0.00  0.00    +0.002 A 
ATOM     29  C   UNL     1      -2.685 -10.191  11.687  0.00  0.00    +0.004 A 
BRANCH  25   6
ATOM      6  O   UNL     1      -1.728 -11.258  15.047  0.00  0.00    -0.493 OA
ATOM     31  C   UNL     1      -0.997 -10.212  15.684  0.00  0.00    +0.277 C 
ENDBRANCH  25   6
ENDBRANCH   9  23
ENDBRANCH  16  18
ENDBRANCH  12  16
BRANCH  15  17
ATOM     17  C   UNL     1      -9.643  -8.085  17.255  0.00  0.00    +0.140 C 
BRANCH  17  10
ATOM      7  O   UNL     1     -10.772  -7.657  14.657  0.00  0.00    -0.253 OA
ATOM     10  N   UNL     1     -10.643  -7.120  16.904  0.00  0.00    -0.297 N 
ATOM     11  N   UNL     1     -12.109  -5.952  15.562  0.00  0.00    -0.269 N 
ATOM     24  C   UNL     1     -11.150  -6.968  15.603  0.00  0.00    +0.304 C 
ATOM     39  H   UNL     1     -11.010  -6.522  17.638  0.00  0.00    +0.150 HD
ATOM     40  H   UNL     1     -12.307  -5.476  16.439  0.00  0.00    +0.156 HD
BRANCH  11  30
ATOM      1  F   UNL     1     -12.423  -3.331  11.553  0.00  0.00    -0.205 F 
ATOM     30  C   UNL     1     -12.846  -5.499  14.443  0.00  0.00    +0.037 A 
ATOM     32  C   UNL     1     -12.260  -4.621  13.532  0.00  0.00    +0.061 A 
ATOM     33  C   UNL     1     -14.160  -5.929  14.253  0.00  0.00    +0.023 A 
ATOM     34  C   UNL     1     -12.986  -4.173  12.429  0.00  0.00    +0.125 A 
ATOM     35  C   UNL     1     -14.887  -5.481  13.149  0.00  0.00    +0.005 A 
ATOM     36  C   UNL     1     -14.300  -4.602  12.237  0.00  0.00    +0.038 A 
ENDBRANCH  11  30
ENDBRANCH  17  10
ENDBRANCH  15  17
TORSDOF 9
ENDMDL
MODEL 5
REMARK VINA RESULT:      -6.5      2.274      6.333
REMARK  Name = 40778218
REMARK  10 active torsions:
REMARK  status: ('A' for Active; 'I' for Inactive)
REMARK    1  A    between atoms: O_3  and  C_13
REMARK    2  A    between atoms: O_4  and  C_14
REMARK    3  A    between atoms: O_6  and  C_25
REMARK    4  A    between atoms: O_6  and  C_31
REMARK    5  A    between atoms: N_9  and  C_23
REMARK    6  A    between atoms: N_10  and  C_17
REMARK    7  A    between atoms: N_11  and  C_30
REMARK    8  A    between atoms: C_12  and  C_16
REMARK    9  A    between atoms: C_15  and  C_17
REMARK   10  A    between atoms: C_16  and  C_18
REMARK                            x       y       z     vdW  Elec       q    Type
REMARK                         _______ _______ _______ _____ _____    ______ ____
ROOT
ATOM      2  O   UNL     1      -4.156 -11.826  14.616  0.00  0.00    -0.366 OA
ATOM     12  C   UNL     1      -2.743 -11.831  14.886  0.00  0.00    +0.159 C 
ATOM     13  C   UNL     1      -2.532 -10.803  15.985  0.00  0.00    +0.175 C 
ATOM     14  C   UNL     1      -3.793 -10.973  16.807  0.00  0.00    +0.176 C 
ATOM     15  C   UNL     1      -4.844 -11.210  15.728  0.00  0.00    +0.167 C 
ENDROOT
BRANCH  13   3
ATOM      3  O   UNL     1      -1.350 -11.047  16.717  0.00  0.00    -0.387 OA
ATOM     37  H   UNL     1      -0.687 -11.392  16.093  0.00  0.00    +0.210 HD
ENDBRANCH  13   3
BRANCH  14   4
ATOM      4  O   UNL     1      -3.707 -12.150  17.609  0.00  0.00    -0.387 OA
ATOM     38  H   UNL     1      -4.329 -12.799  17.240  0.00  0.00    +0.210 HD
ENDBRANCH  14   4
BRANCH  12  16
ATOM     16  C   UNL     1      -1.978 -11.519  13.613  0.00  0.00    +0.130 C 
BRANCH  16  18
ATOM      5  O   UNL     1      -2.559 -13.502  12.454  0.00  0.00    -0.276 OA
ATOM      8  N   UNL     1      -3.142 -11.499  11.437  0.00  0.00    -0.298 N 
ATOM      9  N   UNL     1      -5.256 -10.220  10.076  0.00  0.00    -0.324 N 
ATOM     18  C   UNL     1      -2.582 -12.269  12.453  0.00  0.00    +0.218 C 
ATOM     19  C   UNL     1      -3.188 -10.036  11.399  0.00  0.00    +0.126 C 
ATOM     20  C   UNL     1      -3.729 -12.141  10.264  0.00  0.00    +0.126 C 
ATOM     21  C   UNL     1      -4.625  -9.546  11.218  0.00  0.00    +0.124 C 
ATOM     22  C   UNL     1      -5.174 -11.689  10.067  0.00  0.00    +0.124 C 
BRANCH   9  23
ATOM     23  C   UNL     1      -6.357  -9.627   9.445  0.00  0.00    +0.072 A 
ATOM     25  C   UNL     1      -6.344  -9.387   8.072  0.00  0.00    +0.141 A 
ATOM     26  C   UNL     1      -7.474  -9.279  10.204  0.00  0.00    +0.027 A 
ATOM     27  C   UNL     1      -7.448  -8.796   7.457  0.00  0.00    +0.047 A 
ATOM     28  C   UNL     1      -8.578  -8.690   9.588  0.00  0.00    +0.002 A 
ATOM     29  C   UNL     1      -8.565  -8.448   8.215  0.00  0.00    +0.004 A 
BRANCH  25   6
ATOM      6  O   UNL     1      -5.262  -9.719   7.313  0.00  0.00    -0.493 OA
ATOM     31  C   UNL     1      -5.407 -10.827   6.428  0.00  0.00    +0.277 C 
ENDBRANCH  25   6
ENDBRANCH   9  23
ENDBRANCH  16  18
ENDBRANCH  12  16
BRANCH  15  17
ATOM     17  C   UNL     1      -5.483  -9.922  15.225  0.00  0.00    +0.140 C 
BRANCH  17  10
ATOM      7  O   UNL     1      -8.219 -10.690  15.584  0.00  0.00    -0.253 OA
ATOM     10  N   UNL     1      -6.402  -9.391  16.188  0.00  0.00    -0.297 N 
ATOM     11  N   UNL     1      -8.390  -9.126  17.326  0.00  0.00    -0.269 N 
ATOM     24  C   UNL     1      -7.735  -9.820  16.305  0.00  0.00    +0.304 C 
ATOM     39  H   UNL     1      -6.068  -8.674  16.825  0.00  0.00    +0.150 HD
ATOM     40  H   UNL     1      -7.843  -8.431  17.829  0.00  0.00    +0.156 HD
BRANCH  11  30
ATOM      1  F   UNL     1     -13.064  -8.177  16.783  0.00  0.00    -0.205 F 
ATOM     30  C   UNL     1      -9.731  -9.268  17.750  0.00  0.00    +0.037 A 
ATOM     32  C   UNL     1     -10.756  -8.640  17.043  0.00  0.00    +0.061 A 
ATOM     33  C   UNL     1     -10.029 -10.036  18.877  0.00  0.00    +0.023 A 
ATOM     34  C   UNL     1     -12.080  -8.779  17.462  0.00  0.00    +0.125 A 
ATOM     35  C   UNL     1     -11.352 -10.176  19.295  0.00  0.00    +0.005 A 
ATOM     36  C   UNL     1     -12.378  -9.547  18.589  0.00  0.00    +0.038 A 
ENDBRANCH  11  30
ENDBRANCH  17  10
ENDBRANCH  15  17
TORSDOF 9
ENDMDL
MODEL 6
REMARK VINA RESULT:      -6.5      3.204      8.546
REMARK  Name = 40778218
REMARK  10 active torsions:
REMARK  status: ('A' for Active; 'I' for Inactive)
REMARK    1  A    between atoms: O_3  and  C_13
REMARK    2  A    between atoms: O_4  and  C_14
REMARK    3  A    between atoms: O_6  and  C_25
REMARK    4  A    between atoms: O_6  and  C_31
REMARK    5  A    between atoms: N_9  and  C_23
REMARK    6  A    between atoms: N_10  and  C_17
REMARK    7  A    between atoms: N_11  and  C_30
REMARK    8  A    between atoms: C_12  and  C_16
REMARK    9  A    between atoms: C_15  and  C_17
REMARK   10  A    between atoms: C_16  and  C_18
REMARK                            x       y       z     vdW  Elec       q    Type
REMARK                         _______ _______ _______ _____ _____    ______ ____
ROOT
ATOM      2  O   UNL     1      -6.299 -11.134  18.599  0.00  0.00    -0.366 OA
ATOM     12  C   UNL     1      -6.154 -12.566  18.618  0.00  0.00    +0.159 C 
ATOM     13  C   UNL     1      -5.163 -12.891  17.513  0.00  0.00    +0.175 C 
ATOM     14  C   UNL     1      -4.223 -11.706  17.589  0.00  0.00    +0.176 C 
ATOM     15  C   UNL     1      -5.184 -10.559  17.883  0.00  0.00    +0.167 C 
ENDROOT
BRANCH  13   3
ATOM      3  O   UNL     1      -4.519 -14.129  17.728  0.00  0.00    -0.387 OA
ATOM     37  H   UNL     1      -4.140 -14.108  18.625  0.00  0.00    +0.210 HD
ENDBRANCH  13   3
BRANCH  14   4
ATOM      4  O   UNL     1      -3.341 -11.842  18.702  0.00  0.00    -0.387 OA
ATOM     38  H   UNL     1      -2.558 -11.295  18.522  0.00  0.00    +0.210 HD
ENDBRANCH  14   4
BRANCH  12  16
ATOM     16  C   UNL     1      -7.510 -13.220  18.423  0.00  0.00    +0.130 C 
BRANCH  16  18
ATOM      5  O   UNL     1      -8.485 -12.521  20.467  0.00  0.00    -0.276 OA
ATOM      8  N   UNL     1      -9.542 -11.823  18.522  0.00  0.00    -0.298 N 
ATOM      9  N   UNL     1     -10.731  -9.567  17.315  0.00  0.00    -0.324 N 
ATOM     18  C   UNL     1      -8.552 -12.494  19.235  0.00  0.00    +0.218 C 
ATOM     19  C   UNL     1      -9.656 -11.768  17.063  0.00  0.00    +0.126 C 
ATOM     20  C   UNL     1     -10.605 -11.113  19.227  0.00  0.00    +0.126 C 
ATOM     21  C   UNL     1      -9.705 -10.318  16.580  0.00  0.00    +0.124 C 
ATOM     22  C   UNL     1     -10.666  -9.653  18.783  0.00  0.00    +0.124 C 
BRANCH   9  23
ATOM     23  C   UNL     1     -11.269  -8.401  16.756  0.00  0.00    +0.072 A 
ATOM     25  C   UNL     1     -12.616  -8.340  16.403  0.00  0.00    +0.141 A 
ATOM     26  C   UNL     1     -10.443  -7.296  16.555  0.00  0.00    +0.027 A 
ATOM     27  C   UNL     1     -13.138  -7.172  15.848  0.00  0.00    +0.047 A 
ATOM     28  C   UNL     1     -10.965  -6.128  16.000  0.00  0.00    +0.002 A 
ATOM     29  C   UNL     1     -12.313  -6.065  15.646  0.00  0.00    +0.004 A 
BRANCH  25   6
ATOM      6  O   UNL     1     -13.439  -9.409  16.591  0.00  0.00    -0.493 OA
ATOM     31  C   UNL     1     -14.795  -9.131  16.933  0.00  0.00    +0.277 C 
ENDBRANCH  25   6
ENDBRANCH   9  23
ENDBRANCH  16  18
ENDBRANCH  12  16
BRANCH  15  17
ATOM     17  C   UNL     1      -5.729  -9.900  16.622  0.00  0.00    +0.140 C 
BRANCH  17  10
ATOM      7  O   UNL     1      -6.395 -10.445  13.890  0.00  0.00    -0.253 OA
ATOM     10  N   UNL     1      -4.813 -10.040  15.529  0.00  0.00    -0.297 N 
ATOM     11  N   UNL     1      -4.108 -10.391  13.362  0.00  0.00    -0.269 N 
ATOM     24  C   UNL     1      -5.216 -10.308  14.210  0.00  0.00    +0.304 C 
ATOM     39  H   UNL     1      -3.821  -9.929  15.717  0.00  0.00    +0.150 HD
ATOM     40  H   UNL     1      -3.195 -10.253  13.788  0.00  0.00    +0.156 HD
BRANCH  11  30
ATOM      1  F   UNL     1      -3.792  -8.828   8.834  0.00  0.00    -0.205 F 
ATOM     30  C   UNL     1      -4.097 -10.645  11.971  0.00  0.00    +0.037 A 
ATOM     32  C   UNL     1      -3.948  -9.590  11.071  0.00  0.00    +0.061 A 
ATOM     33  C   UNL     1      -4.237 -11.951  11.499  0.00  0.00    +0.023 A 
ATOM     34  C   UNL     1      -3.937  -9.840   9.698  0.00  0.00    +0.125 A 
ATOM     35  C   UNL     1      -4.226 -12.201  10.127  0.00  0.00    +0.005 A 
ATOM     36  C   UNL     1      -4.077 -11.146   9.226  0.00  0.00    +0.038 A 
ENDBRANCH  11  30
ENDBRANCH  17  10
ENDBRANCH  15  17
TORSDOF 9
ENDMDL
MODEL 7
REMARK VINA RESULT:      -6.5      4.249      9.767
REMARK  Name = 40778218
REMARK  10 active torsions:
REMARK  status: ('A' for Active; 'I' for Inactive)
REMARK    1  A    between atoms: O_3  and  C_13
REMARK    2  A    between atoms: O_4  and  C_14
REMARK    3  A    between atoms: O_6  and  C_25
REMARK    4  A    between atoms: O_6  and  C_31
REMARK    5  A    between atoms: N_9  and  C_23
REMARK    6  A    between atoms: N_10  and  C_17
REMARK    7  A    between atoms: N_11  and  C_30
REMARK    8  A    between atoms: C_12  and  C_16
REMARK    9  A    between atoms: C_15  and  C_17
REMARK   10  A    between atoms: C_16  and  C_18
REMARK                            x       y       z     vdW  Elec       q    Type
REMARK                         _______ _______ _______ _____ _____    ______ ____
ROOT
ATOM      2  O   UNL     1      -7.270  -9.795  17.113  0.00  0.00    -0.366 OA
ATOM     12  C   UNL     1      -8.475 -10.008  17.869  0.00  0.00    +0.159 C 
ATOM     13  C   UNL     1      -8.171 -11.165  18.806  0.00  0.00    +0.175 C 
ATOM     14  C   UNL     1      -6.715 -10.912  19.138  0.00  0.00    +0.176 C 
ATOM     15  C   UNL     1      -6.166 -10.425  17.802  0.00  0.00    +0.167 C 
ENDROOT
BRANCH  13   3
ATOM      3  O   UNL     1      -9.012 -11.160  19.940  0.00  0.00    -0.387 OA
ATOM     37  H   UNL     1      -8.584 -11.708  20.622  0.00  0.00    +0.210 HD
ENDBRANCH  13   3
BRANCH  14   4
ATOM      4  O   UNL     1      -6.598  -9.848  20.080  0.00  0.00    -0.387 OA
ATOM     38  H   UNL     1      -7.271  -9.990  20.766  0.00  0.00    +0.210 HD
ENDBRANCH  14   4
BRANCH  12  16
ATOM     16  C   UNL     1      -9.629 -10.287  16.922  0.00  0.00    +0.130 C 
BRANCH  16  18
ATOM      5  O   UNL     1     -11.067  -9.356  18.559  0.00  0.00    -0.276 OA
ATOM      8  N   UNL     1     -11.659  -9.010  16.342  0.00  0.00    -0.298 N 
ATOM      9  N   UNL     1     -12.585  -7.025  14.563  0.00  0.00    -0.324 N 
ATOM     18  C   UNL     1     -10.847  -9.512  17.356  0.00  0.00    +0.218 C 
ATOM     19  C   UNL     1     -11.432  -9.174  14.905  0.00  0.00    +0.126 C 
ATOM     20  C   UNL     1     -12.873  -8.266  16.669  0.00  0.00    +0.126 C 
ATOM     21  C   UNL     1     -11.400  -7.815  14.204  0.00  0.00    +0.124 C 
ATOM     22  C   UNL     1     -12.861  -6.893  16.003  0.00  0.00    +0.124 C 
BRANCH   9  23
ATOM     23  C   UNL     1     -13.004  -5.986  13.723  0.00  0.00    +0.072 A 
ATOM     25  C   UNL     1     -14.269  -6.013  13.137  0.00  0.00    +0.141 A 
ATOM     26  C   UNL     1     -12.144  -4.916  13.478  0.00  0.00    +0.027 A 
ATOM     27  C   UNL     1     -14.673  -4.970  12.303  0.00  0.00    +0.047 A 
ATOM     28  C   UNL     1     -12.549  -3.873  12.645  0.00  0.00    +0.002 A 
ATOM     29  C   UNL     1     -13.813  -3.900  12.057  0.00  0.00    +0.004 A 
BRANCH  25   6
ATOM      6  O   UNL     1     -15.123  -7.049  13.364  0.00  0.00    -0.493 OA
ATOM     31  C   UNL     1     -16.206  -6.812  14.261  0.00  0.00    +0.277 C 
ENDBRANCH  25   6
ENDBRANCH   9  23
ENDBRANCH  16  18
ENDBRANCH  12  16
BRANCH  15  17
ATOM     17  C   UNL     1      -5.651 -11.556  16.921  0.00  0.00    +0.140 C 
BRANCH  17  10
ATOM      7  O   UNL     1      -3.797 -10.453  15.037  0.00  0.00    -0.253 OA
ATOM     10  N   UNL     1      -5.897 -11.285  15.535  0.00  0.00    -0.297 N 
ATOM     11  N   UNL     1      -5.458 -10.587  13.383  0.00  0.00    -0.269 N 
ATOM     24  C   UNL     1      -4.934 -10.741  14.669  0.00  0.00    +0.304 C 
ATOM     39  H   UNL     1      -6.814 -11.508  15.159  0.00  0.00    +0.150 HD
ATOM     40  H   UNL     1      -6.423 -10.875  13.245  0.00  0.00    +0.156 HD
BRANCH  11  30
ATOM      1  F   UNL     1      -5.357  -7.611   9.618  0.00  0.00    -0.205 F 
ATOM     30  C   UNL     1      -4.806 -10.076  12.236  0.00  0.00    +0.037 A 
ATOM     32  C   UNL     1      -5.415  -9.076  11.477  0.00  0.00    +0.061 A 
ATOM     33  C   UNL     1      -3.557 -10.572  11.864  0.00  0.00    +0.023 A 
ATOM     34  C   UNL     1      -4.774  -8.571  10.346  0.00  0.00    +0.125 A 
ATOM     35  C   UNL     1      -2.915 -10.067  10.733  0.00  0.00    +0.005 A 
ATOM     36  C   UNL     1      -3.524  -9.067   9.973  0.00  0.00    +0.038 A 
ENDBRANCH  11  30
ENDBRANCH  17  10
ENDBRANCH  15  17
TORSDOF 9
ENDMDL
MODEL 8
REMARK VINA RESULT:      -6.5      3.281      7.794
REMARK  Name = 40778218
REMARK  10 active torsions:
REMARK  status: ('A' for Active; 'I' for Inactive)
REMARK    1  A    between atoms: O_3  and  C_13
REMARK    2  A    between atoms: O_4  and  C_14
REMARK    3  A    between atoms: O_6  and  C_25
REMARK    4  A    between atoms: O_6  and  C_31
REMARK    5  A    between atoms: N_9  and  C_23
REMARK    6  A    between atoms: N_10  and  C_17
REMARK    7  A    between atoms: N_11  and  C_30
REMARK    8  A    between atoms: C_12  and  C_16
REMARK    9  A    between atoms: C_15  and  C_17
REMARK   10  A    between atoms: C_16  and  C_18
REMARK                            x       y       z     vdW  Elec       q    Type
REMARK                         _______ _______ _______ _____ _____    ______ ____
ROOT
ATOM      2  O   UNL     1      -3.646 -10.361  14.035  0.00  0.00    -0.366 OA
ATOM     12  C   UNL     1      -3.644 -10.668  15.441  0.00  0.00    +0.159 C 
ATOM     13  C   UNL     1      -2.299 -11.320  15.716  0.00  0.00    +0.175 C 
ATOM     14  C   UNL     1      -1.393 -10.556  14.772  0.00  0.00    +0.176 C 
ATOM     15  C   UNL     1      -2.285 -10.383  13.548  0.00  0.00    +0.167 C 
ENDROOT
BRANCH  13   3
ATOM      3  O   UNL     1      -1.922 -11.201  17.071  0.00  0.00    -0.387 OA
ATOM     37  H   UNL     1      -1.733 -10.261  17.239  0.00  0.00    +0.210 HD
ENDBRANCH  13   3
BRANCH  14   4
ATOM      4  O   UNL     1      -1.105  -9.262  15.299  0.00  0.00    -0.387 OA
ATOM     38  H   UNL     1      -1.643  -8.621  14.805  0.00  0.00    +0.210 HD
ENDBRANCH  14   4
BRANCH  12  16
ATOM     16  C   UNL     1      -4.825 -11.562  15.771  0.00  0.00    +0.130 C 
BRANCH  16  18
ATOM      5  O   UNL     1      -4.892 -10.855  18.032  0.00  0.00    -0.276 OA
ATOM      8  N   UNL     1      -6.901 -10.806  16.870  0.00  0.00    -0.298 N 
ATOM      9  N   UNL     1      -9.180  -9.205  16.421  0.00  0.00    -0.324 N 
ATOM     18  C   UNL     1      -5.535 -11.044  16.996  0.00  0.00    +0.218 C 
ATOM     19  C   UNL     1      -7.698 -11.019  15.661  0.00  0.00    +0.126 C 
ATOM     20  C   UNL     1      -7.674 -10.326  18.012  0.00  0.00    +0.126 C 
ATOM     21  C   UNL     1      -8.439  -9.739  15.271  0.00  0.00    +0.124 C 
ATOM     22  C   UNL     1      -8.409  -9.034  17.663  0.00  0.00    +0.124 C 
BRANCH   9  23
ATOM     23  C   UNL     1     -10.265  -8.346  16.207  0.00  0.00    +0.072 A 
ATOM     25  C   UNL     1     -11.574  -8.804  16.356  0.00  0.00    +0.141 A 
ATOM     26  C   UNL     1     -10.026  -7.020  15.844  0.00  0.00    +0.027 A 
ATOM     27  C   UNL     1     -12.644  -7.936  16.140  0.00  0.00    +0.047 A 
ATOM     28  C   UNL     1     -11.097  -6.153  15.628  0.00  0.00    +0.002 A 
ATOM     29  C   UNL     1     -12.406  -6.610  15.776  0.00  0.00    +0.004 A 
BRANCH  25   6
ATOM      6  O   UNL     1     -11.828 -10.094  16.709  0.00  0.00    -0.493 OA
ATOM     31  C   UNL     1     -12.052 -10.354  18.094  0.00  0.00    +0.277 C 
ENDBRANCH  25   6
ENDBRANCH   9  23
ENDBRANCH  16  18
ENDBRANCH  12  16
BRANCH  15  17
ATOM     17  C   UNL     1      -2.163 -11.530  12.554  0.00  0.00    +0.140 C 
BRANCH  17  10
ATOM      7  O   UNL     1      -2.841  -9.955  10.260  0.00  0.00    -0.253 OA
ATOM     10  N   UNL     1      -3.346 -11.648  11.753  0.00  0.00    -0.297 N 
ATOM     11  N   UNL     1      -4.834 -11.178  10.056  0.00  0.00    -0.269 N 
ATOM     24  C   UNL     1      -3.610 -10.836  10.638  0.00  0.00    +0.304 C 
ATOM     39  H   UNL     1      -4.023 -12.364  12.001  0.00  0.00    +0.150 HD
ATOM     40  H   UNL     1      -5.352 -11.935  10.495  0.00  0.00    +0.156 HD
BRANCH  11  30
ATOM      1  F   UNL     1      -5.264 -10.758   5.294  0.00  0.00    -0.205 F 
ATOM     30  C   UNL     1      -5.450 -10.597   8.923  0.00  0.00    +0.037 A 
ATOM     32  C   UNL     1      -5.045 -10.971   7.642  0.00  0.00    +0.061 A 
ATOM     33  C   UNL     1      -6.461  -9.650   9.087  0.00  0.00    +0.023 A 
ATOM     34  C   UNL     1      -5.651 -10.399   6.524  0.00  0.00    +0.125 A 
ATOM     35  C   UNL     1      -7.067  -9.077   7.969  0.00  0.00    +0.005 A 
ATOM     36  C   UNL     1      -6.662  -9.451   6.687  0.00  0.00    +0.038 A 
ENDBRANCH  11  30
ENDBRANCH  17  10
ENDBRANCH  15  17
TORSDOF 9
ENDMDL
MODEL 9
REMARK VINA RESULT:      -6.4      3.280      7.412
REMARK  Name = 40778218
REMARK  10 active torsions:
REMARK  status: ('A' for Active; 'I' for Inactive)
REMARK    1  A    between atoms: O_3  and  C_13
REMARK    2  A    between atoms: O_4  and  C_14
REMARK    3  A    between atoms: O_6  and  C_25
REMARK    4  A    between atoms: O_6  and  C_31
REMARK    5  A    between atoms: N_9  and  C_23
REMARK    6  A    between atoms: N_10  and  C_17
REMARK    7  A    between atoms: N_11  and  C_30
REMARK    8  A    between atoms: C_12  and  C_16
REMARK    9  A    between atoms: C_15  and  C_17
REMARK   10  A    between atoms: C_16  and  C_18
REMARK                            x       y       z     vdW  Elec       q    Type
REMARK                         _______ _______ _______ _____ _____    ______ ____
ROOT
ATOM      2  O   UNL     1      -3.904 -10.673  14.121  0.00  0.00    -0.366 OA
ATOM     12  C   UNL     1      -3.433 -11.029  15.433  0.00  0.00    +0.159 C 
ATOM     13  C   UNL     1      -1.980 -11.433  15.251  0.00  0.00    +0.175 C 
ATOM     14  C   UNL     1      -1.534 -10.481  14.161  0.00  0.00    +0.176 C 
ATOM     15  C   UNL     1      -2.766 -10.426  13.265  0.00  0.00    +0.167 C 
ENDROOT
BRANCH  13   3
ATOM      3  O   UNL     1      -1.241 -11.301  16.447  0.00  0.00    -0.387 OA
ATOM     37  H   UNL     1      -0.359 -10.964  16.207  0.00  0.00    +0.210 HD
ENDBRANCH  13   3
BRANCH  14   4
ATOM      4  O   UNL     1      -1.318  -9.177  14.699  0.00  0.00    -0.387 OA
ATOM     38  H   UNL     1      -1.920  -8.569  14.238  0.00  0.00    +0.210 HD
ENDBRANCH  14   4
BRANCH  12  16
ATOM     16  C   UNL     1      -4.300 -12.136  16.005  0.00  0.00    +0.130 C 
BRANCH  16  18
ATOM      5  O   UNL     1      -3.704 -11.464  18.198  0.00  0.00    -0.276 OA
ATOM      8  N   UNL     1      -5.925 -12.049  17.860  0.00  0.00    -0.298 N 
ATOM      9  N   UNL     1      -8.561 -11.235  18.450  0.00  0.00    -0.324 N 
ATOM     18  C   UNL     1      -4.608 -11.852  17.453  0.00  0.00    +0.218 C 
ATOM     19  C   UNL     1      -7.023 -12.508  17.008  0.00  0.00    +0.126 C 
ATOM     20  C   UNL     1      -6.308 -11.821  19.250  0.00  0.00    +0.126 C 
ATOM     21  C   UNL     1      -8.192 -11.524  17.057  0.00  0.00    +0.124 C 
ATOM     22  C   UNL     1      -7.461 -10.823  19.336  0.00  0.00    +0.124 C 
BRANCH   9  23
ATOM     23  C   UNL     1      -9.844 -10.755  18.740  0.00  0.00    +0.072 A 
ATOM     25  C   UNL     1     -10.606 -11.334  19.754  0.00  0.00    +0.141 A 
ATOM     26  C   UNL     1     -10.356  -9.685  18.006  0.00  0.00    +0.027 A 
ATOM     27  C   UNL     1     -11.882 -10.845  20.033  0.00  0.00    +0.047 A 
ATOM     28  C   UNL     1     -11.632  -9.196  18.286  0.00  0.00    +0.002 A 
ATOM     29  C   UNL     1     -12.395  -9.775  19.299  0.00  0.00    +0.004 A 
BRANCH  25   6
ATOM      6  O   UNL     1     -10.123 -12.380  20.482  0.00  0.00    -0.493 OA
ATOM     31  C   UNL     1     -11.047 -13.412  20.824  0.00  0.00    +0.277 C 
ENDBRANCH  25   6
ENDBRANCH   9  23
ENDBRANCH  16  18
ENDBRANCH  12  16
BRANCH  15  17
ATOM     17  C   UNL     1      -2.760 -11.492  12.177  0.00  0.00    +0.140 C 
BRANCH  17  10
ATOM      7  O   UNL     1      -5.238 -11.387  10.745  0.00  0.00    -0.253 OA
ATOM     10  N   UNL     1      -2.978 -10.913  10.885  0.00  0.00    -0.297 N 
ATOM     11  N   UNL     1      -4.136 -10.271   8.998  0.00  0.00    -0.269 N 
ATOM     24  C   UNL     1      -4.228 -10.899  10.243  0.00  0.00    +0.304 C 
ATOM     39  H   UNL     1      -2.188 -10.482  10.414  0.00  0.00    +0.150 HD
ATOM     40  H   UNL     1      -3.220  -9.921   8.729  0.00  0.00    +0.156 HD
BRANCH  11  30
ATOM      1  F   UNL     1      -8.240  -8.140   7.708  0.00  0.00    -0.205 F 
ATOM     30  C   UNL     1      -5.169 -10.058   8.055  0.00  0.00    +0.037 A 
ATOM     32  C   UNL     1      -6.216  -9.187   8.352  0.00  0.00    +0.061 A 
ATOM     33  C   UNL     1      -5.140 -10.722   6.827  0.00  0.00    +0.023 A 
ATOM     34  C   UNL     1      -7.235  -8.978   7.423  0.00  0.00    +0.125 A 
ATOM     35  C   UNL     1      -6.158 -10.512   5.897  0.00  0.00    +0.005 A 
ATOM     36  C   UNL     1      -7.207  -9.641   6.195  0.00  0.00    +0.038 A 
ENDBRANCH  11  30
ENDBRANCH  17  10
ENDBRANCH  15  17
TORSDOF 9
ENDMDL
MODEL 10
REMARK VINA RESULT:      -6.4      3.025      7.079
REMARK  Name = 40778218
REMARK  10 active torsions:
REMARK  status: ('A' for Active; 'I' for Inactive)
REMARK    1  A    between atoms: O_3  and  C_13
REMARK    2  A    between atoms: O_4  and  C_14
REMARK    3  A    between atoms: O_6  and  C_25
REMARK    4  A    between atoms: O_6  and  C_31
REMARK    5  A    between atoms: N_9  and  C_23
REMARK    6  A    between atoms: N_10  and  C_17
REMARK    7  A    between atoms: N_11  and  C_30
REMARK    8  A    between atoms: C_12  and  C_16
REMARK    9  A    between atoms: C_15  and  C_17
REMARK   10  A    between atoms: C_16  and  C_18
REMARK                            x       y       z     vdW  Elec       q    Type
REMARK                         _______ _______ _______ _____ _____    ______ ____
ROOT
ATOM      2  O   UNL     1      -9.340 -11.090  16.315  0.00  0.00    -0.366 OA
ATOM     12  C   UNL     1     -10.045 -11.148  17.567  0.00  0.00    +0.159 C 
ATOM     13  C   UNL     1     -11.455 -10.669  17.267  0.00  0.00    +0.175 C 
ATOM     14  C   UNL     1     -11.674 -11.223  15.874  0.00  0.00    +0.176 C 
ATOM     15  C   UNL     1     -10.302 -11.029  15.237  0.00  0.00    +0.167 C 
ENDROOT
BRANCH  13   3
ATOM      3  O   UNL     1     -12.389 -11.147  18.212  0.00  0.00    -0.387 OA
ATOM     37  H   UNL     1     -12.758 -10.373  18.673  0.00  0.00    +0.210 HD
ENDBRANCH  13   3
BRANCH  14   4
ATOM      4  O   UNL     1     -11.941 -12.623  15.933  0.00  0.00    -0.387 OA
ATOM     38  H   UNL     1     -11.738 -12.920  16.836  0.00  0.00    +0.210 HD
ENDBRANCH  14   4
BRANCH  12  16
ATOM     16  C   UNL     1      -9.326 -10.296  18.598  0.00  0.00    +0.130 C 
BRANCH  16  18
ATOM      5  O   UNL     1      -8.389 -11.892  20.078  0.00  0.00    -0.276 OA
ATOM      8  N   UNL     1      -6.910 -10.789  18.670  0.00  0.00    -0.298 N 
ATOM      9  N   UNL     1      -4.695 -11.226  16.977  0.00  0.00    -0.324 N 
ATOM     18  C   UNL     1      -8.172 -11.067  19.187  0.00  0.00    +0.218 C 
ATOM     19  C   UNL     1      -6.612  -9.818  17.615  0.00  0.00    +0.126 C 
ATOM     20  C   UNL     1      -5.731 -11.471  19.196  0.00  0.00    +0.126 C 
ATOM     21  C   UNL     1      -5.855 -10.485  16.465  0.00  0.00    +0.124 C 
ATOM     22  C   UNL     1      -4.964 -12.168  18.075  0.00  0.00    +0.124 C 
BRANCH   9  23
ATOM     23  C   UNL     1      -3.625 -11.514  16.120  0.00  0.00    +0.072 A 
ATOM     25  C   UNL     1      -3.658 -12.641  15.299  0.00  0.00    +0.141 A 
ATOM     26  C   UNL     1      -2.523 -10.661  16.092  0.00  0.00    +0.027 A 
ATOM     27  C   UNL     1      -2.586 -12.915  14.450  0.00  0.00    +0.047 A 
ATOM     28  C   UNL     1      -1.451 -10.936  15.242  0.00  0.00    +0.002 A 
ATOM     29  C   UNL     1      -1.483 -12.063  14.421  0.00  0.00    +0.004 A 
BRANCH  25   6
ATOM      6  O   UNL     1      -4.726 -13.486  15.313  0.00  0.00    -0.493 OA
ATOM     31  C   UNL     1      -5.526 -13.539  14.133  0.00  0.00    +0.277 C 
ENDBRANCH  25   6
ENDBRANCH   9  23
ENDBRANCH  16  18
ENDBRANCH  12  16
BRANCH  15  17
ATOM     17  C   UNL     1     -10.149  -9.677  14.552  0.00  0.00    +0.140 C 
BRANCH  17  10
ATOM      7  O   UNL     1      -8.488 -10.322  12.308  0.00  0.00    -0.253 OA
ATOM     10  N   UNL     1      -8.767  -9.337  14.383  0.00  0.00    -0.297 N 
ATOM     11  N   UNL     1      -6.702  -9.224  13.365  0.00  0.00    -0.269 N 
ATOM     24  C   UNL     1      -8.015  -9.689  13.250  0.00  0.00    +0.304 C 
ATOM     39  H   UNL     1      -8.312  -8.804  15.119  0.00  0.00    +0.150 HD
ATOM     40  H   UNL     1      -6.470  -8.715  14.215  0.00  0.00    +0.156 HD
BRANCH  11  30
ATOM      1  F   UNL     1      -4.605  -8.088   9.199  0.00  0.00    -0.205 F 
ATOM     30  C   UNL     1      -5.643  -9.376  12.439  0.00  0.00    +0.037 A 
ATOM     32  C   UNL     1      -5.646  -8.643  11.253  0.00  0.00    +0.061 A 
ATOM     33  C   UNL     1      -4.598 -10.258  12.713  0.00  0.00    +0.023 A 
ATOM     34  C   UNL     1      -4.603  -8.792  10.338  0.00  0.00    +0.125 A 
ATOM     35  C   UNL     1      -3.554 -10.406  11.800  0.00  0.00    +0.005 A 
ATOM     36  C   UNL     1      -3.557  -9.674  10.611  0.00  0.00    +0.038 A 
ENDBRANCH  11  30
ENDBRANCH  17  10
ENDBRANCH  15  17
TORSDOF 9
ENDMDL
