MODEL 1
REMARK VINA RESULT:      -6.7      0.000      0.000
REMARK  Name = 28962287
REMARK  13 active torsions:
REMARK  status: ('A' for Active; 'I' for Inactive)
REMARK    1  A    between atoms: O_2  and  C_12
REMARK    2  A    between atoms: O_3  and  C_15
REMARK    3  A    between atoms: O_5  and  C_28
REMARK    4  A    between atoms: O_5  and  C_31
REMARK    5  A    between atoms: N_6  and  C_10
REMARK    6  A    between atoms: N_6  and  C_16
REMARK    7  A    between atoms: N_6  and  C_17
REMARK    8  A    between atoms: N_7  and  C_14
REMARK    9  A    between atoms: N_8  and  C_23
REMARK   10  A    between atoms: C_11  and  C_14
REMARK   11  A    between atoms: C_13  and  C_15
REMARK   12  A    between atoms: C_16  and  C_18
REMARK   13  A    between atoms: C_18  and  C_19
REMARK                            x       y       z     vdW  Elec       q    Type
REMARK                         _______ _______ _______ _____ _____    ______ ____
ROOT
ATOM      1  O   UNL     1      20.196   7.729  20.856  0.00  0.00    -0.365 OA
ATOM     10  C   UNL     1      21.474   6.053  21.960  0.00  0.00    +0.118 C 
ATOM     11  C   UNL     1      20.677   6.377  20.690  0.00  0.00    +0.155 C 
ATOM     12  C   UNL     1      20.853   6.972  22.999  0.00  0.00    +0.165 C 
ATOM     13  C   UNL     1      20.587   8.212  22.155  0.00  0.00    +0.174 C 
ENDROOT
BRANCH  12   2
ATOM      2  O   UNL     1      19.632   6.443  23.501  0.00  0.00    -0.388 OA
ATOM     32  H   UNL     1      19.816   5.554  23.847  0.00  0.00    +0.210 HD
ENDBRANCH  12   2
BRANCH  10   6
ATOM      6  N   UNL     1      21.543   4.651  22.336  0.00  0.00    -0.297 NA
ATOM     17  C   UNL     1      22.325   4.477  23.564  0.00  0.00    +0.105 C 
BRANCH   6  16
ATOM     16  C   UNL     1      22.123   3.849  21.253  0.00  0.00    +0.090 C 
BRANCH  16  18
ATOM     18  C   UNL     1      23.607   4.161  21.073  0.00  0.00    +0.071 C 
BRANCH  18  19
ATOM      9  N   UNL     1      25.697   3.270  21.948  0.00  0.00    -0.260 NA
ATOM     19  C   UNL     1      24.472   2.986  21.452  0.00  0.00    +0.042 A 
ATOM     21  C   UNL     1      23.983   1.701  21.280  0.00  0.00    +0.023 A 
ATOM     22  C   UNL     1      24.805   0.639  21.641  0.00  0.00    +0.003 A 
ATOM     24  C   UNL     1      26.467   2.211  22.288  0.00  0.00    +0.111 A 
ATOM     25  C   UNL     1      26.072   0.890  22.156  0.00  0.00    +0.020 A 
ENDBRANCH  18  19
ENDBRANCH  16  18
ENDBRANCH   6  16
ENDBRANCH  10   6
BRANCH  11  14
ATOM     14  C   UNL     1      19.464   5.499  20.403  0.00  0.00    +0.139 C 
BRANCH  14   7
ATOM      4  O   UNL     1      17.184   5.643  18.673  0.00  0.00    -0.253 OA
ATOM      7  N   UNL     1      18.244   6.208  20.651  0.00  0.00    -0.297 N 
ATOM      8  N   UNL     1      16.115   7.004  20.260  0.00  0.00    -0.269 N 
ATOM     20  C   UNL     1      17.165   6.233  19.751  0.00  0.00    +0.304 C 
ATOM     33  H   UNL     1      18.162   6.731  21.517  0.00  0.00    +0.150 HD
ATOM     35  H   UNL     1      16.261   7.427  21.173  0.00  0.00    +0.156 HD
BRANCH   8  23
ATOM     23  C   UNL     1      14.863   7.271  19.658  0.00  0.00    +0.038 A 
ATOM     26  C   UNL     1      13.684   6.915  20.313  0.00  0.00    +0.069 A 
ATOM     27  C   UNL     1      14.808   7.891  18.410  0.00  0.00    +0.023 A 
ATOM     28  C   UNL     1      12.450   7.178  19.719  0.00  0.00    +0.122 A 
ATOM     29  C   UNL     1      13.573   8.153  17.816  0.00  0.00    +0.005 A 
ATOM     30  C   UNL     1      12.395   7.798  18.470  0.00  0.00    +0.046 A 
BRANCH  28   5
ATOM      5  O   UNL     1      11.300   6.830  20.357  0.00  0.00    -0.495 OA
ATOM     31  C   UNL     1      11.424   6.023  21.528  0.00  0.00    +0.277 C 
ENDBRANCH  28   5
ENDBRANCH   8  23
ENDBRANCH  14   7
ENDBRANCH  11  14
BRANCH  13  15
ATOM     15  C   UNL     1      19.515   9.147  22.686  0.00  0.00    +0.190 C 
BRANCH  15   3
ATOM      3  O   UNL     1      18.242   8.646  22.307  0.00  0.00    -0.392 OA
ATOM     34  H   UNL     1      18.393   7.811  21.833  0.00  0.00    +0.210 HD
ENDBRANCH  15   3
ENDBRANCH  13  15
TORSDOF 11
ENDMDL
MODEL 2
REMARK VINA RESULT:      -6.6      0.992      1.706
REMARK  Name = 28962287
REMARK  13 active torsions:
REMARK  status: ('A' for Active; 'I' for Inactive)
REMARK    1  A    between atoms: O_2  and  C_12
REMARK    2  A    between atoms: O_3  and  C_15
REMARK    3  A    between atoms: O_5  and  C_28
REMARK    4  A    between atoms: O_5  and  C_31
REMARK    5  A    between atoms: N_6  and  C_10
REMARK    6  A    between atoms: N_6  and  C_16
REMARK    7  A    between atoms: N_6  and  C_17
REMARK    8  A    between atoms: N_7  and  C_14
REMARK    9  A    between atoms: N_8  and  C_23
REMARK   10  A    between atoms: C_11  and  C_14
REMARK   11  A    between atoms: C_13  and  C_15
REMARK   12  A    between atoms: C_16  and  C_18
REMARK   13  A    between atoms: C_18  and  C_19
REMARK                            x       y       z     vdW  Elec       q    Type
REMARK                         _______ _______ _______ _____ _____    ______ ____
ROOT
ATOM      1  O   UNL     1      20.212   7.720  20.824  0.00  0.00    -0.365 OA
ATOM     10  C   UNL     1      21.468   6.037  21.942  0.00  0.00    +0.118 C 
ATOM     11  C   UNL     1      20.694   6.369  20.660  0.00  0.00    +0.155 C 
ATOM     12  C   UNL     1      20.829   6.951  22.975  0.00  0.00    +0.165 C 
ATOM     13  C   UNL     1      20.580   8.196  22.133  0.00  0.00    +0.174 C 
ENDROOT
BRANCH  12   2
ATOM      2  O   UNL     1      19.599   6.420  23.452  0.00  0.00    -0.388 OA
ATOM     32  H   UNL     1      19.037   7.169  23.713  0.00  0.00    +0.210 HD
ENDBRANCH  12   2
BRANCH  10   6
ATOM      6  N   UNL     1      21.529   4.633  22.311  0.00  0.00    -0.297 NA
ATOM     17  C   UNL     1      22.299   4.450  23.545  0.00  0.00    +0.105 C 
BRANCH   6  16
ATOM     16  C   UNL     1      22.116   3.834  21.229  0.00  0.00    +0.090 C 
BRANCH  16  18
ATOM     18  C   UNL     1      23.597   4.160  21.048  0.00  0.00    +0.071 C 
BRANCH  18  19
ATOM      9  N   UNL     1      25.698   3.291  21.921  0.00  0.00    -0.260 NA
ATOM     19  C   UNL     1      24.473   2.994  21.431  0.00  0.00    +0.042 A 
ATOM     21  C   UNL     1      23.994   1.704  21.271  0.00  0.00    +0.023 A 
ATOM     22  C   UNL     1      24.825   0.651  21.636  0.00  0.00    +0.003 A 
ATOM     24  C   UNL     1      26.478   2.241  22.265  0.00  0.00    +0.111 A 
ATOM     25  C   UNL     1      26.092   0.916  22.143  0.00  0.00    +0.020 A 
ENDBRANCH  18  19
ENDBRANCH  16  18
ENDBRANCH   6  16
ENDBRANCH  10   6
BRANCH  11  14
ATOM     14  C   UNL     1      19.486   5.493  20.346  0.00  0.00    +0.139 C 
BRANCH  14   7
ATOM      4  O   UNL     1      17.192   5.436  18.630  0.00  0.00    -0.253 OA
ATOM      7  N   UNL     1      18.263   6.219  20.525  0.00  0.00    -0.297 N 
ATOM      8  N   UNL     1      16.126   6.956  20.067  0.00  0.00    -0.269 N 
ATOM     20  C   UNL     1      17.177   6.140  19.637  0.00  0.00    +0.304 C 
ATOM     33  H   UNL     1      18.185   6.833  21.330  0.00  0.00    +0.150 HD
ATOM     35  H   UNL     1      16.278   7.477  20.928  0.00  0.00    +0.156 HD
BRANCH   8  23
ATOM     23  C   UNL     1      14.869   7.149  19.451  0.00  0.00    +0.038 A 
ATOM     26  C   UNL     1      14.798   7.636  18.146  0.00  0.00    +0.069 A 
ATOM     27  C   UNL     1      13.698   6.855  20.150  0.00  0.00    +0.023 A 
ATOM     28  C   UNL     1      13.558   7.828  17.539  0.00  0.00    +0.122 A 
ATOM     29  C   UNL     1      12.457   7.047  19.542  0.00  0.00    +0.005 A 
ATOM     30  C   UNL     1      12.386   7.532  18.237  0.00  0.00    +0.046 A 
BRANCH  28   5
ATOM      5  O   UNL     1      13.489   8.302  16.265  0.00  0.00    -0.495 OA
ATOM     31  C   UNL     1      12.515   9.311  15.999  0.00  0.00    +0.277 C 
ENDBRANCH  28   5
ENDBRANCH   8  23
ENDBRANCH  14   7
ENDBRANCH  11  14
BRANCH  13  15
ATOM     15  C   UNL     1      19.499   9.128  22.650  0.00  0.00    +0.190 C 
BRANCH  15   3
ATOM      3  O   UNL     1      18.231   8.616  22.269  0.00  0.00    -0.392 OA
ATOM     34  H   UNL     1      17.901   8.088  23.015  0.00  0.00    +0.210 HD
ENDBRANCH  15   3
ENDBRANCH  13  15
TORSDOF 11
ENDMDL
MODEL 3
REMARK VINA RESULT:      -6.5     17.209     21.252
REMARK  Name = 28962287
REMARK  13 active torsions:
REMARK  status: ('A' for Active; 'I' for Inactive)
REMARK    1  A    between atoms: O_2  and  C_12
REMARK    2  A    between atoms: O_3  and  C_15
REMARK    3  A    between atoms: O_5  and  C_28
REMARK    4  A    between atoms: O_5  and  C_31
REMARK    5  A    between atoms: N_6  and  C_10
REMARK    6  A    between atoms: N_6  and  C_16
REMARK    7  A    between atoms: N_6  and  C_17
REMARK    8  A    between atoms: N_7  and  C_14
REMARK    9  A    between atoms: N_8  and  C_23
REMARK   10  A    between atoms: C_11  and  C_14
REMARK   11  A    between atoms: C_13  and  C_15
REMARK   12  A    between atoms: C_16  and  C_18
REMARK   13  A    between atoms: C_18  and  C_19
REMARK                            x       y       z     vdW  Elec       q    Type
REMARK                         _______ _______ _______ _____ _____    ______ ____
ROOT
ATOM      1  O   UNL     1      13.128   7.151   2.011  0.00  0.00    -0.365 OA
ATOM     10  C   UNL     1      13.999   5.740   0.305  0.00  0.00    +0.118 C 
ATOM     11  C   UNL     1      12.712   6.220   0.988  0.00  0.00    +0.155 C 
ATOM     12  C   UNL     1      15.050   5.919   1.388  0.00  0.00    +0.165 C 
ATOM     13  C   UNL     1      14.567   7.210   2.038  0.00  0.00    +0.174 C 
ENDROOT
BRANCH  12   2
ATOM      2  O   UNL     1      15.020   4.851   2.326  0.00  0.00    -0.388 OA
ATOM     32  H   UNL     1      15.064   5.239   3.216  0.00  0.00    +0.210 HD
ENDBRANCH  12   2
BRANCH  10   6
ATOM      6  N   UNL     1      13.951   4.419  -0.299  0.00  0.00    -0.297 NA
ATOM     17  C   UNL     1      15.280   4.008  -0.763  0.00  0.00    +0.105 C 
BRANCH   6  16
ATOM     16  C   UNL     1      12.998   4.389  -1.414  0.00  0.00    +0.090 C 
BRANCH  16  18
ATOM     18  C   UNL     1      12.454   2.978  -1.632  0.00  0.00    +0.071 C 
BRANCH  18  19
ATOM      9  N   UNL     1      10.352   2.277  -2.642  0.00  0.00    -0.260 NA
ATOM     19  C   UNL     1      11.529   2.918  -2.822  0.00  0.00    +0.042 A 
ATOM     21  C   UNL     1      11.915   3.510  -4.013  0.00  0.00    +0.023 A 
ATOM     22  C   UNL     1      11.039   3.438  -5.090  0.00  0.00    +0.003 A 
ATOM     24  C   UNL     1       9.526   2.228  -3.712  0.00  0.00    +0.111 A 
ATOM     25  C   UNL     1       9.819   2.787  -4.944  0.00  0.00    +0.020 A 
ENDBRANCH  18  19
ENDBRANCH  16  18
ENDBRANCH   6  16
ENDBRANCH  10   6
BRANCH  11  14
ATOM     14  C   UNL     1      11.860   5.153   1.666  0.00  0.00    +0.139 C 
BRANCH  14   7
ATOM      4  O   UNL     1       9.788   5.857   3.516  0.00  0.00    -0.253 OA
ATOM      7  N   UNL     1      11.975   5.232   3.092  0.00  0.00    -0.297 N 
ATOM      8  N   UNL     1      11.317   5.580   5.275  0.00  0.00    -0.269 N 
ATOM     20  C   UNL     1      10.910   5.586   3.938  0.00  0.00    +0.304 C 
ATOM     33  H   UNL     1      12.878   5.035   3.511  0.00  0.00    +0.150 HD
ATOM     35  H   UNL     1      12.287   5.331   5.455  0.00  0.00    +0.156 HD
BRANCH   8  23
ATOM     23  C   UNL     1      10.543   5.878   6.420  0.00  0.00    +0.038 A 
ATOM     26  C   UNL     1      10.213   4.866   7.323  0.00  0.00    +0.069 A 
ATOM     27  C   UNL     1      10.108   7.184   6.647  0.00  0.00    +0.023 A 
ATOM     28  C   UNL     1       9.449   5.160   8.451  0.00  0.00    +0.122 A 
ATOM     29  C   UNL     1       9.344   7.477   7.776  0.00  0.00    +0.005 A 
ATOM     30  C   UNL     1       9.015   6.467   8.679  0.00  0.00    +0.046 A 
BRANCH  28   5
ATOM      5  O   UNL     1       9.127   4.174   9.332  0.00  0.00    -0.495 OA
ATOM     31  C   UNL     1       8.633   4.577  10.608  0.00  0.00    +0.277 C 
ENDBRANCH  28   5
ENDBRANCH   8  23
ENDBRANCH  14   7
ENDBRANCH  11  14
BRANCH  13  15
ATOM     15  C   UNL     1      15.033   7.438   3.464  0.00  0.00    +0.190 C 
BRANCH  15   3
ATOM      3  O   UNL     1      14.223   6.668   4.340  0.00  0.00    -0.392 OA
ATOM     34  H   UNL     1      13.758   6.011   3.795  0.00  0.00    +0.210 HD
ENDBRANCH  15   3
ENDBRANCH  13  15
TORSDOF 11
ENDMDL
MODEL 4
REMARK VINA RESULT:      -6.4     28.116     31.863
REMARK  Name = 28962287
REMARK  13 active torsions:
REMARK  status: ('A' for Active; 'I' for Inactive)
REMARK    1  A    between atoms: O_2  and  C_12
REMARK    2  A    between atoms: O_3  and  C_15
REMARK    3  A    between atoms: O_5  and  C_28
REMARK    4  A    between atoms: O_5  and  C_31
REMARK    5  A    between atoms: N_6  and  C_10
REMARK    6  A    between atoms: N_6  and  C_16
REMARK    7  A    between atoms: N_6  and  C_17
REMARK    8  A    between atoms: N_7  and  C_14
REMARK    9  A    between atoms: N_8  and  C_23
REMARK   10  A    between atoms: C_11  and  C_14
REMARK   11  A    between atoms: C_13  and  C_15
REMARK   12  A    between atoms: C_16  and  C_18
REMARK   13  A    between atoms: C_18  and  C_19
REMARK                            x       y       z     vdW  Elec       q    Type
REMARK                         _______ _______ _______ _____ _____    ______ ____
ROOT
ATOM      1  O   UNL     1      -7.776 -10.791  19.628  0.00  0.00    -0.365 OA
ATOM     10  C   UNL     1      -7.173 -12.457  18.039  0.00  0.00    +0.118 C 
ATOM     11  C   UNL     1      -6.806 -11.075  18.596  0.00  0.00    +0.155 C 
ATOM     12  C   UNL     1      -8.662 -12.559  18.328  0.00  0.00    +0.165 C 
ATOM     13  C   UNL     1      -8.733 -11.866  19.684  0.00  0.00    +0.174 C 
ENDROOT
BRANCH  12   2
ATOM      2  O   UNL     1      -9.431 -11.847  17.367  0.00  0.00    -0.388 OA
ATOM     32  H   UNL     1      -9.204 -10.905  17.447  0.00  0.00    +0.210 HD
ENDBRANCH  12   2
BRANCH  10   6
ATOM      6  N   UNL     1      -6.791 -12.717  16.662  0.00  0.00    -0.297 NA
ATOM     17  C   UNL     1      -7.166 -14.077  16.263  0.00  0.00    +0.105 C 
BRANCH   6  16
ATOM     16  C   UNL     1      -5.350 -12.517  16.473  0.00  0.00    +0.090 C 
BRANCH  16  18
ATOM     18  C   UNL     1      -5.062 -11.838  15.135  0.00  0.00    +0.071 C 
BRANCH  18  19
ATOM      9  N   UNL     1      -3.203 -10.869  13.897  0.00  0.00    -0.260 NA
ATOM     19  C   UNL     1      -3.683 -11.227  15.109  0.00  0.00    +0.042 A 
ATOM     21  C   UNL     1      -2.992 -11.061  16.298  0.00  0.00    +0.023 A 
ATOM     22  C   UNL     1      -1.725 -10.492  16.240  0.00  0.00    +0.003 A 
ATOM     24  C   UNL     1      -1.967 -10.319  13.881  0.00  0.00    +0.111 A 
ATOM     25  C   UNL     1      -1.195 -10.111  15.012  0.00  0.00    +0.020 A 
ENDBRANCH  18  19
ENDBRANCH  16  18
ENDBRANCH   6  16
ENDBRANCH  10   6
BRANCH  11  14
ATOM     14  C   UNL     1      -6.841  -9.911  17.611  0.00  0.00    +0.139 C 
BRANCH  14   7
ATOM      4  O   UNL     1      -8.834  -9.266  15.657  0.00  0.00    -0.253 OA
ATOM      7  N   UNL     1      -8.007  -9.102  17.811  0.00  0.00    -0.297 N 
ATOM      8  N   UNL     1      -9.972  -8.016  17.286  0.00  0.00    -0.269 N 
ATOM     20  C   UNL     1      -8.943  -8.829  16.800  0.00  0.00    +0.304 C 
ATOM     33  H   UNL     1      -8.155  -8.696  18.729  0.00  0.00    +0.150 HD
ATOM     35  H   UNL     1      -9.911  -7.740  18.264  0.00  0.00    +0.156 HD
BRANCH   8  23
ATOM     23  C   UNL     1     -11.096  -7.524  16.583  0.00  0.00    +0.038 A 
ATOM     26  C   UNL     1     -10.950  -6.466  15.686  0.00  0.00    +0.069 A 
ATOM     27  C   UNL     1     -12.351  -8.096  16.788  0.00  0.00    +0.023 A 
ATOM     28  C   UNL     1     -12.058  -5.980  14.994  0.00  0.00    +0.122 A 
ATOM     29  C   UNL     1     -13.460  -7.610  16.096  0.00  0.00    +0.005 A 
ATOM     30  C   UNL     1     -13.314  -6.553  15.198  0.00  0.00    +0.046 A 
BRANCH  28   5
ATOM      5  O   UNL     1     -11.916  -4.948  14.119  0.00  0.00    -0.495 OA
ATOM     31  C   UNL     1     -13.083  -4.531  13.410  0.00  0.00    +0.277 C 
ENDBRANCH  28   5
ENDBRANCH   8  23
ENDBRANCH  14   7
ENDBRANCH  11  14
BRANCH  13  15
ATOM     15  C   UNL     1     -10.093 -11.306  20.061  0.00  0.00    +0.190 C 
BRANCH  15   3
ATOM      3  O   UNL     1     -10.110  -9.914  19.779  0.00  0.00    -0.392 OA
ATOM     34  H   UNL     1     -10.379  -9.814  18.851  0.00  0.00    +0.210 HD
ENDBRANCH  15   3
ENDBRANCH  13  15
TORSDOF 11
ENDMDL
MODEL 5
REMARK VINA RESULT:      -6.3     29.396     31.523
REMARK  Name = 28962287
REMARK  13 active torsions:
REMARK  status: ('A' for Active; 'I' for Inactive)
REMARK    1  A    between atoms: O_2  and  C_12
REMARK    2  A    between atoms: O_3  and  C_15
REMARK    3  A    between atoms: O_5  and  C_28
REMARK    4  A    between atoms: O_5  and  C_31
REMARK    5  A    between atoms: N_6  and  C_10
REMARK    6  A    between atoms: N_6  and  C_16
REMARK    7  A    between atoms: N_6  and  C_17
REMARK    8  A    between atoms: N_7  and  C_14
REMARK    9  A    between atoms: N_8  and  C_23
REMARK   10  A    between atoms: C_11  and  C_14
REMARK   11  A    between atoms: C_13  and  C_15
REMARK   12  A    between atoms: C_16  and  C_18
REMARK   13  A    between atoms: C_18  and  C_19
REMARK                            x       y       z     vdW  Elec       q    Type
REMARK                         _______ _______ _______ _____ _____    ______ ____
ROOT
ATOM      1  O   UNL     1      -5.021 -10.225  18.248  0.00  0.00    -0.365 OA
ATOM     10  C   UNL     1      -4.422 -11.923  16.693  0.00  0.00    +0.118 C 
ATOM     11  C   UNL     1      -4.610 -10.412  16.876  0.00  0.00    +0.155 C 
ATOM     12  C   UNL     1      -5.347 -12.514  17.745  0.00  0.00    +0.165 C 
ATOM     13  C   UNL     1      -5.159 -11.512  18.878  0.00  0.00    +0.174 C 
ENDROOT
BRANCH  12   2
ATOM      2  O   UNL     1      -6.699 -12.520  17.307  0.00  0.00    -0.388 OA
ATOM     32  H   UNL     1      -7.055 -13.411  17.461  0.00  0.00    +0.210 HD
ENDBRANCH  12   2
BRANCH  10   6
ATOM      6  N   UNL     1      -4.609 -12.436  15.347  0.00  0.00    -0.297 NA
ATOM     17  C   UNL     1      -4.509 -13.899  15.326  0.00  0.00    +0.105 C 
BRANCH   6  16
ATOM     16  C   UNL     1      -3.628 -11.852  14.425  0.00  0.00    +0.090 C 
BRANCH  16  18
ATOM     18  C   UNL     1      -3.913 -12.273  12.984  0.00  0.00    +0.071 C 
BRANCH  18  19
ATOM      9  N   UNL     1      -5.086 -10.479  11.829  0.00  0.00    -0.260 NA
ATOM     19  C   UNL     1      -3.900 -11.090  12.048  0.00  0.00    +0.042 A 
ATOM     21  C   UNL     1      -2.704 -10.693  11.473  0.00  0.00    +0.023 A 
ATOM     22  C   UNL     1      -2.727  -9.598  10.616  0.00  0.00    +0.003 A 
ATOM     24  C   UNL     1      -5.068  -9.418  10.990  0.00  0.00    +0.111 A 
ATOM     25  C   UNL     1      -3.927  -8.942  10.365  0.00  0.00    +0.020 A 
ENDBRANCH  18  19
ENDBRANCH  16  18
ENDBRANCH   6  16
ENDBRANCH  10   6
BRANCH  11  14
ATOM     14  C   UNL     1      -5.660  -9.743  15.995  0.00  0.00    +0.139 C 
BRANCH  14   7
ATOM      4  O   UNL     1      -8.420 -10.499  15.857  0.00  0.00    -0.253 OA
ATOM      7  N   UNL     1      -6.733  -9.215  16.783  0.00  0.00    -0.297 N 
ATOM      8  N   UNL     1      -8.890  -8.947  17.555  0.00  0.00    -0.269 N 
ATOM     20  C   UNL     1      -8.068  -9.637  16.659  0.00  0.00    +0.304 C 
ATOM     33  H   UNL     1      -6.518  -8.488  17.458  0.00  0.00    +0.150 HD
ATOM     35  H   UNL     1      -8.437  -8.260  18.153  0.00  0.00    +0.156 HD
BRANCH   8  23
ATOM     23  C   UNL     1     -10.286  -9.085  17.735  0.00  0.00    +0.038 A 
ATOM     26  C   UNL     1     -11.169  -8.459  16.856  0.00  0.00    +0.069 A 
ATOM     27  C   UNL     1     -10.779  -9.847  18.795  0.00  0.00    +0.023 A 
ATOM     28  C   UNL     1     -12.545  -8.594  17.035  0.00  0.00    +0.122 A 
ATOM     29  C   UNL     1     -12.156  -9.982  18.974  0.00  0.00    +0.005 A 
ATOM     30  C   UNL     1     -13.039  -9.357  18.094  0.00  0.00    +0.046 A 
BRANCH  28   5
ATOM      5  O   UNL     1     -13.407  -7.984  16.177  0.00  0.00    -0.495 OA
ATOM     31  C   UNL     1     -13.121  -6.631  15.823  0.00  0.00    +0.277 C 
ENDBRANCH  28   5
ENDBRANCH   8  23
ENDBRANCH  14   7
ENDBRANCH  11  14
BRANCH  13  15
ATOM     15  C   UNL     1      -6.287 -11.455  19.893  0.00  0.00    +0.190 C 
BRANCH  15   3
ATOM      3  O   UNL     1      -7.021 -10.257  19.695  0.00  0.00    -0.392 OA
ATOM     34  H   UNL     1      -6.910 -10.004  18.763  0.00  0.00    +0.210 HD
ENDBRANCH  15   3
ENDBRANCH  13  15
TORSDOF 11
ENDMDL
MODEL 6
REMARK VINA RESULT:      -6.3      2.638      9.152
REMARK  Name = 28962287
REMARK  13 active torsions:
REMARK  status: ('A' for Active; 'I' for Inactive)
REMARK    1  A    between atoms: O_2  and  C_12
REMARK    2  A    between atoms: O_3  and  C_15
REMARK    3  A    between atoms: O_5  and  C_28
REMARK    4  A    between atoms: O_5  and  C_31
REMARK    5  A    between atoms: N_6  and  C_10
REMARK    6  A    between atoms: N_6  and  C_16
REMARK    7  A    between atoms: N_6  and  C_17
REMARK    8  A    between atoms: N_7  and  C_14
REMARK    9  A    between atoms: N_8  and  C_23
REMARK   10  A    between atoms: C_11  and  C_14
REMARK   11  A    between atoms: C_13  and  C_15
REMARK   12  A    between atoms: C_16  and  C_18
REMARK   13  A    between atoms: C_18  and  C_19
REMARK                            x       y       z     vdW  Elec       q    Type
REMARK                         _______ _______ _______ _____ _____    ______ ____
ROOT
ATOM      1  O   UNL     1      13.692   8.508  17.987  0.00  0.00    -0.365 OA
ATOM     10  C   UNL     1      13.390   9.138  20.262  0.00  0.00    +0.118 C 
ATOM     11  C   UNL     1      14.342   8.450  19.275  0.00  0.00    +0.155 C 
ATOM     12  C   UNL     1      12.029   8.952  19.611  0.00  0.00    +0.165 C 
ATOM     13  C   UNL     1      12.395   9.116  18.141  0.00  0.00    +0.174 C 
ENDROOT
BRANCH  12   2
ATOM      2  O   UNL     1      11.510   7.650  19.850  0.00  0.00    -0.388 OA
ATOM     32  H   UNL     1      11.617   7.136  19.032  0.00  0.00    +0.210 HD
ENDBRANCH  12   2
BRANCH  10   6
ATOM      6  N   UNL     1      13.478   8.708  21.646  0.00  0.00    -0.297 NA
ATOM     17  C   UNL     1      12.338   9.204  22.422  0.00  0.00    +0.105 C 
BRANCH   6  16
ATOM     16  C   UNL     1      14.734   9.160  22.255  0.00  0.00    +0.090 C 
BRANCH  16  18
ATOM     18  C   UNL     1      14.937  10.660  22.045  0.00  0.00    +0.071 C 
BRANCH  18  19
ATOM      9  N   UNL     1      16.577  12.254  21.212  0.00  0.00    -0.260 NA
ATOM     19  C   UNL     1      16.323  10.968  21.539  0.00  0.00    +0.042 A 
ATOM     21  C   UNL     1      17.251   9.944  21.437  0.00  0.00    +0.023 A 
ATOM     22  C   UNL     1      18.522  10.261  20.969  0.00  0.00    +0.003 A 
ATOM     24  C   UNL     1      17.823  12.525  20.761  0.00  0.00    +0.111 A 
ATOM     25  C   UNL     1      18.821  11.574  20.623  0.00  0.00    +0.020 A 
ENDBRANCH  18  19
ENDBRANCH  16  18
ENDBRANCH   6  16
ENDBRANCH  10   6
BRANCH  11  14
ATOM     14  C   UNL     1      14.669   6.986  19.550  0.00  0.00    +0.139 C 
BRANCH  14   7
ATOM      4  O   UNL     1      16.715   6.422  21.475  0.00  0.00    -0.253 OA
ATOM      7  N   UNL     1      16.048   6.706  19.278  0.00  0.00    -0.297 N 
ATOM      8  N   UNL     1      18.256   6.203  19.717  0.00  0.00    -0.269 N 
ATOM     20  C   UNL     1      16.997   6.438  20.279  0.00  0.00    +0.304 C 
ATOM     33  H   UNL     1      16.356   6.716  18.311  0.00  0.00    +0.150 HD
ATOM     35  H   UNL     1      18.318   6.254  18.703  0.00  0.00    +0.156 HD
BRANCH   8  23
ATOM     23  C   UNL     1      19.463   5.900  20.387  0.00  0.00    +0.038 A 
ATOM     26  C   UNL     1      20.018   4.625  20.283  0.00  0.00    +0.069 A 
ATOM     27  C   UNL     1      20.098   6.877  21.154  0.00  0.00    +0.023 A 
ATOM     28  C   UNL     1      21.209   4.326  20.945  0.00  0.00    +0.122 A 
ATOM     29  C   UNL     1      21.290   6.578  21.816  0.00  0.00    +0.005 A 
ATOM     30  C   UNL     1      21.845   5.304  21.712  0.00  0.00    +0.046 A 
BRANCH  28   5
ATOM      5  O   UNL     1      21.751   3.082  20.844  0.00  0.00    -0.495 OA
ATOM     31  C   UNL     1      23.130   2.944  21.184  0.00  0.00    +0.277 C 
ENDBRANCH  28   5
ENDBRANCH   8  23
ENDBRANCH  14   7
ENDBRANCH  11  14
BRANCH  13  15
ATOM     15  C   UNL     1      11.428   8.490  17.153  0.00  0.00    +0.190 C 
BRANCH  15   3
ATOM      3  O   UNL     1      11.562   7.079  17.210  0.00  0.00    -0.392 OA
ATOM     34  H   UNL     1      12.206   6.825  16.528  0.00  0.00    +0.210 HD
ENDBRANCH  15   3
ENDBRANCH  13  15
TORSDOF 11
ENDMDL
MODEL 7
REMARK VINA RESULT:      -6.2     29.589     31.554
REMARK  Name = 28962287
REMARK  13 active torsions:
REMARK  status: ('A' for Active; 'I' for Inactive)
REMARK    1  A    between atoms: O_2  and  C_12
REMARK    2  A    between atoms: O_3  and  C_15
REMARK    3  A    between atoms: O_5  and  C_28
REMARK    4  A    between atoms: O_5  and  C_31
REMARK    5  A    between atoms: N_6  and  C_10
REMARK    6  A    between atoms: N_6  and  C_16
REMARK    7  A    between atoms: N_6  and  C_17
REMARK    8  A    between atoms: N_7  and  C_14
REMARK    9  A    between atoms: N_8  and  C_23
REMARK   10  A    between atoms: C_11  and  C_14
REMARK   11  A    between atoms: C_13  and  C_15
REMARK   12  A    between atoms: C_16  and  C_18
REMARK   13  A    between atoms: C_18  and  C_19
REMARK                            x       y       z     vdW  Elec       q    Type
REMARK                         _______ _______ _______ _____ _____    ______ ____
ROOT
ATOM      1  O   UNL     1      -5.113 -10.320  18.264  0.00  0.00    -0.365 OA
ATOM     10  C   UNL     1      -4.435 -11.912  16.631  0.00  0.00    +0.118 C 
ATOM     11  C   UNL     1      -4.606 -10.414  16.915  0.00  0.00    +0.155 C 
ATOM     12  C   UNL     1      -5.446 -12.556  17.566  0.00  0.00    +0.165 C 
ATOM     13  C   UNL     1      -5.322 -11.647  18.783  0.00  0.00    +0.174 C 
ENDROOT
BRANCH  12   2
ATOM      2  O   UNL     1      -6.763 -12.495  17.033  0.00  0.00    -0.388 OA
ATOM     32  H   UNL     1      -7.030 -11.560  17.015  0.00  0.00    +0.210 HD
ENDBRANCH  12   2
BRANCH  10   6
ATOM      6  N   UNL     1      -4.533 -12.318  15.239  0.00  0.00    -0.297 NA
ATOM     17  C   UNL     1      -4.472 -13.777  15.115  0.00  0.00    +0.105 C 
BRANCH   6  16
ATOM     16  C   UNL     1      -3.470 -11.700  14.439  0.00  0.00    +0.090 C 
BRANCH  16  18
ATOM     18  C   UNL     1      -3.578 -12.112  12.972  0.00  0.00    +0.071 C 
BRANCH  18  19
ATOM      9  N   UNL     1      -5.026 -10.289  12.262  0.00  0.00    -0.260 NA
ATOM     19  C   UNL     1      -3.848 -10.926  12.081  0.00  0.00    +0.042 A 
ATOM     21  C   UNL     1      -2.900 -10.552  11.143  0.00  0.00    +0.023 A 
ATOM     22  C   UNL     1      -3.178  -9.452  10.339  0.00  0.00    +0.003 A 
ATOM     24  C   UNL     1      -5.262  -9.224  11.461  0.00  0.00    +0.111 A 
ATOM     25  C   UNL     1      -4.380  -8.770  10.495  0.00  0.00    +0.020 A 
ENDBRANCH  18  19
ENDBRANCH  16  18
ENDBRANCH   6  16
ENDBRANCH  10   6
BRANCH  11  14
ATOM     14  C   UNL     1      -5.575  -9.655  16.014  0.00  0.00    +0.139 C 
BRANCH  14   7
ATOM      4  O   UNL     1      -8.345 -10.286  15.646  0.00  0.00    -0.253 OA
ATOM      7  N   UNL     1      -6.679  -9.137  16.767  0.00  0.00    -0.297 N 
ATOM      8  N   UNL     1      -8.871  -8.833  17.414  0.00  0.00    -0.269 N 
ATOM     20  C   UNL     1      -8.016  -9.495  16.527  0.00  0.00    +0.304 C 
ATOM     33  H   UNL     1      -6.483  -8.466  17.503  0.00  0.00    +0.150 HD
ATOM     35  H   UNL     1      -8.434  -8.207  18.087  0.00  0.00    +0.156 HD
BRANCH   8  23
ATOM     23  C   UNL     1     -10.280  -8.925  17.494  0.00  0.00    +0.038 A 
ATOM     26  C   UNL     1     -10.873  -9.691  18.497  0.00  0.00    +0.069 A 
ATOM     27  C   UNL     1     -11.076  -8.251  16.568  0.00  0.00    +0.023 A 
ATOM     28  C   UNL     1     -12.263  -9.783  18.575  0.00  0.00    +0.122 A 
ATOM     29  C   UNL     1     -12.466  -8.343  16.646  0.00  0.00    +0.005 A 
ATOM     30  C   UNL     1     -13.059  -9.108  17.649  0.00  0.00    +0.046 A 
BRANCH  28   5
ATOM      5  O   UNL     1     -12.842 -10.530  19.554  0.00  0.00    -0.495 OA
ATOM     31  C   UNL     1     -12.965  -9.930  20.843  0.00  0.00    +0.277 C 
ENDBRANCH  28   5
ENDBRANCH   8  23
ENDBRANCH  14   7
ENDBRANCH  11  14
BRANCH  13  15
ATOM     15  C   UNL     1      -6.520 -11.637  19.715  0.00  0.00    +0.190 C 
BRANCH  15   3
ATOM      3  O   UNL     1      -7.074 -10.331  19.736  0.00  0.00    -0.392 OA
ATOM     34  H   UNL     1      -7.254 -10.082  18.814  0.00  0.00    +0.210 HD
ENDBRANCH  15   3
ENDBRANCH  13  15
TORSDOF 11
ENDMDL
MODEL 8
REMARK VINA RESULT:      -6.2      3.594     10.565
REMARK  Name = 28962287
REMARK  13 active torsions:
REMARK  status: ('A' for Active; 'I' for Inactive)
REMARK    1  A    between atoms: O_2  and  C_12
REMARK    2  A    between atoms: O_3  and  C_15
REMARK    3  A    between atoms: O_5  and  C_28
REMARK    4  A    between atoms: O_5  and  C_31
REMARK    5  A    between atoms: N_6  and  C_10
REMARK    6  A    between atoms: N_6  and  C_16
REMARK    7  A    between atoms: N_6  and  C_17
REMARK    8  A    between atoms: N_7  and  C_14
REMARK    9  A    between atoms: N_8  and  C_23
REMARK   10  A    between atoms: C_11  and  C_14
REMARK   11  A    between atoms: C_13  and  C_15
REMARK   12  A    between atoms: C_16  and  C_18
REMARK   13  A    between atoms: C_18  and  C_19
REMARK                            x       y       z     vdW  Elec       q    Type
REMARK                         _______ _______ _______ _____ _____    ______ ____
ROOT
ATOM      1  O   UNL     1      14.324   8.855  17.611  0.00  0.00    -0.365 OA
ATOM     10  C   UNL     1      12.930   8.999  19.534  0.00  0.00    +0.118 C 
ATOM     11  C   UNL     1      14.284   8.503  19.012  0.00  0.00    +0.155 C 
ATOM     12  C   UNL     1      12.061   9.001  18.287  0.00  0.00    +0.165 C 
ATOM     13  C   UNL     1      13.070   9.461  17.242  0.00  0.00    +0.174 C 
ENDROOT
BRANCH  12   2
ATOM      2  O   UNL     1      11.587   7.696  17.978  0.00  0.00    -0.388 OA
ATOM     32  H   UNL     1      10.654   7.776  17.719  0.00  0.00    +0.210 HD
ENDBRANCH  12   2
BRANCH  10   6
ATOM      6  N   UNL     1      12.378   8.282  20.671  0.00  0.00    -0.297 NA
ATOM     17  C   UNL     1      10.918   8.410  20.712  0.00  0.00    +0.105 C 
BRANCH   6  16
ATOM     16  C   UNL     1      12.961   8.768  21.927  0.00  0.00    +0.090 C 
BRANCH  16  18
ATOM     18  C   UNL     1      13.285  10.259  21.841  0.00  0.00    +0.071 C 
BRANCH  18  19
ATOM      9  N   UNL     1      11.578  10.531  23.555  0.00  0.00    -0.260 NA
ATOM     19  C   UNL     1      12.715  11.019  23.012  0.00  0.00    +0.042 A 
ATOM     21  C   UNL     1      13.370  12.151  23.468  0.00  0.00    +0.023 A 
ATOM     22  C   UNL     1      12.821  12.828  24.551  0.00  0.00    +0.003 A 
ATOM     24  C   UNL     1      11.074  11.217  24.607  0.00  0.00    +0.111 A 
ATOM     25  C   UNL     1      11.651  12.358  25.137  0.00  0.00    +0.020 A 
ENDBRANCH  18  19
ENDBRANCH  16  18
ENDBRANCH   6  16
ENDBRANCH  10   6
BRANCH  11  14
ATOM     14  C   UNL     1      14.546   7.004  19.108  0.00  0.00    +0.139 C 
BRANCH  14   7
ATOM      4  O   UNL     1      16.445   6.544  21.204  0.00  0.00    -0.253 OA
ATOM      7  N   UNL     1      15.941   6.714  18.953  0.00  0.00    -0.297 N 
ATOM      8  N   UNL     1      18.109   6.238  19.577  0.00  0.00    -0.269 N 
ATOM     20  C   UNL     1      16.813   6.499  20.033  0.00  0.00    +0.304 C 
ATOM     33  H   UNL     1      16.319   6.674  18.011  0.00  0.00    +0.150 HD
ATOM     35  H   UNL     1      18.246   6.238  18.569  0.00  0.00    +0.156 HD
BRANCH   8  23
ATOM     23  C   UNL     1      19.264   5.973  20.348  0.00  0.00    +0.038 A 
ATOM     26  C   UNL     1      19.896   4.733  20.255  0.00  0.00    +0.069 A 
ATOM     27  C   UNL     1      19.771   6.952  21.204  0.00  0.00    +0.023 A 
ATOM     28  C   UNL     1      21.034   4.471  21.017  0.00  0.00    +0.122 A 
ATOM     29  C   UNL     1      20.910   6.689  21.966  0.00  0.00    +0.005 A 
ATOM     30  C   UNL     1      21.542   5.450  21.872  0.00  0.00    +0.046 A 
BRANCH  28   5
ATOM      5  O   UNL     1      21.650   3.261  20.926  0.00  0.00    -0.495 OA
ATOM     31  C   UNL     1      23.028   3.203  21.297  0.00  0.00    +0.277 C 
ENDBRANCH  28   5
ENDBRANCH   8  23
ENDBRANCH  14   7
ENDBRANCH  11  14
BRANCH  13  15
ATOM     15  C   UNL     1      12.740   9.092  15.807  0.00  0.00    +0.190 C 
BRANCH  15   3
ATOM      3  O   UNL     1      13.897   8.543  15.196  0.00  0.00    -0.392 OA
ATOM     34  H   UNL     1      13.936   8.894  14.291  0.00  0.00    +0.210 HD
ENDBRANCH  15   3
ENDBRANCH  13  15
TORSDOF 11
ENDMDL
MODEL 9
REMARK VINA RESULT:      -6.1     28.040     31.145
REMARK  Name = 28962287
REMARK  13 active torsions:
REMARK  status: ('A' for Active; 'I' for Inactive)
REMARK    1  A    between atoms: O_2  and  C_12
REMARK    2  A    between atoms: O_3  and  C_15
REMARK    3  A    between atoms: O_5  and  C_28
REMARK    4  A    between atoms: O_5  and  C_31
REMARK    5  A    between atoms: N_6  and  C_10
REMARK    6  A    between atoms: N_6  and  C_16
REMARK    7  A    between atoms: N_6  and  C_17
REMARK    8  A    between atoms: N_7  and  C_14
REMARK    9  A    between atoms: N_8  and  C_23
REMARK   10  A    between atoms: C_11  and  C_14
REMARK   11  A    between atoms: C_13  and  C_15
REMARK   12  A    between atoms: C_16  and  C_18
REMARK   13  A    between atoms: C_18  and  C_19
REMARK                            x       y       z     vdW  Elec       q    Type
REMARK                         _______ _______ _______ _____ _____    ______ ____
ROOT
ATOM      1  O   UNL     1      -9.339  -9.179  16.951  0.00  0.00    -0.365 OA
ATOM     10  C   UNL     1      -7.556 -10.206  18.146  0.00  0.00    +0.118 C 
ATOM     11  C   UNL     1      -7.932  -9.489  16.844  0.00  0.00    +0.155 C 
ATOM     12  C   UNL     1      -8.875 -10.817  18.594  0.00  0.00    +0.165 C 
ATOM     13  C   UNL     1      -9.847  -9.716  18.187  0.00  0.00    +0.174 C 
ENDROOT
BRANCH  12   2
ATOM      2  O   UNL     1      -9.160 -12.017  17.888  0.00  0.00    -0.388 OA
ATOM     32  H   UNL     1      -8.385 -12.598  17.968  0.00  0.00    +0.210 HD
ENDBRANCH  12   2
BRANCH  10   6
ATOM      6  N   UNL     1      -6.439 -11.132  18.071  0.00  0.00    -0.297 NA
ATOM     17  C   UNL     1      -6.308 -11.895  19.316  0.00  0.00    +0.105 C 
BRANCH   6  16
ATOM     16  C   UNL     1      -5.189 -10.420  17.784  0.00  0.00    +0.090 C 
BRANCH  16  18
ATOM     18  C   UNL     1      -4.045 -11.401  17.534  0.00  0.00    +0.071 C 
BRANCH  18  19
ATOM      9  N   UNL     1      -1.937 -10.733  16.515  0.00  0.00    -0.260 NA
ATOM     19  C   UNL     1      -3.243 -11.020  16.315  0.00  0.00    +0.042 A 
ATOM     21  C   UNL     1      -3.865 -10.985  15.078  0.00  0.00    +0.023 A 
ATOM     22  C   UNL     1      -3.097 -10.632  13.974  0.00  0.00    +0.003 A 
ATOM     24  C   UNL     1      -1.223 -10.394  15.417  0.00  0.00    +0.111 A 
ATOM     25  C   UNL     1      -1.750 -10.329  14.138  0.00  0.00    +0.020 A 
ENDBRANCH  18  19
ENDBRANCH  16  18
ENDBRANCH   6  16
ENDBRANCH  10   6
BRANCH  11  14
ATOM     14  C   UNL     1      -7.740 -10.275  15.551  0.00  0.00    +0.139 C 
BRANCH  14   7
ATOM      4  O   UNL     1      -6.780 -11.124  12.989  0.00  0.00    -0.253 OA
ATOM      7  N   UNL     1      -7.216  -9.438  14.512  0.00  0.00    -0.297 N 
ATOM      8  N   UNL     1      -6.308  -8.884  12.466  0.00  0.00    -0.269 N 
ATOM     20  C   UNL     1      -6.762  -9.929  13.277  0.00  0.00    +0.304 C 
ATOM     33  H   UNL     1      -7.159  -8.440  14.686  0.00  0.00    +0.150 HD
ATOM     35  H   UNL     1      -6.363  -7.947  12.858  0.00  0.00    +0.156 HD
BRANCH   8  23
ATOM     23  C   UNL     1      -5.778  -8.967  11.158  0.00  0.00    +0.038 A 
ATOM     26  C   UNL     1      -6.626  -8.878  10.054  0.00  0.00    +0.069 A 
ATOM     27  C   UNL     1      -4.406  -9.139  10.972  0.00  0.00    +0.023 A 
ATOM     28  C   UNL     1      -6.103  -8.961   8.764  0.00  0.00    +0.122 A 
ATOM     29  C   UNL     1      -3.883  -9.222   9.681  0.00  0.00    +0.005 A 
ATOM     30  C   UNL     1      -4.730  -9.132   8.578  0.00  0.00    +0.046 A 
BRANCH  28   5
ATOM      5  O   UNL     1      -6.930  -8.874   7.687  0.00  0.00    -0.495 OA
ATOM     31  C   UNL     1      -6.759  -9.846   6.656  0.00  0.00    +0.277 C 
ENDBRANCH  28   5
ENDBRANCH   8  23
ENDBRANCH  14   7
ENDBRANCH  11  14
BRANCH  13  15
ATOM     15  C   UNL     1     -11.286 -10.157  17.987  0.00  0.00    +0.190 C 
BRANCH  15   3
ATOM      3  O   UNL     1     -11.440 -10.633  16.659  0.00  0.00    -0.392 OA
ATOM     34  H   UNL     1     -10.790 -10.163  16.110  0.00  0.00    +0.210 HD
ENDBRANCH  15   3
ENDBRANCH  13  15
TORSDOF 11
ENDMDL
MODEL 10
REMARK VINA RESULT:      -5.8     16.273     20.807
REMARK  Name = 28962287
REMARK  13 active torsions:
REMARK  status: ('A' for Active; 'I' for Inactive)
REMARK    1  A    between atoms: O_2  and  C_12
REMARK    2  A    between atoms: O_3  and  C_15
REMARK    3  A    between atoms: O_5  and  C_28
REMARK    4  A    between atoms: O_5  and  C_31
REMARK    5  A    between atoms: N_6  and  C_10
REMARK    6  A    between atoms: N_6  and  C_16
REMARK    7  A    between atoms: N_6  and  C_17
REMARK    8  A    between atoms: N_7  and  C_14
REMARK    9  A    between atoms: N_8  and  C_23
REMARK   10  A    between atoms: C_11  and  C_14
REMARK   11  A    between atoms: C_13  and  C_15
REMARK   12  A    between atoms: C_16  and  C_18
REMARK   13  A    between atoms: C_18  and  C_19
REMARK                            x       y       z     vdW  Elec       q    Type
REMARK                         _______ _______ _______ _____ _____    ______ ____
ROOT
ATOM      1  O   UNL     1       9.017   5.437   7.095  0.00  0.00    -0.365 OA
ATOM     10  C   UNL     1      10.698   7.067   6.669  0.00  0.00    +0.118 C 
ATOM     11  C   UNL     1       9.757   6.048   6.015  0.00  0.00    +0.155 C 
ATOM     12  C   UNL     1      10.889   6.508   8.070  0.00  0.00    +0.165 C 
ATOM     13  C   UNL     1       9.492   5.964   8.348  0.00  0.00    +0.174 C 
ENDROOT
BRANCH  12   2
ATOM      2  O   UNL     1      11.843   5.454   8.086  0.00  0.00    -0.388 OA
ATOM     32  H   UNL     1      12.156   5.327   7.174  0.00  0.00    +0.210 HD
ENDBRANCH  12   2
BRANCH  10   6
ATOM      6  N   UNL     1      11.924   7.364   5.950  0.00  0.00    -0.297 NA
ATOM     17  C   UNL     1      12.998   7.735   6.877  0.00  0.00    +0.105 C 
BRANCH   6  16
ATOM     16  C   UNL     1      11.709   8.439   4.974  0.00  0.00    +0.090 C 
BRANCH  16  18
ATOM     18  C   UNL     1      12.632   8.277   3.767  0.00  0.00    +0.071 C 
BRANCH  18  19
ATOM      9  N   UNL     1      10.512   8.183   2.574  0.00  0.00    -0.260 NA
ATOM     19  C   UNL     1      11.857   8.270   2.473  0.00  0.00    +0.042 A 
ATOM     21  C   UNL     1      12.542   8.355   1.272  0.00  0.00    +0.023 A 
ATOM     22  C   UNL     1      11.799   8.348   0.098  0.00  0.00    +0.003 A 
ATOM     24  C   UNL     1       9.823   8.180   1.410  0.00  0.00    +0.111 A 
ATOM     25  C   UNL     1      10.412   8.259   0.159  0.00  0.00    +0.020 A 
ENDBRANCH  18  19
ENDBRANCH  16  18
ENDBRANCH   6  16
ENDBRANCH  10   6
BRANCH  11  14
ATOM     14  C   UNL     1      10.414   4.921   5.224  0.00  0.00    +0.139 C 
BRANCH  14   7
ATOM      4  O   UNL     1      11.245   3.214   3.080  0.00  0.00    -0.253 OA
ATOM      7  N   UNL     1      10.607   5.297   3.855  0.00  0.00    -0.297 N 
ATOM      8  N   UNL     1      11.121   5.049   1.621  0.00  0.00    -0.269 N 
ATOM     20  C   UNL     1      11.018   4.400   2.855  0.00  0.00    +0.304 C 
ATOM     33  H   UNL     1      10.450   6.267   3.599  0.00  0.00    +0.150 HD
ATOM     35  H   UNL     1      10.895   6.041   1.607  0.00  0.00    +0.156 HD
BRANCH   8  23
ATOM     23  C   UNL     1      11.502   4.494   0.377  0.00  0.00    +0.038 A 
ATOM     26  C   UNL     1      10.552   4.313  -0.627  0.00  0.00    +0.069 A 
ATOM     27  C   UNL     1      12.830   4.128   0.156  0.00  0.00    +0.023 A 
ATOM     28  C   UNL     1      10.929   3.765  -1.853  0.00  0.00    +0.122 A 
ATOM     29  C   UNL     1      13.207   3.579  -1.070  0.00  0.00    +0.005 A 
ATOM     30  C   UNL     1      12.257   3.399  -2.075  0.00  0.00    +0.046 A 
BRANCH  28   5
ATOM      5  O   UNL     1      10.002   3.588  -2.833  0.00  0.00    -0.495 OA
ATOM     31  C   UNL     1      10.403   2.839  -3.980  0.00  0.00    +0.277 C 
ENDBRANCH  28   5
ENDBRANCH   8  23
ENDBRANCH  14   7
ENDBRANCH  11  14
BRANCH  13  15
ATOM     15  C   UNL     1       9.412   4.881   9.409  0.00  0.00    +0.190 C 
BRANCH  15   3
ATOM      3  O   UNL     1       9.836   3.651   8.842  0.00  0.00    -0.392 OA
ATOM     34  H   UNL     1       9.671   2.960   9.505  0.00  0.00    +0.210 HD
ENDBRANCH  15   3
ENDBRANCH  13  15
TORSDOF 11
ENDMDL
