MODEL 1
REMARK VINA RESULT:      -6.9      0.000      0.000
REMARK  Name = 71693823
REMARK  4 active torsions:
REMARK  status: ('A' for Active; 'I' for Inactive)
REMARK    1  A    between atoms: O_1  and  C_6
REMARK    2  A    between atoms: O_2  and  C_8
REMARK    3  A    between atoms: N_3  and  C_4
REMARK    4  A    between atoms: C_5  and  C_11
REMARK                            x       y       z     vdW  Elec       q    Type
REMARK                         _______ _______ _______ _____ _____    ______ ____
ROOT
ATOM      4  C   UNL     1      12.540   8.393  19.289  0.00  0.00    +0.095 C 
ATOM      5  C   UNL     1      13.909   9.029  18.898  0.00  0.00    +0.041 C 
ATOM      6  C   UNL     1      11.783   8.222  17.961  0.00  0.00    +0.161 C 
ATOM      7  C   UNL     1      13.868   9.210  17.368  0.00  0.00    +0.043 C 
ATOM      8  C   UNL     1      12.381   9.295  17.056  0.00  0.00    +0.145 C 
ENDROOT
BRANCH   4   3
ATOM      3  N   UNL     1      11.807   9.306  20.166  0.00  0.00    -0.296 NA
ATOM      9  C   UNL     1      12.615  10.499  20.455  0.00  0.00    +0.085 C 
ATOM     10  C   UNL     1      11.408   8.621  21.403  0.00  0.00    +0.085 C 
ATOM     12  C   UNL     1      11.843  11.488  21.331  0.00  0.00    +0.015 C 
ATOM     13  C   UNL     1      10.598   9.548  22.311  0.00  0.00    +0.015 C 
ATOM     14  C   UNL     1      11.364  10.829  22.619  0.00  0.00    +0.002 C 
ENDBRANCH   4   3
BRANCH   5  11
ATOM     11  C   UNL     1      15.113   8.245  19.373  0.00  0.00    -0.043 A 
ATOM     15  C   UNL     1      15.991   8.806  20.300  0.00  0.00    +0.004 A 
ATOM     16  C   UNL     1      15.344   6.959  18.884  0.00  0.00    +0.004 A 
ATOM     17  C   UNL     1      17.100   8.083  20.738  0.00  0.00    +0.000 A 
ATOM     18  C   UNL     1      16.453   6.234  19.322  0.00  0.00    +0.000 A 
ATOM     19  C   UNL     1      17.331   6.796  20.249  0.00  0.00    +0.000 A 
ENDBRANCH   5  11
BRANCH   6   1
ATOM      1  O   UNL     1      12.060   6.919  17.451  0.00  0.00    -0.388 OA
ATOM     20  H   UNL     1      11.858   6.281  18.158  0.00  0.00    +0.210 HD
ENDBRANCH   6   1
BRANCH   8   2
ATOM      2  O   UNL     1      12.126   9.055  15.687  0.00  0.00    -0.389 OA
ATOM     21  H   UNL     1      11.173   8.888  15.593  0.00  0.00    +0.210 HD
ENDBRANCH   8   2
TORSDOF 4
ENDMDL
MODEL 2
REMARK VINA RESULT:      -6.8      2.307      4.861
REMARK  Name = 71693823
REMARK  4 active torsions:
REMARK  status: ('A' for Active; 'I' for Inactive)
REMARK    1  A    between atoms: O_1  and  C_6
REMARK    2  A    between atoms: O_2  and  C_8
REMARK    3  A    between atoms: N_3  and  C_4
REMARK    4  A    between atoms: C_5  and  C_11
REMARK                            x       y       z     vdW  Elec       q    Type
REMARK                         _______ _______ _______ _____ _____    ______ ____
ROOT
ATOM      4  C   UNL     1      12.985   7.230  20.181  0.00  0.00    +0.095 C 
ATOM      5  C   UNL     1      12.239   8.549  19.809  0.00  0.00    +0.041 C 
ATOM      6  C   UNL     1      11.993   6.438  21.047  0.00  0.00    +0.161 C 
ATOM      7  C   UNL     1      10.861   8.460  20.492  0.00  0.00    +0.043 C 
ATOM      8  C   UNL     1      11.099   7.513  21.659  0.00  0.00    +0.145 C 
ENDROOT
BRANCH   4   3
ATOM      3  N   UNL     1      14.183   7.548  20.960  0.00  0.00    -0.296 NA
ATOM      9  C   UNL     1      14.410   8.999  20.983  0.00  0.00    +0.085 C 
ATOM     10  C   UNL     1      15.349   6.835  20.422  0.00  0.00    +0.085 C 
ATOM     12  C   UNL     1      15.631   9.352  21.835  0.00  0.00    +0.015 C 
ATOM     13  C   UNL     1      16.601   7.117  21.255  0.00  0.00    +0.015 C 
ATOM     14  C   UNL     1      16.874   8.613  21.354  0.00  0.00    +0.002 C 
ENDBRANCH   4   3
BRANCH   5  11
ATOM     11  C   UNL     1      12.151   8.809  18.321  0.00  0.00    -0.043 A 
ATOM     15  C   UNL     1      13.265   9.283  17.627  0.00  0.00    +0.004 A 
ATOM     16  C   UNL     1      10.955   8.575  17.642  0.00  0.00    +0.004 A 
ATOM     17  C   UNL     1      13.184   9.522  16.256  0.00  0.00    +0.000 A 
ATOM     18  C   UNL     1      10.873   8.814  16.270  0.00  0.00    +0.000 A 
ATOM     19  C   UNL     1      11.987   9.287  15.576  0.00  0.00    +0.000 A 
ENDBRANCH   5  11
BRANCH   6   1
ATOM      1  O   UNL     1      11.237   5.579  20.194  0.00  0.00    -0.388 OA
ATOM     20  H   UNL     1      11.854   4.927  19.820  0.00  0.00    +0.210 HD
ENDBRANCH   6   1
BRANCH   8   2
ATOM      2  O   UNL     1       9.884   6.991  22.157  0.00  0.00    -0.389 OA
ATOM     21  H   UNL     1      10.005   6.825  23.107  0.00  0.00    +0.210 HD
ENDBRANCH   8   2
TORSDOF 4
ENDMDL
MODEL 3
REMARK VINA RESULT:      -6.2      2.452      4.094
REMARK  Name = 71693823
REMARK  4 active torsions:
REMARK  status: ('A' for Active; 'I' for Inactive)
REMARK    1  A    between atoms: O_1  and  C_6
REMARK    2  A    between atoms: O_2  and  C_8
REMARK    3  A    between atoms: N_3  and  C_4
REMARK    4  A    between atoms: C_5  and  C_11
REMARK                            x       y       z     vdW  Elec       q    Type
REMARK                         _______ _______ _______ _____ _____    ______ ____
ROOT
ATOM      4  C   UNL     1      14.070   8.896  20.017  0.00  0.00    +0.095 C 
ATOM      5  C   UNL     1      14.300   7.387  19.693  0.00  0.00    +0.041 C 
ATOM      6  C   UNL     1      12.936   8.917  21.055  0.00  0.00    +0.161 C 
ATOM      7  C   UNL     1      13.277   6.613  20.547  0.00  0.00    +0.043 C 
ATOM      8  C   UNL     1      12.166   7.627  20.784  0.00  0.00    +0.145 C 
ENDROOT
BRANCH   4   3
ATOM      3  N   UNL     1      13.648   9.599  18.805  0.00  0.00    -0.296 NA
ATOM      9  C   UNL     1      13.582   8.669  17.669  0.00  0.00    +0.085 C 
ATOM     10  C   UNL     1      14.551  10.722  18.522  0.00  0.00    +0.085 C 
ATOM     12  C   UNL     1      13.094   9.379  16.404  0.00  0.00    +0.015 C 
ATOM     13  C   UNL     1      14.096  11.498  17.284  0.00  0.00    +0.015 C 
ATOM     14  C   UNL     1      13.967  10.583  16.073  0.00  0.00    +0.002 C 
ENDBRANCH   4   3
BRANCH   5  11
ATOM     11  C   UNL     1      15.724   6.921  19.901  0.00  0.00    -0.043 A 
ATOM     15  C   UNL     1      16.370   6.185  18.908  0.00  0.00    +0.004 A 
ATOM     16  C   UNL     1      16.391   7.228  21.088  0.00  0.00    +0.004 A 
ATOM     17  C   UNL     1      17.683   5.756  19.101  0.00  0.00    +0.000 A 
ATOM     18  C   UNL     1      17.704   6.799  21.281  0.00  0.00    +0.000 A 
ATOM     19  C   UNL     1      18.351   6.062  20.288  0.00  0.00    +0.000 A 
ENDBRANCH   5  11
BRANCH   6   1
ATOM      1  O   UNL     1      13.519   8.892  22.357  0.00  0.00    -0.388 OA
ATOM     20  H   UNL     1      12.978   9.465  22.928  0.00  0.00    +0.210 HD
ENDBRANCH   6   1
BRANCH   8   2
ATOM      2  O   UNL     1      11.343   7.248  21.868  0.00  0.00    -0.389 OA
ATOM     21  H   UNL     1      11.668   7.712  22.657  0.00  0.00    +0.210 HD
ENDBRANCH   8   2
TORSDOF 4
ENDMDL
MODEL 4
REMARK VINA RESULT:      -6.0     30.470     31.427
REMARK  Name = 71693823
REMARK  4 active torsions:
REMARK  status: ('A' for Active; 'I' for Inactive)
REMARK    1  A    between atoms: O_1  and  C_6
REMARK    2  A    between atoms: O_2  and  C_8
REMARK    3  A    between atoms: N_3  and  C_4
REMARK    4  A    between atoms: C_5  and  C_11
REMARK                            x       y       z     vdW  Elec       q    Type
REMARK                         _______ _______ _______ _____ _____    ______ ____
ROOT
ATOM      4  C   UNL     1     -14.757   2.579  30.010  0.00  0.00    +0.095 C 
ATOM      5  C   UNL     1     -16.061   1.928  29.452  0.00  0.00    +0.041 C 
ATOM      6  C   UNL     1     -13.996   1.432  30.695  0.00  0.00    +0.161 C 
ATOM      7  C   UNL     1     -15.996   0.443  29.858  0.00  0.00    +0.043 C 
ATOM      8  C   UNL     1     -15.093   0.443  31.083  0.00  0.00    +0.145 C 
ENDROOT
BRANCH   4   3
ATOM      3  N   UNL     1     -15.104   3.605  30.994  0.00  0.00    -0.296 NA
ATOM      9  C   UNL     1     -15.639   4.798  30.325  0.00  0.00    +0.085 C 
ATOM     10  C   UNL     1     -13.937   3.937  31.823  0.00  0.00    +0.085 C 
ATOM     12  C   UNL     1     -16.053   5.862  31.344  0.00  0.00    +0.015 C 
ATOM     13  C   UNL     1     -14.295   4.973  32.890  0.00  0.00    +0.015 C 
ATOM     14  C   UNL     1     -14.895   6.227  32.265  0.00  0.00    +0.002 C 
ENDBRANCH   4   3
BRANCH   5  11
ATOM     11  C   UNL     1     -16.266   2.132  27.967  0.00  0.00    -0.043 A 
ATOM     15  C   UNL     1     -16.081   3.394  27.403  0.00  0.00    +0.004 A 
ATOM     16  C   UNL     1     -16.642   1.057  27.161  0.00  0.00    +0.004 A 
ATOM     17  C   UNL     1     -16.270   3.582  26.035  0.00  0.00    +0.000 A 
ATOM     18  C   UNL     1     -16.831   1.244  25.792  0.00  0.00    +0.000 A 
ATOM     19  C   UNL     1     -16.645   2.506  25.228  0.00  0.00    +0.000 A 
ENDBRANCH   5  11
BRANCH   6   1
ATOM      1  O   UNL     1     -13.107   0.851  29.743  0.00  0.00    -0.388 OA
ATOM     20  H   UNL     1     -12.209   0.904  30.114  0.00  0.00    +0.210 HD
ENDBRANCH   6   1
BRANCH   8   2
ATOM      2  O   UNL     1     -14.589  -0.848  31.354  0.00  0.00    -0.389 OA
ATOM     21  H   UNL     1     -13.642  -0.756  31.552  0.00  0.00    +0.210 HD
ENDBRANCH   8   2
TORSDOF 4
ENDMDL
MODEL 5
REMARK VINA RESULT:      -5.9     26.620     29.290
REMARK  Name = 71693823
REMARK  4 active torsions:
REMARK  status: ('A' for Active; 'I' for Inactive)
REMARK    1  A    between atoms: O_1  and  C_6
REMARK    2  A    between atoms: O_2  and  C_8
REMARK    3  A    between atoms: N_3  and  C_4
REMARK    4  A    between atoms: C_5  and  C_11
REMARK                            x       y       z     vdW  Elec       q    Type
REMARK                         _______ _______ _______ _____ _____    ______ ____
ROOT
ATOM      4  C   UNL     1     -15.897   5.646  22.045  0.00  0.00    +0.095 C 
ATOM      5  C   UNL     1     -14.363   5.366  21.995  0.00  0.00    +0.041 C 
ATOM      6  C   UNL     1     -16.324   5.292  23.479  0.00  0.00    +0.161 C 
ATOM      7  C   UNL     1     -13.984   4.847  23.396  0.00  0.00    +0.043 C 
ATOM      8  C   UNL     1     -15.286   4.267  23.929  0.00  0.00    +0.145 C 
ENDROOT
BRANCH   4   3
ATOM      3  N   UNL     1     -16.586   4.777  21.091  0.00  0.00    -0.296 NA
ATOM      9  C   UNL     1     -16.728   5.451  19.793  0.00  0.00    +0.085 C 
ATOM     10  C   UNL     1     -17.892   4.365  21.622  0.00  0.00    +0.085 C 
ATOM     12  C   UNL     1     -17.403   4.536  18.769  0.00  0.00    +0.015 C 
ATOM     13  C   UNL     1     -18.605   3.415  20.658  0.00  0.00    +0.015 C 
ATOM     14  C   UNL     1     -18.751   4.038  19.274  0.00  0.00    +0.002 C 
ENDBRANCH   4   3
BRANCH   5  11
ATOM     11  C   UNL     1     -13.533   6.551  21.553  0.00  0.00    -0.043 A 
ATOM     15  C   UNL     1     -12.260   6.352  21.018  0.00  0.00    +0.004 A 
ATOM     16  C   UNL     1     -14.041   7.844  21.682  0.00  0.00    +0.004 A 
ATOM     17  C   UNL     1     -11.496   7.445  20.611  0.00  0.00    +0.000 A 
ATOM     18  C   UNL     1     -13.276   8.938  21.275  0.00  0.00    +0.000 A 
ATOM     19  C   UNL     1     -12.003   8.739  20.739  0.00  0.00    +0.000 A 
ENDBRANCH   5  11
BRANCH   6   1
ATOM      1  O   UNL     1     -16.245   6.472  24.277  0.00  0.00    -0.388 OA
ATOM     20  H   UNL     1     -16.091   6.192  25.196  0.00  0.00    +0.210 HD
ENDBRANCH   6   1
BRANCH   8   2
ATOM      2  O   UNL     1     -15.247   4.113  25.333  0.00  0.00    -0.389 OA
ATOM     21  H   UNL     1     -16.156   4.213  25.663  0.00  0.00    +0.210 HD
ENDBRANCH   8   2
TORSDOF 4
ENDMDL
MODEL 6
REMARK VINA RESULT:      -5.7     25.543     27.351
REMARK  Name = 71693823
REMARK  4 active torsions:
REMARK  status: ('A' for Active; 'I' for Inactive)
REMARK    1  A    between atoms: O_1  and  C_6
REMARK    2  A    between atoms: O_2  and  C_8
REMARK    3  A    between atoms: N_3  and  C_4
REMARK    4  A    between atoms: C_5  and  C_11
REMARK                            x       y       z     vdW  Elec       q    Type
REMARK                         _______ _______ _______ _____ _____    ______ ____
ROOT
ATOM      4  C   UNL     1      -4.405 -11.159  14.872  0.00  0.00    +0.095 C 
ATOM      5  C   UNL     1      -4.156 -10.274  16.132  0.00  0.00    +0.041 C 
ATOM      6  C   UNL     1      -3.076 -11.893  14.627  0.00  0.00    +0.161 C 
ATOM      7  C   UNL     1      -2.693 -10.528  16.542  0.00  0.00    +0.043 C 
ATOM      8  C   UNL     1      -2.029 -10.973  15.247  0.00  0.00    +0.145 C 
ENDROOT
BRANCH   4   3
ATOM      3  N   UNL     1      -4.720 -10.304  13.727  0.00  0.00    -0.296 NA
ATOM      9  C   UNL     1      -6.173 -10.127  13.602  0.00  0.00    +0.085 C 
ATOM     10  C   UNL     1      -4.144 -10.861  12.496  0.00  0.00    +0.085 C 
ATOM     12  C   UNL     1      -6.517  -9.194  12.439  0.00  0.00    +0.015 C 
ATOM     13  C   UNL     1      -4.422  -9.953  11.296  0.00  0.00    +0.015 C 
ATOM     14  C   UNL     1      -5.915  -9.694  11.132  0.00  0.00    +0.002 C 
ENDBRANCH   4   3
BRANCH   5  11
ATOM     11  C   UNL     1      -5.140 -10.512  17.257  0.00  0.00    -0.043 A 
ATOM     15  C   UNL     1      -6.434  -9.997  17.174  0.00  0.00    +0.004 A 
ATOM     16  C   UNL     1      -4.753 -11.246  18.378  0.00  0.00    +0.004 A 
ATOM     17  C   UNL     1      -7.340 -10.216  18.210  0.00  0.00    +0.000 A 
ATOM     18  C   UNL     1      -5.660 -11.466  19.416  0.00  0.00    +0.000 A 
ATOM     19  C   UNL     1      -6.954 -10.951  19.332  0.00  0.00    +0.000 A 
ENDBRANCH   5  11
BRANCH   6   1
ATOM      1  O   UNL     1      -3.121 -13.143  15.314  0.00  0.00    -0.388 OA
ATOM     20  H   UNL     1      -3.703 -13.733  14.805  0.00  0.00    +0.210 HD
ENDBRANCH   6   1
BRANCH   8   2
ATOM      2  O   UNL     1      -0.804 -11.633  15.495  0.00  0.00    -0.389 OA
ATOM     21  H   UNL     1      -0.096 -10.971  15.423  0.00  0.00    +0.210 HD
ENDBRANCH   8   2
TORSDOF 4
ENDMDL
MODEL 7
REMARK VINA RESULT:      -5.6     12.400     15.017
REMARK  Name = 71693823
REMARK  4 active torsions:
REMARK  status: ('A' for Active; 'I' for Inactive)
REMARK    1  A    between atoms: O_1  and  C_6
REMARK    2  A    between atoms: O_2  and  C_8
REMARK    3  A    between atoms: N_3  and  C_4
REMARK    4  A    between atoms: C_5  and  C_11
REMARK                            x       y       z     vdW  Elec       q    Type
REMARK                         _______ _______ _______ _____ _____    ______ ____
ROOT
ATOM      4  C   UNL     1      10.555   7.212   6.113  0.00  0.00    +0.095 C 
ATOM      5  C   UNL     1       9.627   6.172   5.412  0.00  0.00    +0.041 C 
ATOM      6  C   UNL     1      11.155   6.468   7.317  0.00  0.00    +0.161 C 
ATOM      7  C   UNL     1       9.724   4.886   6.255  0.00  0.00    +0.043 C 
ATOM      8  C   UNL     1      10.123   5.390   7.635  0.00  0.00    +0.145 C 
ENDROOT
BRANCH   4   3
ATOM      3  N   UNL     1       9.757   8.347   6.577  0.00  0.00    -0.296 NA
ATOM      9  C   UNL     1       9.650   9.365   5.522  0.00  0.00    +0.085 C 
ATOM     10  C   UNL     1      10.332   8.912   7.805  0.00  0.00    +0.085 C 
ATOM     12  C   UNL     1       8.776  10.537   5.974  0.00  0.00    +0.015 C 
ATOM     13  C   UNL     1       9.481  10.070   8.331  0.00  0.00    +0.015 C 
ATOM     14  C   UNL     1       9.295  11.148   7.269  0.00  0.00    +0.002 C 
ENDBRANCH   4   3
BRANCH   5  11
ATOM     11  C   UNL     1       9.943   5.952   3.949  0.00  0.00    -0.043 A 
ATOM     15  C   UNL     1       9.543   6.892   2.998  0.00  0.00    +0.004 A 
ATOM     16  C   UNL     1      10.634   4.807   3.550  0.00  0.00    +0.004 A 
ATOM     17  C   UNL     1       9.835   6.688   1.650  0.00  0.00    +0.000 A 
ATOM     18  C   UNL     1      10.925   4.603   2.201  0.00  0.00    +0.000 A 
ATOM     19  C   UNL     1      10.526   5.543   1.250  0.00  0.00    +0.000 A 
ENDBRANCH   5  11
BRANCH   6   1
ATOM      1  O   UNL     1      12.391   5.880   6.912  0.00  0.00    -0.388 OA
ATOM     20  H   UNL     1      12.921   5.738   7.715  0.00  0.00    +0.210 HD
ENDBRANCH   6   1
BRANCH   8   2
ATOM      2  O   UNL     1      10.651   4.350   8.432  0.00  0.00    -0.389 OA
ATOM     21  H   UNL     1       9.966   4.097   9.073  0.00  0.00    +0.210 HD
ENDBRANCH   8   2
TORSDOF 4
ENDMDL
MODEL 8
REMARK VINA RESULT:      -5.6     23.779     25.288
REMARK  Name = 71693823
REMARK  4 active torsions:
REMARK  status: ('A' for Active; 'I' for Inactive)
REMARK    1  A    between atoms: O_1  and  C_6
REMARK    2  A    between atoms: O_2  and  C_8
REMARK    3  A    between atoms: N_3  and  C_4
REMARK    4  A    between atoms: C_5  and  C_11
REMARK                            x       y       z     vdW  Elec       q    Type
REMARK                         _______ _______ _______ _____ _____    ______ ____
ROOT
ATOM      4  C   UNL     1     -11.927   9.771  17.012  0.00  0.00    +0.095 C 
ATOM      5  C   UNL     1     -10.983   8.957  17.951  0.00  0.00    +0.041 C 
ATOM      6  C   UNL     1     -11.893   9.028  15.667  0.00  0.00    +0.161 C 
ATOM      7  C   UNL     1     -10.439   7.796  17.097  0.00  0.00    +0.043 C 
ATOM      8  C   UNL     1     -10.541   8.320  15.671  0.00  0.00    +0.145 C 
ENDROOT
BRANCH   4   3
ATOM      3  N   UNL     1     -11.402  11.127  16.847  0.00  0.00    -0.296 NA
ATOM      9  C   UNL     1     -10.142  11.284  17.586  0.00  0.00    +0.085 C 
ATOM     10  C   UNL     1     -12.397  12.118  17.276  0.00  0.00    +0.085 C 
ATOM     12  C   UNL     1      -9.554  12.682  17.383  0.00  0.00    +0.015 C 
ATOM     13  C   UNL     1     -11.884  13.544  17.063  0.00  0.00    +0.015 C 
ATOM     14  C   UNL     1     -10.553  13.764  17.773  0.00  0.00    +0.002 C 
ENDBRANCH   4   3
BRANCH   5  11
ATOM     11  C   UNL     1     -11.638   8.495  19.235  0.00  0.00    -0.043 A 
ATOM     15  C   UNL     1     -12.376   9.395  20.005  0.00  0.00    +0.004 A 
ATOM     16  C   UNL     1     -11.503   7.170  19.649  0.00  0.00    +0.004 A 
ATOM     17  C   UNL     1     -12.980   8.969  21.188  0.00  0.00    +0.000 A 
ATOM     18  C   UNL     1     -12.107   6.744  20.832  0.00  0.00    +0.000 A 
ATOM     19  C   UNL     1     -12.846   7.643  21.602  0.00  0.00    +0.000 A 
ENDBRANCH   5  11
BRANCH   6   1
ATOM      1  O   UNL     1     -12.959   8.081  15.649  0.00  0.00    -0.388 OA
ATOM     20  H   UNL     1     -13.710   8.480  16.122  0.00  0.00    +0.210 HD
ENDBRANCH   6   1
BRANCH   8   2
ATOM      2  O   UNL     1     -10.474   7.270  14.728  0.00  0.00    -0.389 OA
ATOM     21  H   UNL     1      -9.587   7.290  14.332  0.00  0.00    +0.210 HD
ENDBRANCH   8   2
TORSDOF 4
ENDMDL
MODEL 9
REMARK VINA RESULT:      -5.4     13.300     16.142
REMARK  Name = 71693823
REMARK  4 active torsions:
REMARK  status: ('A' for Active; 'I' for Inactive)
REMARK    1  A    between atoms: O_1  and  C_6
REMARK    2  A    between atoms: O_2  and  C_8
REMARK    3  A    between atoms: N_3  and  C_4
REMARK    4  A    between atoms: C_5  and  C_11
REMARK                            x       y       z     vdW  Elec       q    Type
REMARK                         _______ _______ _______ _____ _____    ______ ____
ROOT
ATOM      4  C   UNL     1      10.443   7.005   4.215  0.00  0.00    +0.095 C 
ATOM      5  C   UNL     1       9.164   6.357   4.829  0.00  0.00    +0.041 C 
ATOM      6  C   UNL     1       9.977   8.356   3.648  0.00  0.00    +0.161 C 
ATOM      7  C   UNL     1       8.020   7.357   4.571  0.00  0.00    +0.043 C 
ATOM      8  C   UNL     1       8.495   8.140   3.355  0.00  0.00    +0.145 C 
ENDROOT
BRANCH   4   3
ATOM      3  N   UNL     1      10.950   6.160   3.134  0.00  0.00    -0.296 NA
ATOM      9  C   UNL     1      10.505   4.771   3.317  0.00  0.00    +0.085 C 
ATOM     10  C   UNL     1      12.415   6.244   3.060  0.00  0.00    +0.085 C 
ATOM     12  C   UNL     1      10.986   3.883   2.167  0.00  0.00    +0.015 C 
ATOM     13  C   UNL     1      12.959   5.403   1.903  0.00  0.00    +0.015 C 
ATOM     14  C   UNL     1      12.500   3.953   2.009  0.00  0.00    +0.002 C 
ENDBRANCH   4   3
BRANCH   5  11
ATOM     11  C   UNL     1       9.304   5.976   6.287  0.00  0.00    -0.043 A 
ATOM     15  C   UNL     1       9.752   4.701   6.635  0.00  0.00    +0.004 A 
ATOM     16  C   UNL     1       8.985   6.899   7.283  0.00  0.00    +0.004 A 
ATOM     17  C   UNL     1       9.881   4.350   7.978  0.00  0.00    +0.000 A 
ATOM     18  C   UNL     1       9.115   6.548   8.627  0.00  0.00    +0.000 A 
ATOM     19  C   UNL     1       9.563   5.274   8.975  0.00  0.00    +0.000 A 
ENDBRANCH   5  11
BRANCH   6   1
ATOM      1  O   UNL     1      10.153   9.351   4.655  0.00  0.00    -0.388 OA
ATOM     20  H   UNL     1      10.145   8.897   5.516  0.00  0.00    +0.210 HD
ENDBRANCH   6   1
BRANCH   8   2
ATOM      2  O   UNL     1       7.787   9.354   3.213  0.00  0.00    -0.389 OA
ATOM     21  H   UNL     1       7.540   9.654   4.104  0.00  0.00    +0.210 HD
ENDBRANCH   8   2
TORSDOF 4
ENDMDL
MODEL 10
REMARK VINA RESULT:      -5.4     13.436     15.786
REMARK  Name = 71693823
REMARK  4 active torsions:
REMARK  status: ('A' for Active; 'I' for Inactive)
REMARK    1  A    between atoms: O_1  and  C_6
REMARK    2  A    between atoms: O_2  and  C_8
REMARK    3  A    between atoms: N_3  and  C_4
REMARK    4  A    between atoms: C_5  and  C_11
REMARK                            x       y       z     vdW  Elec       q    Type
REMARK                         _______ _______ _______ _____ _____    ______ ____
ROOT
ATOM      4  C   UNL     1      17.475  -5.083  23.450  0.00  0.00    +0.095 C 
ATOM      5  C   UNL     1      17.932  -5.574  24.859  0.00  0.00    +0.041 C 
ATOM      6  C   UNL     1      18.721  -5.205  22.558  0.00  0.00    +0.161 C 
ATOM      7  C   UNL     1      19.422  -5.937  24.715  0.00  0.00    +0.043 C 
ATOM      8  C   UNL     1      19.886  -5.091  23.538  0.00  0.00    +0.145 C 
ENDROOT
BRANCH   4   3
ATOM      3  N   UNL     1      17.054  -3.684  23.531  0.00  0.00    -0.296 NA
ATOM      9  C   UNL     1      17.822  -2.862  22.586  0.00  0.00    +0.085 C 
ATOM     10  C   UNL     1      17.191  -3.185  24.905  0.00  0.00    +0.085 C 
ATOM     12  C   UNL     1      17.359  -1.404  22.622  0.00  0.00    +0.015 C 
ATOM     13  C   UNL     1      16.709  -1.737  25.017  0.00  0.00    +0.015 C 
ATOM     14  C   UNL     1      17.440  -0.832  24.032  0.00  0.00    +0.002 C 
ENDBRANCH   4   3
BRANCH   5  11
ATOM     11  C   UNL     1      17.095  -6.702  25.421  0.00  0.00    -0.043 A 
ATOM     15  C   UNL     1      16.200  -6.456  26.463  0.00  0.00    +0.004 A 
ATOM     16  C   UNL     1      17.218  -7.989  24.897  0.00  0.00    +0.004 A 
ATOM     17  C   UNL     1      15.429  -7.496  26.981  0.00  0.00    +0.000 A 
ATOM     18  C   UNL     1      16.447  -9.030  25.415  0.00  0.00    +0.000 A 
ATOM     19  C   UNL     1      15.552  -8.784  26.457  0.00  0.00    +0.000 A 
ENDBRANCH   5  11
BRANCH   6   1
ATOM      1  O   UNL     1      18.706  -6.489  21.938  0.00  0.00    -0.388 OA
ATOM     20  H   UNL     1      17.983  -6.489  21.287  0.00  0.00    +0.210 HD
ENDBRANCH   6   1
BRANCH   8   2
ATOM      2  O   UNL     1      21.098  -5.577  22.999  0.00  0.00    -0.389 OA
ATOM     21  H   UNL     1      21.398  -6.308  23.565  0.00  0.00    +0.210 HD
ENDBRANCH   8   2
TORSDOF 4
ENDMDL
