MODEL 1
REMARK VINA RESULT:      -7.2      0.000      0.000
REMARK  Name = 26744766
REMARK  4 active torsions:
REMARK  status: ('A' for Active; 'I' for Inactive)
REMARK    1  A    between atoms: N_3  and  C_13
REMARK    2  A    between atoms: C_8  and  C_14
REMARK    3  A    between atoms: C_13  and  C_15
REMARK    4  A    between atoms: C_18  and  C_20
REMARK                            x       y       z     vdW  Elec       q    Type
REMARK                         _______ _______ _______ _____ _____    ______ ____
ROOT
ATOM      3  N   UNL     1      13.832   7.545  18.946  0.00  0.00    -0.281 NA
ATOM      4  N   UNL     1      10.730   7.942  16.926  0.00  0.00    -0.347 N 
ATOM      5  N   UNL     1      11.847   9.606  15.934  0.00  0.00    -0.240 NA
ATOM      8  C   UNL     1      14.290   8.961  18.817  0.00  0.00    +0.152 C 
ATOM      9  C   UNL     1      13.904   9.571  17.422  0.00  0.00    +0.086 C 
ATOM     10  C   UNL     1      12.379   7.331  18.788  0.00  0.00    +0.140 C 
ATOM     11  C   UNL     1      11.902   8.081  17.605  0.00  0.00    +0.053 A 
ATOM     12  C   UNL     1      12.566   9.107  16.983  0.00  0.00    +0.065 A 
ATOM     16  C   UNL     1      10.743   8.884  15.927  0.00  0.00    +0.197 A 
ATOM     27  H   UNL     1       9.988   7.282  17.119  0.00  0.00    +0.167 HD
ENDROOT
BRANCH   8  14
ATOM      2  O   UNL     1      14.937  10.152  20.867  0.00  0.00    -0.336 OA
ATOM      6  N   UNL     1      12.791  10.437  20.290  0.00  0.00    -0.190 NA
ATOM      7  N   UNL     1      14.379  10.990  21.841  0.00  0.00    -0.056 NA
ATOM     14  C   UNL     1      13.936   9.874  19.992  0.00  0.00    +0.245 A 
ATOM     18  C   UNL     1      13.114  11.112  21.431  0.00  0.00    +0.202 A 
BRANCH  18  20
ATOM     20  C   UNL     1      12.146  11.900  22.138  0.00  0.00    +0.022 A 
ATOM     22  C   UNL     1      11.912  11.663  23.493  0.00  0.00    +0.012 A 
ATOM     23  C   UNL     1      11.439  12.901  21.473  0.00  0.00    +0.012 A 
ATOM     24  C   UNL     1      10.970  12.428  24.182  0.00  0.00    +0.001 A 
ATOM     25  C   UNL     1      10.497  13.666  22.161  0.00  0.00    +0.001 A 
ATOM     26  C   UNL     1      10.263  13.430  23.516  0.00  0.00    +0.000 A 
ENDBRANCH  18  20
ENDBRANCH   8  14
BRANCH   3  13
ATOM     13  C   UNL     1      14.348   6.858  20.126  0.00  0.00    +0.128 C 
BRANCH  13  15
ATOM      1  S   UNL     1      16.871   7.043  21.282  0.00  0.00    -0.100 S 
ATOM     15  C   UNL     1      15.823   6.576  20.010  0.00  0.00    +0.004 A 
ATOM     17  C   UNL     1      16.501   5.966  18.979  0.00  0.00    +0.012 A 
ATOM     19  C   UNL     1      17.900   5.879  19.235  0.00  0.00    +0.008 A 
ATOM     21  C   UNL     1      18.238   6.427  20.453  0.00  0.00    +0.045 A 
ENDBRANCH  13  15
ENDBRANCH   3  13
TORSDOF 4
ENDMDL
MODEL 2
REMARK VINA RESULT:      -7.2      2.689      6.818
REMARK  Name = 26744766
REMARK  4 active torsions:
REMARK  status: ('A' for Active; 'I' for Inactive)
REMARK    1  A    between atoms: N_3  and  C_13
REMARK    2  A    between atoms: C_8  and  C_14
REMARK    3  A    between atoms: C_13  and  C_15
REMARK    4  A    between atoms: C_18  and  C_20
REMARK                            x       y       z     vdW  Elec       q    Type
REMARK                         _______ _______ _______ _____ _____    ______ ____
ROOT
ATOM      3  N   UNL     1      14.005   9.021  19.527  0.00  0.00    -0.281 NA
ATOM      4  N   UNL     1      14.827  10.990  16.475  0.00  0.00    -0.347 N 
ATOM      5  N   UNL     1      14.077   9.193  15.376  0.00  0.00    -0.240 NA
ATOM      8  C   UNL     1      14.159   7.676  18.896  0.00  0.00    +0.152 C 
ATOM      9  C   UNL     1      13.717   7.687  17.388  0.00  0.00    +0.086 C 
ATOM     10  C   UNL     1      14.760  10.115  18.881  0.00  0.00    +0.140 C 
ATOM     11  C   UNL     1      14.570  10.040  17.416  0.00  0.00    +0.053 A 
ATOM     12  C   UNL     1      14.117   8.948  16.719  0.00  0.00    +0.065 A 
ATOM     16  C   UNL     1      14.513  10.432  15.260  0.00  0.00    +0.197 A 
ATOM     27  H   UNL     1      15.183  11.923  16.633  0.00  0.00    +0.167 HD
ENDROOT
BRANCH   8  14
ATOM      2  O   UNL     1      15.861   6.031  18.234  0.00  0.00    -0.336 OA
ATOM      6  N   UNL     1      16.401   7.212  20.059  0.00  0.00    -0.190 NA
ATOM      7  N   UNL     1      17.118   5.566  18.641  0.00  0.00    -0.056 NA
ATOM     14  C   UNL     1      15.512   6.999  19.122  0.00  0.00    +0.245 A 
ATOM     18  C   UNL     1      17.368   6.311  19.722  0.00  0.00    +0.202 A 
BRANCH  18  20
ATOM     20  C   UNL     1      18.574   6.179  20.487  0.00  0.00    +0.022 A 
ATOM     22  C   UNL     1      18.772   6.971  21.618  0.00  0.00    +0.012 A 
ATOM     23  C   UNL     1      19.550   5.260  20.100  0.00  0.00    +0.012 A 
ATOM     24  C   UNL     1      19.945   6.844  22.363  0.00  0.00    +0.001 A 
ATOM     25  C   UNL     1      20.724   5.134  20.844  0.00  0.00    +0.001 A 
ATOM     26  C   UNL     1      20.921   5.925  21.975  0.00  0.00    +0.000 A 
ENDBRANCH  18  20
ENDBRANCH   8  14
BRANCH   3  13
ATOM     13  C   UNL     1      14.192   9.025  20.974  0.00  0.00    +0.128 C 
BRANCH  13  15
ATOM      1  S   UNL     1      12.411  10.591  22.429  0.00  0.00    -0.100 S 
ATOM     15  C   UNL     1      12.879   9.108  21.708  0.00  0.00    +0.004 A 
ATOM     17  C   UNL     1      11.941   8.120  21.903  0.00  0.00    +0.012 A 
ATOM     19  C   UNL     1      10.822   8.584  22.654  0.00  0.00    +0.008 A 
ATOM     21  C   UNL     1      10.948   9.910  23.004  0.00  0.00    +0.045 A 
ENDBRANCH  13  15
ENDBRANCH   3  13
TORSDOF 4
ENDMDL
MODEL 3
REMARK VINA RESULT:      -7.2      2.139      6.791
REMARK  Name = 26744766
REMARK  4 active torsions:
REMARK  status: ('A' for Active; 'I' for Inactive)
REMARK    1  A    between atoms: N_3  and  C_13
REMARK    2  A    between atoms: C_8  and  C_14
REMARK    3  A    between atoms: C_13  and  C_15
REMARK    4  A    between atoms: C_18  and  C_20
REMARK                            x       y       z     vdW  Elec       q    Type
REMARK                         _______ _______ _______ _____ _____    ______ ____
ROOT
ATOM      3  N   UNL     1      13.372   9.122  20.536  0.00  0.00    -0.281 NA
ATOM      4  N   UNL     1      12.408   9.879  17.020  0.00  0.00    -0.347 N 
ATOM      5  N   UNL     1      11.556   7.811  17.036  0.00  0.00    -0.240 NA
ATOM      8  C   UNL     1      13.449   7.639  20.365  0.00  0.00    +0.152 C 
ATOM      9  C   UNL     1      12.387   7.118  19.333  0.00  0.00    +0.086 C 
ATOM     10  C   UNL     1      13.567   9.913  19.303  0.00  0.00    +0.140 C 
ATOM     11  C   UNL     1      12.759   9.324  18.213  0.00  0.00    +0.053 A 
ATOM     12  C   UNL     1      12.231   8.058  18.198  0.00  0.00    +0.065 A 
ATOM     16  C   UNL     1      11.683   8.927  16.345  0.00  0.00    +0.197 A 
ATOM     27  H   UNL     1      12.638  10.806  16.688  0.00  0.00    +0.167 HD
ENDROOT
BRANCH   8  14
ATOM      2  O   UNL     1      15.050   6.437  18.939  0.00  0.00    -0.336 OA
ATOM      6  N   UNL     1      15.912   7.130  20.888  0.00  0.00    -0.190 NA
ATOM      7  N   UNL     1      16.388   6.022  18.944  0.00  0.00    -0.056 NA
ATOM     14  C   UNL     1      14.852   7.082  20.119  0.00  0.00    +0.245 A 
ATOM     18  C   UNL     1      16.827   6.468  20.124  0.00  0.00    +0.202 A 
BRANCH  18  20
ATOM     20  C   UNL     1      18.176   6.268  20.570  0.00  0.00    +0.022 A 
ATOM     22  C   UNL     1      18.978   5.306  19.955  0.00  0.00    +0.012 A 
ATOM     23  C   UNL     1      18.686   7.033  21.619  0.00  0.00    +0.012 A 
ATOM     24  C   UNL     1      20.289   5.109  20.389  0.00  0.00    +0.001 A 
ATOM     25  C   UNL     1      19.997   6.837  22.053  0.00  0.00    +0.001 A 
ATOM     26  C   UNL     1      20.799   5.876  21.438  0.00  0.00    +0.000 A 
ENDBRANCH  18  20
ENDBRANCH   8  14
BRANCH   3  13
ATOM     13  C   UNL     1      14.181   9.637  21.635  0.00  0.00    +0.128 C 
BRANCH  13  15
ATOM      1  S   UNL     1      11.652  10.255  22.616  0.00  0.00    -0.100 S 
ATOM     15  C   UNL     1      13.356  10.432  22.613  0.00  0.00    +0.004 A 
ATOM     17  C   UNL     1      13.784  11.334  23.562  0.00  0.00    +0.012 A 
ATOM     19  C   UNL     1      12.700  11.887  24.303  0.00  0.00    +0.008 A 
ATOM     21  C   UNL     1      11.484  11.387  23.890  0.00  0.00    +0.045 A 
ENDBRANCH  13  15
ENDBRANCH   3  13
TORSDOF 4
ENDMDL
MODEL 4
REMARK VINA RESULT:      -6.8      2.302      6.642
REMARK  Name = 26744766
REMARK  4 active torsions:
REMARK  status: ('A' for Active; 'I' for Inactive)
REMARK    1  A    between atoms: N_3  and  C_13
REMARK    2  A    between atoms: C_8  and  C_14
REMARK    3  A    between atoms: C_13  and  C_15
REMARK    4  A    between atoms: C_18  and  C_20
REMARK                            x       y       z     vdW  Elec       q    Type
REMARK                         _______ _______ _______ _____ _____    ______ ____
ROOT
ATOM      3  N   UNL     1      11.805   9.576  20.013  0.00  0.00    -0.281 NA
ATOM      4  N   UNL     1      10.468  10.682  23.308  0.00  0.00    -0.347 N 
ATOM      5  N   UNL     1      11.735  12.494  22.971  0.00  0.00    -0.240 NA
ATOM      8  C   UNL     1      13.079  10.354  20.088  0.00  0.00    +0.152 C 
ATOM      9  C   UNL     1      12.884  11.716  20.845  0.00  0.00    +0.086 C 
ATOM     10  C   UNL     1      11.186   9.245  21.313  0.00  0.00    +0.140 C 
ATOM     11  C   UNL     1      11.184  10.449  22.173  0.00  0.00    +0.053 A 
ATOM     12  C   UNL     1      11.955  11.569  21.990  0.00  0.00    +0.065 A 
ATOM     16  C   UNL     1      10.835  11.928  23.752  0.00  0.00    +0.197 A 
ATOM     27  H   UNL     1       9.800  10.061  23.745  0.00  0.00    +0.167 HD
ENDROOT
BRANCH   8  14
ATOM      2  O   UNL     1      14.652   9.734  21.872  0.00  0.00    -0.336 OA
ATOM      6  N   UNL     1      15.069   8.739  19.909  0.00  0.00    -0.190 NA
ATOM      7  N   UNL     1      15.778   8.926  22.076  0.00  0.00    -0.056 NA
ATOM     14  C   UNL     1      14.298   9.566  20.571  0.00  0.00    +0.245 A 
ATOM     18  C   UNL     1      15.960   8.372  20.874  0.00  0.00    +0.202 A 
BRANCH  18  20
ATOM     20  C   UNL     1      17.024   7.449  20.603  0.00  0.00    +0.022 A 
ATOM     22  C   UNL     1      18.196   7.495  21.361  0.00  0.00    +0.012 A 
ATOM     23  C   UNL     1      16.890   6.507  19.584  0.00  0.00    +0.012 A 
ATOM     24  C   UNL     1      19.231   6.598  21.098  0.00  0.00    +0.001 A 
ATOM     25  C   UNL     1      17.926   5.610  19.321  0.00  0.00    +0.001 A 
ATOM     26  C   UNL     1      19.096   5.655  20.078  0.00  0.00    +0.000 A 
ENDBRANCH  18  20
ENDBRANCH   8  14
BRANCH   3  13
ATOM     13  C   UNL     1      11.871   8.410  19.139  0.00  0.00    +0.128 C 
BRANCH  13  15
ATOM      1  S   UNL     1      10.479   8.632  16.741  0.00  0.00    -0.100 S 
ATOM     15  C   UNL     1      11.899   8.800  17.685  0.00  0.00    +0.004 A 
ATOM     17  C   UNL     1      12.951   9.300  16.951  0.00  0.00    +0.012 A 
ATOM     19  C   UNL     1      12.589   9.550  15.596  0.00  0.00    +0.008 A 
ATOM     21  C   UNL     1      11.272   9.230  15.345  0.00  0.00    +0.045 A 
ENDBRANCH  13  15
ENDBRANCH   3  13
TORSDOF 4
ENDMDL
MODEL 5
REMARK VINA RESULT:      -6.5     26.493     27.923
REMARK  Name = 26744766
REMARK  4 active torsions:
REMARK  status: ('A' for Active; 'I' for Inactive)
REMARK    1  A    between atoms: N_3  and  C_13
REMARK    2  A    between atoms: C_8  and  C_14
REMARK    3  A    between atoms: C_13  and  C_15
REMARK    4  A    between atoms: C_18  and  C_20
REMARK                            x       y       z     vdW  Elec       q    Type
REMARK                         _______ _______ _______ _____ _____    ______ ____
ROOT
ATOM      3  N   UNL     1      -2.609 -12.781  12.228  0.00  0.00    -0.281 NA
ATOM      4  N   UNL     1      -4.609 -10.613   9.955  0.00  0.00    -0.347 N 
ATOM      5  N   UNL     1      -2.951  -9.142  10.251  0.00  0.00    -0.240 NA
ATOM      8  C   UNL     1      -1.918 -11.666  12.945  0.00  0.00    +0.152 C 
ATOM      9  C   UNL     1      -1.645 -10.446  11.995  0.00  0.00    +0.086 C 
ATOM     10  C   UNL     1      -3.908 -12.432  11.616  0.00  0.00    +0.140 C 
ATOM     11  C   UNL     1      -3.776 -11.151  10.888  0.00  0.00    +0.053 A 
ATOM     12  C   UNL     1      -2.772 -10.231  11.056  0.00  0.00    +0.065 A 
ATOM     16  C   UNL     1      -4.068  -9.401   9.601  0.00  0.00    +0.197 A 
ATOM     27  H   UNL     1      -5.462 -11.019   9.594  0.00  0.00    +0.167 HD
ENDROOT
BRANCH   8  14
ATOM      2  O   UNL     1      -1.685 -11.048  15.312  0.00  0.00    -0.336 OA
ATOM      6  N   UNL     1      -3.805 -11.088  14.589  0.00  0.00    -0.190 NA
ATOM      7  N   UNL     1      -2.478 -10.696  16.412  0.00  0.00    -0.056 NA
ATOM     14  C   UNL     1      -2.543 -11.262  14.281  0.00  0.00    +0.245 A 
ATOM     18  C   UNL     1      -3.714 -10.741  15.906  0.00  0.00    +0.202 A 
BRANCH  18  20
ATOM     20  C   UNL     1      -4.879 -10.445  16.689  0.00  0.00    +0.022 A 
ATOM     22  C   UNL     1      -4.958 -10.881  18.012  0.00  0.00    +0.012 A 
ATOM     23  C   UNL     1      -5.933  -9.725  16.128  0.00  0.00    +0.012 A 
ATOM     24  C   UNL     1      -6.091 -10.595  18.774  0.00  0.00    +0.001 A 
ATOM     25  C   UNL     1      -7.066  -9.439  16.890  0.00  0.00    +0.001 A 
ATOM     26  C   UNL     1      -7.145  -9.874  18.212  0.00  0.00    +0.000 A 
ENDBRANCH  18  20
ENDBRANCH   8  14
BRANCH   3  13
ATOM     13  C   UNL     1      -2.695 -14.019  12.995  0.00  0.00    +0.128 C 
BRANCH  13  15
ATOM      1  S   UNL     1      -0.631 -15.882  12.891  0.00  0.00    -0.100 S 
ATOM     15  C   UNL     1      -2.061 -15.175  12.266  0.00  0.00    +0.004 A 
ATOM     17  C   UNL     1      -2.476 -15.788  11.106  0.00  0.00    +0.012 A 
ATOM     19  C   UNL     1      -1.610 -16.853  10.723  0.00  0.00    +0.008 A 
ATOM     21  C   UNL     1      -0.565 -17.013  11.607  0.00  0.00    +0.045 A 
ENDBRANCH  13  15
ENDBRANCH   3  13
TORSDOF 4
ENDMDL
MODEL 6
REMARK VINA RESULT:      -6.1     24.684     26.106
REMARK  Name = 26744766
REMARK  4 active torsions:
REMARK  status: ('A' for Active; 'I' for Inactive)
REMARK    1  A    between atoms: N_3  and  C_13
REMARK    2  A    between atoms: C_8  and  C_14
REMARK    3  A    between atoms: C_13  and  C_15
REMARK    4  A    between atoms: C_18  and  C_20
REMARK                            x       y       z     vdW  Elec       q    Type
REMARK                         _______ _______ _______ _____ _____    ______ ____
ROOT
ATOM      3  N   UNL     1     -11.799   8.113  19.770  0.00  0.00    -0.281 NA
ATOM      4  N   UNL     1     -12.796   5.263  21.950  0.00  0.00    -0.347 N 
ATOM      5  N   UNL     1     -14.883   5.871  21.423  0.00  0.00    -0.240 NA
ATOM      8  C   UNL     1     -13.053   8.905  19.959  0.00  0.00    +0.152 C 
ATOM      9  C   UNL     1     -14.308   7.974  20.123  0.00  0.00    +0.086 C 
ATOM     10  C   UNL     1     -11.477   7.168  20.859  0.00  0.00    +0.140 C 
ATOM     11  C   UNL     1     -12.694   6.412  21.226  0.00  0.00    +0.053 A 
ATOM     12  C   UNL     1     -13.983   6.767  20.919  0.00  0.00    +0.065 A 
ATOM     16  C   UNL     1     -14.136   4.977  22.041  0.00  0.00    +0.197 A 
ATOM     27  H   UNL     1     -12.038   4.725  22.349  0.00  0.00    +0.167 HD
ENDROOT
BRANCH   8  14
ATOM      2  O   UNL     1     -13.209  11.275  20.588  0.00  0.00    -0.336 OA
ATOM      6  N   UNL     1     -12.717   9.912  22.297  0.00  0.00    -0.190 NA
ATOM      7  N   UNL     1     -13.086  12.095  21.718  0.00  0.00    -0.056 NA
ATOM     14  C   UNL     1     -12.977  10.007  21.017  0.00  0.00    +0.245 A 
ATOM     18  C   UNL     1     -12.796  11.218  22.683  0.00  0.00    +0.202 A 
BRANCH  18  20
ATOM     20  C   UNL     1     -12.578  11.615  24.045  0.00  0.00    +0.022 A 
ATOM     22  C   UNL     1     -12.992  12.876  24.478  0.00  0.00    +0.012 A 
ATOM     23  C   UNL     1     -11.953  10.743  24.935  0.00  0.00    +0.012 A 
ATOM     24  C   UNL     1     -12.780  13.263  25.801  0.00  0.00    +0.001 A 
ATOM     25  C   UNL     1     -11.741  11.130  26.259  0.00  0.00    +0.001 A 
ATOM     26  C   UNL     1     -12.154  12.389  26.692  0.00  0.00    +0.000 A 
ENDBRANCH  18  20
ENDBRANCH   8  14
BRANCH   3  13
ATOM     13  C   UNL     1     -10.639   8.915  19.397  0.00  0.00    +0.128 C 
BRANCH  13  15
ATOM      1  S   UNL     1     -10.586  10.837  17.386  0.00  0.00    -0.100 S 
ATOM     15  C   UNL     1     -10.613   9.209  17.921  0.00  0.00    +0.004 A 
ATOM     17  C   UNL     1     -10.607   8.320  16.869  0.00  0.00    +0.012 A 
ATOM     19  C   UNL     1     -10.579   8.982  15.607  0.00  0.00    +0.008 A 
ATOM     21  C   UNL     1     -10.566  10.353  15.743  0.00  0.00    +0.045 A 
ENDBRANCH  13  15
ENDBRANCH   3  13
TORSDOF 4
ENDMDL
MODEL 7
REMARK VINA RESULT:      -6.0     26.828     28.838
REMARK  Name = 26744766
REMARK  4 active torsions:
REMARK  status: ('A' for Active; 'I' for Inactive)
REMARK    1  A    between atoms: N_3  and  C_13
REMARK    2  A    between atoms: C_8  and  C_14
REMARK    3  A    between atoms: C_13  and  C_15
REMARK    4  A    between atoms: C_18  and  C_20
REMARK                            x       y       z     vdW  Elec       q    Type
REMARK                         _______ _______ _______ _____ _____    ______ ____
ROOT
ATOM      3  N   UNL     1      -2.931 -12.031  15.003  0.00  0.00    -0.281 NA
ATOM      4  N   UNL     1      -4.104 -15.505  14.353  0.00  0.00    -0.347 N 
ATOM      5  N   UNL     1      -2.038 -15.823  13.558  0.00  0.00    -0.240 NA
ATOM      8  C   UNL     1      -1.890 -12.010  13.931  0.00  0.00    +0.152 C 
ATOM      9  C   UNL     1      -1.230 -13.423  13.735  0.00  0.00    +0.086 C 
ATOM     10  C   UNL     1      -4.042 -12.982  14.789  0.00  0.00    +0.140 C 
ATOM     11  C   UNL     1      -3.491 -14.289  14.370  0.00  0.00    +0.053 A 
ATOM     12  C   UNL     1      -2.230 -14.508  13.875  0.00  0.00    +0.065 A 
ATOM     16  C   UNL     1      -3.187 -16.398  13.855  0.00  0.00    +0.197 A 
ATOM     27  H   UNL     1      -5.050 -15.714  14.643  0.00  0.00    +0.167 HD
ENDROOT
BRANCH   8  14
ATOM      2  O   UNL     1      -1.739 -10.166  12.313  0.00  0.00    -0.336 OA
ATOM      6  N   UNL     1      -3.175 -11.781  11.719  0.00  0.00    -0.190 NA
ATOM      7  N   UNL     1      -2.281  -9.772  11.083  0.00  0.00    -0.056 NA
ATOM     14  C   UNL     1      -2.318 -11.358  12.615  0.00  0.00    +0.245 A 
ATOM     18  C   UNL     1      -3.117 -10.775  10.799  0.00  0.00    +0.202 A 
BRANCH  18  20
ATOM     20  C   UNL     1      -3.910 -10.803   9.603  0.00  0.00    +0.022 A 
ATOM     22  C   UNL     1      -4.403  -9.613   9.067  0.00  0.00    +0.012 A 
ATOM     23  C   UNL     1      -4.189 -12.018   8.978  0.00  0.00    +0.012 A 
ATOM     24  C   UNL     1      -5.174  -9.639   7.905  0.00  0.00    +0.001 A 
ATOM     25  C   UNL     1      -4.961 -12.044   7.816  0.00  0.00    +0.001 A 
ATOM     26  C   UNL     1      -5.453 -10.855   7.279  0.00  0.00    +0.000 A 
ENDBRANCH  18  20
ENDBRANCH   8  14
BRANCH   3  13
ATOM     13  C   UNL     1      -3.424 -10.710  15.379  0.00  0.00    +0.128 C 
BRANCH  13  15
ATOM      1  S   UNL     1      -5.864 -10.090  16.561  0.00  0.00    -0.100 S 
ATOM     15  C   UNL     1      -4.290 -10.765  16.609  0.00  0.00    +0.004 A 
ATOM     17  C   UNL     1      -3.997 -11.305  17.842  0.00  0.00    +0.012 A 
ATOM     19  C   UNL     1      -5.078 -11.164  18.760  0.00  0.00    +0.008 A 
ATOM     21  C   UNL     1      -6.157 -10.520  18.193  0.00  0.00    +0.045 A 
ENDBRANCH  13  15
ENDBRANCH   3  13
TORSDOF 4
ENDMDL
MODEL 8
REMARK VINA RESULT:      -6.0     13.132     15.230
REMARK  Name = 26744766
REMARK  4 active torsions:
REMARK  status: ('A' for Active; 'I' for Inactive)
REMARK    1  A    between atoms: N_3  and  C_13
REMARK    2  A    between atoms: C_8  and  C_14
REMARK    3  A    between atoms: C_13  and  C_15
REMARK    4  A    between atoms: C_18  and  C_20
REMARK                            x       y       z     vdW  Elec       q    Type
REMARK                         _______ _______ _______ _____ _____    ______ ____
ROOT
ATOM      3  N   UNL     1       9.736   6.679   5.628  0.00  0.00    -0.281 NA
ATOM      4  N   UNL     1      10.126   3.967   8.149  0.00  0.00    -0.347 N 
ATOM      5  N   UNL     1       9.087   5.391   9.525  0.00  0.00    -0.240 NA
ATOM      8  C   UNL     1       9.695   7.806   6.610  0.00  0.00    +0.152 C 
ATOM      9  C   UNL     1       8.996   7.381   7.951  0.00  0.00    +0.086 C 
ATOM     10  C   UNL     1      10.431   5.460   6.091  0.00  0.00    +0.140 C 
ATOM     11  C   UNL     1       9.982   5.134   7.462  0.00  0.00    +0.053 A 
ATOM     12  C   UNL     1       9.348   5.991   8.325  0.00  0.00    +0.065 A 
ATOM     16  C   UNL     1       9.571   4.172   9.388  0.00  0.00    +0.197 A 
ATOM     27  H   UNL     1      10.562   3.116   7.820  0.00  0.00    +0.167 HD
ENDROOT
BRANCH   8  14
ATOM      2  O   UNL     1      11.010   9.567   7.707  0.00  0.00    -0.336 OA
ATOM      6  N   UNL     1      12.192   8.308   6.280  0.00  0.00    -0.190 NA
ATOM      7  N   UNL     1      12.318  10.069   7.736  0.00  0.00    -0.056 NA
ATOM     14  C   UNL     1      11.023   8.533   6.826  0.00  0.00    +0.245 A 
ATOM     18  C   UNL     1      12.953   9.275   6.870  0.00  0.00    +0.202 A 
BRANCH  18  20
ATOM     20  C   UNL     1      14.349   9.420   6.571  0.00  0.00    +0.022 A 
ATOM     22  C   UNL     1      14.950  10.677   6.648  0.00  0.00    +0.012 A 
ATOM     23  C   UNL     1      15.104   8.307   6.204  0.00  0.00    +0.012 A 
ATOM     24  C   UNL     1      16.307  10.819   6.356  0.00  0.00    +0.001 A 
ATOM     25  C   UNL     1      16.461   8.449   5.912  0.00  0.00    +0.001 A 
ATOM     26  C   UNL     1      17.063   9.705   5.989  0.00  0.00    +0.000 A 
ENDBRANCH  18  20
ENDBRANCH   8  14
BRANCH   3  13
ATOM     13  C   UNL     1      10.175   7.070   4.292  0.00  0.00    +0.128 C 
BRANCH  13  15
ATOM      1  S   UNL     1       9.997   9.611   3.175  0.00  0.00    -0.100 S 
ATOM     15  C   UNL     1       9.295   8.141   3.705  0.00  0.00    +0.004 A 
ATOM     17  C   UNL     1       7.931   8.122   3.516  0.00  0.00    +0.012 A 
ATOM     19  C   UNL     1       7.454   9.330   2.928  0.00  0.00    +0.008 A 
ATOM     21  C   UNL     1       8.473  10.226   2.691  0.00  0.00    +0.045 A 
ENDBRANCH  13  15
ENDBRANCH   3  13
TORSDOF 4
ENDMDL
MODEL 9
REMARK VINA RESULT:      -5.9     13.004     17.705
REMARK  Name = 26744766
REMARK  4 active torsions:
REMARK  status: ('A' for Active; 'I' for Inactive)
REMARK    1  A    between atoms: N_3  and  C_13
REMARK    2  A    between atoms: C_8  and  C_14
REMARK    3  A    between atoms: C_13  and  C_15
REMARK    4  A    between atoms: C_18  and  C_20
REMARK                            x       y       z     vdW  Elec       q    Type
REMARK                         _______ _______ _______ _____ _____    ______ ____
ROOT
ATOM      3  N   UNL     1       9.848   7.784   5.812  0.00  0.00    -0.281 NA
ATOM      4  N   UNL     1       8.682   5.714   8.680  0.00  0.00    -0.347 N 
ATOM      5  N   UNL     1      10.862   5.399   9.061  0.00  0.00    -0.240 NA
ATOM      8  C   UNL     1      11.153   7.079   5.627  0.00  0.00    +0.152 C 
ATOM      9  C   UNL     1      11.745   6.582   6.995  0.00  0.00    +0.086 C 
ATOM     10  C   UNL     1       8.785   6.988   6.461  0.00  0.00    +0.140 C 
ATOM     11  C   UNL     1       9.344   6.298   7.644  0.00  0.00    +0.053 A 
ATOM     12  C   UNL     1      10.677   6.088   7.896  0.00  0.00    +0.065 A 
ATOM     16  C   UNL     1       9.641   5.186   9.508  0.00  0.00    +0.197 A 
ATOM     27  H   UNL     1       7.680   5.670   8.815  0.00  0.00    +0.167 HD
ENDROOT
BRANCH   8  14
ATOM      2  O   UNL     1      10.542   4.834   4.835  0.00  0.00    -0.336 OA
ATOM      6  N   UNL     1      11.702   6.038   3.344  0.00  0.00    -0.190 NA
ATOM      7  N   UNL     1      10.687   4.020   3.704  0.00  0.00    -0.056 NA
ATOM     14  C   UNL     1      11.167   6.004   4.539  0.00  0.00    +0.245 A 
ATOM     18  C   UNL     1      11.380   4.800   2.870  0.00  0.00    +0.202 A 
BRANCH  18  20
ATOM     20  C   UNL     1      11.768   4.372   1.557  0.00  0.00    +0.022 A 
ATOM     22  C   UNL     1      13.043   3.849   1.343  0.00  0.00    +0.012 A 
ATOM     23  C   UNL     1      10.871   4.481   0.494  0.00  0.00    +0.012 A 
ATOM     24  C   UNL     1      13.422   3.434   0.066  0.00  0.00    +0.001 A 
ATOM     25  C   UNL     1      11.249   4.065  -0.783  0.00  0.00    +0.001 A 
ATOM     26  C   UNL     1      12.524   3.542  -0.997  0.00  0.00    +0.000 A 
ENDBRANCH  18  20
ENDBRANCH   8  14
BRANCH   3  13
ATOM     13  C   UNL     1       9.359   8.454   4.613  0.00  0.00    +0.128 C 
BRANCH  13  15
ATOM      1  S   UNL     1       7.454  10.386   4.000  0.00  0.00    -0.100 S 
ATOM     15  C   UNL     1       8.773   9.806   4.926  0.00  0.00    +0.004 A 
ATOM     17  C   UNL     1       9.156  10.702   5.899  0.00  0.00    +0.012 A 
ATOM     19  C   UNL     1       8.356  11.881   5.885  0.00  0.00    +0.008 A 
ATOM     21  C   UNL     1       7.392  11.841   4.902  0.00  0.00    +0.045 A 
ENDBRANCH  13  15
ENDBRANCH   3  13
TORSDOF 4
ENDMDL
MODEL 10
REMARK VINA RESULT:      -5.9     28.700     31.252
REMARK  Name = 26744766
REMARK  4 active torsions:
REMARK  status: ('A' for Active; 'I' for Inactive)
REMARK    1  A    between atoms: N_3  and  C_13
REMARK    2  A    between atoms: C_8  and  C_14
REMARK    3  A    between atoms: C_13  and  C_15
REMARK    4  A    between atoms: C_18  and  C_20
REMARK                            x       y       z     vdW  Elec       q    Type
REMARK                         _______ _______ _______ _____ _____    ______ ____
ROOT
ATOM      3  N   UNL     1     -11.942 -10.313  17.801  0.00  0.00    -0.281 NA
ATOM      4  N   UNL     1     -13.597 -13.146  19.562  0.00  0.00    -0.347 N 
ATOM      5  N   UNL     1     -13.278 -11.909  21.397  0.00  0.00    -0.240 NA
ATOM      8  C   UNL     1     -11.149  -9.836  18.975  0.00  0.00    +0.152 C 
ATOM      9  C   UNL     1     -11.925 -10.048  20.324  0.00  0.00    +0.086 C 
ATOM     10  C   UNL     1     -12.334 -11.737  17.836  0.00  0.00    +0.140 C 
ATOM     11  C   UNL     1     -12.865 -12.064  19.178  0.00  0.00    +0.053 A 
ATOM     12  C   UNL     1     -12.678 -11.324  20.318  0.00  0.00    +0.065 A 
ATOM     16  C   UNL     1     -13.822 -13.007  20.909  0.00  0.00    +0.197 A 
ATOM     27  H   UNL     1     -13.912 -13.907  18.976  0.00  0.00    +0.167 HD
ENDROOT
BRANCH   8  14
ATOM      2  O   UNL     1      -9.367 -11.112  20.086  0.00  0.00    -0.336 OA
ATOM      6  N   UNL     1      -8.716 -10.102  18.196  0.00  0.00    -0.190 NA
ATOM      7  N   UNL     1      -8.013 -11.430  19.920  0.00  0.00    -0.056 NA
ATOM     14  C   UNL     1      -9.701 -10.328  19.029  0.00  0.00    +0.245 A 
ATOM     18  C   UNL     1      -7.702 -10.799  18.784  0.00  0.00    +0.202 A 
BRANCH  18  20
ATOM     20  C   UNL     1      -6.388 -10.845  18.211  0.00  0.00    +0.022 A 
ATOM     22  C   UNL     1      -5.385 -11.594  18.827  0.00  0.00    +0.012 A 
ATOM     23  C   UNL     1      -6.112 -10.141  17.039  0.00  0.00    +0.012 A 
ATOM     24  C   UNL     1      -4.106 -11.639  18.271  0.00  0.00    +0.001 A 
ATOM     25  C   UNL     1      -4.833 -10.185  16.483  0.00  0.00    +0.001 A 
ATOM     26  C   UNL     1      -3.831 -10.934  17.099  0.00  0.00    +0.000 A 
ENDBRANCH  18  20
ENDBRANCH   8  14
BRANCH   3  13
ATOM     13  C   UNL     1     -11.371  -9.947  16.509  0.00  0.00    +0.128 C 
BRANCH  13  15
ATOM      1  S   UNL     1     -10.112  -7.534  15.935  0.00  0.00    -0.100 S 
ATOM     15  C   UNL     1     -11.513  -8.474  16.230  0.00  0.00    +0.004 A 
ATOM     17  C   UNL     1     -12.664  -7.719  16.173  0.00  0.00    +0.012 A 
ATOM     19  C   UNL     1     -12.393  -6.351  15.883  0.00  0.00    +0.008 A 
ATOM     21  C   UNL     1     -11.045  -6.112  15.729  0.00  0.00    +0.045 A 
ENDBRANCH  13  15
ENDBRANCH   3  13
TORSDOF 4
ENDMDL
