MODEL 1
REMARK VINA RESULT:      -8.0      0.000      0.000
REMARK  Name = 11884381
REMARK  7 active torsions:
REMARK  status: ('A' for Active; 'I' for Inactive)
REMARK    1  A    between atoms: O_3  and  C_22
REMARK    2  A    between atoms: O_6  and  C_30
REMARK    3  A    between atoms: O_6  and  C_31
REMARK    4  A    between atoms: N_9  and  C_20
REMARK    5  A    between atoms: C_19  and  C_22
REMARK    6  A    between atoms: C_23  and  C_24
REMARK    7  A    between atoms: C_24  and  C_25
REMARK                            x       y       z     vdW  Elec       q    Type
REMARK                         _______ _______ _______ _____ _____    ______ ____
ROOT
ATOM      1  O   UNL     1      16.812   9.118  22.010  0.00  0.00    -0.266 OA
ATOM      2  O   UNL     1      12.067   6.240  21.347  0.00  0.00    -0.263 OA
ATOM      7  N   UNL     1      15.444   8.630  20.181  0.00  0.00    -0.310 N 
ATOM      8  N   UNL     1      12.260   8.166  20.038  0.00  0.00    -0.291 N 
ATOM     10  C   UNL     1      13.579  10.194  19.389  0.00  0.00    +0.027 C 
ATOM     11  C   UNL     1      13.962   8.067  18.222  0.00  0.00    +0.054 C 
ATOM     12  C   UNL     1      13.824   9.573  18.021  0.00  0.00    +0.018 C 
ATOM     13  C   UNL     1      14.810   9.951  20.271  0.00  0.00    +0.130 C 
ATOM     14  C   UNL     1      12.295   9.631  20.026  0.00  0.00    +0.113 C 
ATOM     15  C   UNL     1      12.647   7.505  18.789  0.00  0.00    +0.118 C 
ATOM     16  C   UNL     1      15.110   7.737  19.157  0.00  0.00    +0.027 A 
ATOM     17  C   UNL     1      15.785   6.583  19.021  0.00  0.00    +0.024 A 
ATOM     18  C   UNL     1      16.471   8.355  21.105  0.00  0.00    +0.273 A 
ATOM     19  C   UNL     1      11.775   7.403  21.093  0.00  0.00    +0.324 C 
ATOM     20  C   UNL     1      17.182   7.049  20.935  0.00  0.00    +0.099 A 
ATOM     21  C   UNL     1      16.841   6.234  19.930  0.00  0.00    +0.030 A 
ENDROOT
BRANCH  20   9
ATOM      5  O   UNL     1      19.983   7.512  20.570  0.00  0.00    -0.275 OA
ATOM      9  N   UNL     1      18.175   6.740  21.818  0.00  0.00    -0.281 N 
ATOM     23  C   UNL     1      19.522   6.990  21.582  0.00  0.00    +0.222 C 
ATOM     32  H   UNL     1      17.927   6.100  22.568  0.00  0.00    +0.155 HD
BRANCH  23  24
ATOM     24  C   UNL     1      20.378   6.534  22.748  0.00  0.00    +0.131 C 
BRANCH  24  25
ATOM     25  C   UNL     1      21.440   5.542  22.357  0.00  0.00    -0.038 A 
ATOM     26  C   UNL     1      21.103   4.462  21.554  0.00  0.00    +0.007 A 
ATOM     27  C   UNL     1      22.741   5.719  22.807  0.00  0.00    +0.007 A 
ATOM     28  C   UNL     1      22.087   3.542  21.192  0.00  0.00    +0.046 A 
ATOM     29  C   UNL     1      23.724   4.799  22.446  0.00  0.00    +0.046 A 
ATOM     30  C   UNL     1      23.398   3.711  21.638  0.00  0.00    +0.120 A 
BRANCH  30   6
ATOM      6  O   UNL     1      24.357   2.812  21.284  0.00  0.00    -0.495 OA
ATOM     31  C   UNL     1      24.831   2.866  19.939  0.00  0.00    +0.277 C 
ENDBRANCH  30   6
ENDBRANCH  24  25
ENDBRANCH  23  24
ENDBRANCH  20   9
BRANCH  19  22
ATOM      4  O   UNL     1      11.047   8.823  22.846  0.00  0.00    -0.240 OA
ATOM     22  C   UNL     1      10.789   7.917  22.079  0.00  0.00    +0.392 C 
BRANCH  22   3
ATOM      3  O   UNL     1       9.643   7.234  21.956  0.00  0.00    -0.474 OA
ATOM     33  H   UNL     1       9.049   7.622  21.279  0.00  0.00    +0.296 HD
ENDBRANCH  22   3
ENDBRANCH  19  22
TORSDOF 6
ENDMDL
MODEL 2
REMARK VINA RESULT:      -7.2      2.482      3.439
REMARK  Name = 11884381
REMARK  7 active torsions:
REMARK  status: ('A' for Active; 'I' for Inactive)
REMARK    1  A    between atoms: O_3  and  C_22
REMARK    2  A    between atoms: O_6  and  C_30
REMARK    3  A    between atoms: O_6  and  C_31
REMARK    4  A    between atoms: N_9  and  C_20
REMARK    5  A    between atoms: C_19  and  C_22
REMARK    6  A    between atoms: C_23  and  C_24
REMARK    7  A    between atoms: C_24  and  C_25
REMARK                            x       y       z     vdW  Elec       q    Type
REMARK                         _______ _______ _______ _____ _____    ______ ____
ROOT
ATOM      1  O   UNL     1      16.610   6.088  19.550  0.00  0.00    -0.266 OA
ATOM      2  O   UNL     1      14.186  10.575  17.263  0.00  0.00    -0.263 OA
ATOM      7  N   UNL     1      14.907   7.541  20.220  0.00  0.00    -0.310 N 
ATOM      8  N   UNL     1      12.756   9.166  18.460  0.00  0.00    -0.291 N 
ATOM     10  C   UNL     1      12.430   7.067  19.785  0.00  0.00    +0.027 C 
ATOM     11  C   UNL     1      13.091   9.138  20.928  0.00  0.00    +0.054 C 
ATOM     12  C   UNL     1      12.189   7.912  21.028  0.00  0.00    +0.018 C 
ATOM     13  C   UNL     1      13.884   6.579  19.791  0.00  0.00    +0.130 C 
ATOM     14  C   UNL     1      12.095   7.860  18.508  0.00  0.00    +0.113 C 
ATOM     15  C   UNL     1      12.697   9.961  19.689  0.00  0.00    +0.118 C 
ATOM     16  C   UNL     1      14.553   8.743  20.841  0.00  0.00    +0.027 A 
ATOM     17  C   UNL     1      15.505   9.555  21.333  0.00  0.00    +0.024 A 
ATOM     18  C   UNL     1      16.251   7.145  20.073  0.00  0.00    +0.273 A 
ATOM     19  C   UNL     1      13.305   9.724  17.311  0.00  0.00    +0.324 C 
ATOM     20  C   UNL     1      17.282   8.088  20.612  0.00  0.00    +0.099 A 
ATOM     21  C   UNL     1      16.896   9.218  21.213  0.00  0.00    +0.030 A 
ENDROOT
BRANCH  20   9
ATOM      5  O   UNL     1      18.845   6.583  22.479  0.00  0.00    -0.275 OA
ATOM      9  N   UNL     1      18.596   7.746  20.476  0.00  0.00    -0.281 N 
ATOM     23  C   UNL     1      19.302   7.012  21.422  0.00  0.00    +0.222 C 
ATOM     32  H   UNL     1      19.119   8.247  19.763  0.00  0.00    +0.155 HD
BRANCH  23  24
ATOM     24  C   UNL     1      20.740   6.794  20.987  0.00  0.00    +0.131 C 
BRANCH  24  25
ATOM     25  C   UNL     1      21.353   5.543  21.558  0.00  0.00    -0.038 A 
ATOM     26  C   UNL     1      21.284   4.359  20.839  0.00  0.00    +0.007 A 
ATOM     27  C   UNL     1      21.977   5.592  22.796  0.00  0.00    +0.007 A 
ATOM     28  C   UNL     1      21.852   3.200  21.368  0.00  0.00    +0.046 A 
ATOM     29  C   UNL     1      22.544   4.434  23.326  0.00  0.00    +0.046 A 
ATOM     30  C   UNL     1      22.482   3.238  22.612  0.00  0.00    +0.120 A 
BRANCH  30   6
ATOM      6  O   UNL     1      23.036   2.106  23.127  0.00  0.00    -0.495 OA
ATOM     31  C   UNL     1      24.124   1.530  22.406  0.00  0.00    +0.277 C 
ENDBRANCH  30   6
ENDBRANCH  24  25
ENDBRANCH  23  24
ENDBRANCH  20   9
BRANCH  19  22
ATOM      4  O   UNL     1      13.519   8.626  15.221  0.00  0.00    -0.240 OA
ATOM     22  C   UNL     1      12.865   9.355  15.940  0.00  0.00    +0.392 C 
BRANCH  22   3
ATOM      3  O   UNL     1      11.688   9.940  15.680  0.00  0.00    -0.474 OA
ATOM     33  H   UNL     1      10.938   9.474  16.108  0.00  0.00    +0.296 HD
ENDBRANCH  22   3
ENDBRANCH  19  22
TORSDOF 6
ENDMDL
MODEL 3
REMARK VINA RESULT:      -7.1     19.091     21.980
REMARK  Name = 11884381
REMARK  7 active torsions:
REMARK  status: ('A' for Active; 'I' for Inactive)
REMARK    1  A    between atoms: O_3  and  C_22
REMARK    2  A    between atoms: O_6  and  C_30
REMARK    3  A    between atoms: O_6  and  C_31
REMARK    4  A    between atoms: N_9  and  C_20
REMARK    5  A    between atoms: C_19  and  C_22
REMARK    6  A    between atoms: C_23  and  C_24
REMARK    7  A    between atoms: C_24  and  C_25
REMARK                            x       y       z     vdW  Elec       q    Type
REMARK                         _______ _______ _______ _____ _____    ______ ____
ROOT
ATOM      1  O   UNL     1      10.271   6.844  -0.055  0.00  0.00    -0.266 OA
ATOM      2  O   UNL     1       9.991   1.933  -2.709  0.00  0.00    -0.263 OA
ATOM      7  N   UNL     1      11.860   5.368  -0.924  0.00  0.00    -0.310 N 
ATOM      8  N   UNL     1      11.677   3.374  -3.446  0.00  0.00    -0.291 N 
ATOM     10  C   UNL     1      12.818   5.597  -3.286  0.00  0.00    +0.027 C 
ATOM     11  C   UNL     1      13.551   3.745  -1.849  0.00  0.00    +0.054 C 
ATOM     12  C   UNL     1      14.045   4.904  -2.710  0.00  0.00    +0.018 C 
ATOM     13  C   UNL     1      11.996   6.188  -2.135  0.00  0.00    +0.130 C 
ATOM     14  C   UNL     1      11.989   4.623  -4.145  0.00  0.00    +0.113 C 
ATOM     15  C   UNL     1      12.789   2.742  -2.732  0.00  0.00    +0.118 C 
ATOM     16  C   UNL     1      12.653   4.233  -0.728  0.00  0.00    +0.027 A 
ATOM     17  C   UNL     1      12.598   3.564   0.436  0.00  0.00    +0.024 A 
ATOM     18  C   UNL     1      10.975   5.840   0.065  0.00  0.00    +0.273 A 
ATOM     19  C   UNL     1      10.456   2.715  -3.530  0.00  0.00    +0.324 C 
ATOM     20  C   UNL     1      10.926   5.054   1.338  0.00  0.00    +0.099 A 
ATOM     21  C   UNL     1      11.716   3.985   1.488  0.00  0.00    +0.030 A 
ENDROOT
BRANCH  20   9
ATOM      5  O   UNL     1      11.530   6.891   3.448  0.00  0.00    -0.275 OA
ATOM      9  N   UNL     1      10.071   5.471   2.317  0.00  0.00    -0.281 N 
ATOM     23  C   UNL     1      10.426   6.368   3.318  0.00  0.00    +0.222 C 
ATOM     32  H   UNL     1       9.222   4.925   2.436  0.00  0.00    +0.155 HD
BRANCH  23  24
ATOM     24  C   UNL     1       9.262   6.635   4.254  0.00  0.00    +0.131 C 
BRANCH  24  25
ATOM     25  C   UNL     1       9.443   6.027   5.620  0.00  0.00    -0.038 A 
ATOM     26  C   UNL     1       9.739   4.677   5.733  0.00  0.00    +0.007 A 
ATOM     27  C   UNL     1       9.309   6.826   6.746  0.00  0.00    +0.007 A 
ATOM     28  C   UNL     1       9.906   4.114   6.998  0.00  0.00    +0.046 A 
ATOM     29  C   UNL     1       9.476   6.264   8.011  0.00  0.00    +0.046 A 
ATOM     30  C   UNL     1       9.774   4.908   8.137  0.00  0.00    +0.120 A 
BRANCH  30   6
ATOM      6  O   UNL     1       9.938   4.358   9.372  0.00  0.00    -0.495 OA
ATOM     31  C   UNL     1       8.899   4.578  10.324  0.00  0.00    +0.277 C 
ENDBRANCH  30   6
ENDBRANCH  24  25
ENDBRANCH  23  24
ENDBRANCH  20   9
BRANCH  19  22
ATOM      4  O   UNL     1       9.766   2.410  -5.778  0.00  0.00    -0.240 OA
ATOM     22  C   UNL     1       9.527   2.871  -4.680  0.00  0.00    +0.392 C 
BRANCH  22   3
ATOM      3  O   UNL     1       8.451   3.566  -4.288  0.00  0.00    -0.474 OA
ATOM     33  H   UNL     1       7.714   2.983  -4.006  0.00  0.00    +0.296 HD
ENDBRANCH  22   3
ENDBRANCH  19  22
TORSDOF 6
ENDMDL
MODEL 4
REMARK VINA RESULT:      -7.0      4.521      7.949
REMARK  Name = 11884381
REMARK  7 active torsions:
REMARK  status: ('A' for Active; 'I' for Inactive)
REMARK    1  A    between atoms: O_3  and  C_22
REMARK    2  A    between atoms: O_6  and  C_30
REMARK    3  A    between atoms: O_6  and  C_31
REMARK    4  A    between atoms: N_9  and  C_20
REMARK    5  A    between atoms: C_19  and  C_22
REMARK    6  A    between atoms: C_23  and  C_24
REMARK    7  A    between atoms: C_24  and  C_25
REMARK                            x       y       z     vdW  Elec       q    Type
REMARK                         _______ _______ _______ _____ _____    ______ ____
ROOT
ATOM      1  O   UNL     1      14.055  11.772  18.537  0.00  0.00    -0.266 OA
ATOM      2  O   UNL     1      15.326   6.374  19.231  0.00  0.00    -0.263 OA
ATOM      7  N   UNL     1      12.862   9.896  19.253  0.00  0.00    -0.310 N 
ATOM      8  N   UNL     1      13.871   7.273  20.824  0.00  0.00    -0.291 N 
ATOM     10  C   UNL     1      12.635   9.257  21.721  0.00  0.00    +0.027 C 
ATOM     11  C   UNL     1      11.593   7.850  19.998  0.00  0.00    +0.054 C 
ATOM     12  C   UNL     1      11.325   8.610  21.293  0.00  0.00    +0.018 C 
ATOM     13  C   UNL     1      13.053  10.280  20.657  0.00  0.00    +0.130 C 
ATOM     14  C   UNL     1      13.723   8.192  21.954  0.00  0.00    +0.113 C 
ATOM     15  C   UNL     1      12.627   6.741  20.262  0.00  0.00    +0.118 C 
ATOM     16  C   UNL     1      12.098   8.777  18.908  0.00  0.00    +0.027 A 
ATOM     17  C   UNL     1      11.836   8.510  17.617  0.00  0.00    +0.024 A 
ATOM     18  C   UNL     1      13.392  10.766  18.280  0.00  0.00    +0.273 A 
ATOM     19  C   UNL     1      15.090   6.795  20.358  0.00  0.00    +0.324 C 
ATOM     20  C   UNL     1      13.099  10.421  16.853  0.00  0.00    +0.099 A 
ATOM     21  C   UNL     1      12.348   9.350  16.571  0.00  0.00    +0.030 A 
ENDROOT
BRANCH  20   9
ATOM      5  O   UNL     1      14.930   9.655  14.791  0.00  0.00    -0.275 OA
ATOM      9  N   UNL     1      13.606  11.231  15.880  0.00  0.00    -0.281 N 
ATOM     23  C   UNL     1      14.496  10.799  14.904  0.00  0.00    +0.222 C 
ATOM     32  H   UNL     1      13.498  12.231  16.027  0.00  0.00    +0.155 HD
BRANCH  23  24
ATOM     24  C   UNL     1      14.878  11.930  13.968  0.00  0.00    +0.131 C 
BRANCH  24  25
ATOM     25  C   UNL     1      16.362  12.047  13.747  0.00  0.00    -0.038 A 
ATOM     26  C   UNL     1      17.227  11.899  14.821  0.00  0.00    +0.007 A 
ATOM     27  C   UNL     1      16.845  12.304  12.471  0.00  0.00    +0.007 A 
ATOM     28  C   UNL     1      18.602  12.008  14.616  0.00  0.00    +0.046 A 
ATOM     29  C   UNL     1      18.220  12.413  12.266  0.00  0.00    +0.046 A 
ATOM     30  C   UNL     1      19.098  12.265  13.339  0.00  0.00    +0.120 A 
BRANCH  30   6
ATOM      6  O   UNL     1      20.441  12.370  13.140  0.00  0.00    -0.495 OA
ATOM     31  C   UNL     1      21.291  11.810  14.140  0.00  0.00    +0.277 C 
ENDBRANCH  30   6
ENDBRANCH  24  25
ENDBRANCH  23  24
ENDBRANCH  20   9
BRANCH  19  22
ATOM      4  O   UNL     1      17.334   7.310  20.925  0.00  0.00    -0.240 OA
ATOM     22  C   UNL     1      16.310   6.720  21.204  0.00  0.00    +0.392 C 
BRANCH  22   3
ATOM      3  O   UNL     1      16.066   5.933  22.261  0.00  0.00    -0.474 OA
ATOM     33  H   UNL     1      16.791   5.292  22.423  0.00  0.00    +0.296 HD
ENDBRANCH  22   3
ENDBRANCH  19  22
TORSDOF 6
ENDMDL
MODEL 5
REMARK VINA RESULT:      -7.0     27.485     30.184
REMARK  Name = 11884381
REMARK  7 active torsions:
REMARK  status: ('A' for Active; 'I' for Inactive)
REMARK    1  A    between atoms: O_3  and  C_22
REMARK    2  A    between atoms: O_6  and  C_30
REMARK    3  A    between atoms: O_6  and  C_31
REMARK    4  A    between atoms: N_9  and  C_20
REMARK    5  A    between atoms: C_19  and  C_22
REMARK    6  A    between atoms: C_23  and  C_24
REMARK    7  A    between atoms: C_24  and  C_25
REMARK                            x       y       z     vdW  Elec       q    Type
REMARK                         _______ _______ _______ _____ _____    ______ ____
ROOT
ATOM      1  O   UNL     1      -5.775 -11.947  14.019  0.00  0.00    -0.266 OA
ATOM      2  O   UNL     1      -8.622  -8.443  17.313  0.00  0.00    -0.263 OA
ATOM      7  N   UNL     1      -6.320 -11.925  16.291  0.00  0.00    -0.310 N 
ATOM      8  N   UNL     1      -8.898 -10.713  17.793  0.00  0.00    -0.291 N 
ATOM     10  C   UNL     1      -8.392 -13.100  17.229  0.00  0.00    +0.027 C 
ATOM     11  C   UNL     1      -6.902 -11.863  18.742  0.00  0.00    +0.054 C 
ATOM     12  C   UNL     1      -7.580 -13.211  18.513  0.00  0.00    +0.018 C 
ATOM     13  C   UNL     1      -7.433 -12.855  16.057  0.00  0.00    +0.130 C 
ATOM     14  C   UNL     1      -9.455 -11.992  17.345  0.00  0.00    +0.113 C 
ATOM     15  C   UNL     1      -7.976 -10.777  18.930  0.00  0.00    +0.118 C 
ATOM     16  C   UNL     1      -5.996 -11.497  17.582  0.00  0.00    +0.027 A 
ATOM     17  C   UNL     1      -4.903 -10.742  17.788  0.00  0.00    +0.024 A 
ATOM     18  C   UNL     1      -5.539 -11.579  15.171  0.00  0.00    +0.273 A 
ATOM     19  C   UNL     1      -9.284  -9.474  17.295  0.00  0.00    +0.324 C 
ATOM     20  C   UNL     1      -4.344 -10.718  15.439  0.00  0.00    +0.099 A 
ATOM     21  C   UNL     1      -4.063 -10.346  16.693  0.00  0.00    +0.030 A 
ENDROOT
BRANCH  20   9
ATOM      5  O   UNL     1      -2.062 -12.124  14.435  0.00  0.00    -0.275 OA
ATOM      9  N   UNL     1      -3.569 -10.349  14.378  0.00  0.00    -0.281 N 
ATOM     23  C   UNL     1      -2.470 -11.076  13.938  0.00  0.00    +0.222 C 
ATOM     32  H   UNL     1      -3.676  -9.391  14.055  0.00  0.00    +0.155 HD
BRANCH  23  24
ATOM     24  C   UNL     1      -1.814 -10.412  12.742  0.00  0.00    +0.131 C 
BRANCH  24  25
ATOM     25  C   UNL     1      -2.654 -10.466  11.494  0.00  0.00    -0.038 A 
ATOM     26  C   UNL     1      -3.219 -11.671  11.103  0.00  0.00    +0.007 A 
ATOM     27  C   UNL     1      -2.850  -9.311  10.751  0.00  0.00    +0.007 A 
ATOM     28  C   UNL     1      -3.998 -11.722   9.946  0.00  0.00    +0.046 A 
ATOM     29  C   UNL     1      -3.627  -9.361   9.594  0.00  0.00    +0.046 A 
ATOM     30  C   UNL     1      -4.201 -10.567   9.192  0.00  0.00    +0.120 A 
BRANCH  30   6
ATOM      6  O   UNL     1      -4.961 -10.617   8.063  0.00  0.00    -0.495 OA
ATOM     31  C   UNL     1      -5.980  -9.629   7.923  0.00  0.00    +0.277 C 
ENDBRANCH  30   6
ENDBRANCH  24  25
ENDBRANCH  23  24
ENDBRANCH  20   9
BRANCH  19  22
ATOM      4  O   UNL     1     -10.770  -9.263  15.460  0.00  0.00    -0.240 OA
ATOM     22  C   UNL     1     -10.607  -9.230  16.664  0.00  0.00    +0.392 C 
BRANCH  22   3
ATOM      3  O   UNL     1     -11.515  -8.990  17.619  0.00  0.00    -0.474 OA
ATOM     33  H   UNL     1     -11.422  -9.600  18.382  0.00  0.00    +0.296 HD
ENDBRANCH  22   3
ENDBRANCH  19  22
TORSDOF 6
ENDMDL
MODEL 6
REMARK VINA RESULT:      -6.8     17.218     19.909
REMARK  Name = 11884381
REMARK  7 active torsions:
REMARK  status: ('A' for Active; 'I' for Inactive)
REMARK    1  A    between atoms: O_3  and  C_22
REMARK    2  A    between atoms: O_6  and  C_30
REMARK    3  A    between atoms: O_6  and  C_31
REMARK    4  A    between atoms: N_9  and  C_20
REMARK    5  A    between atoms: C_19  and  C_22
REMARK    6  A    between atoms: C_23  and  C_24
REMARK    7  A    between atoms: C_24  and  C_25
REMARK                            x       y       z     vdW  Elec       q    Type
REMARK                         _______ _______ _______ _____ _____    ______ ____
ROOT
ATOM      1  O   UNL     1      13.450   7.066   3.510  0.00  0.00    -0.266 OA
ATOM      2  O   UNL     1       9.280   4.731   6.409  0.00  0.00    -0.263 OA
ATOM      7  N   UNL     1      11.252   7.691   3.996  0.00  0.00    -0.310 N 
ATOM      8  N   UNL     1       9.439   7.057   6.580  0.00  0.00    -0.291 N 
ATOM     10  C   UNL     1      10.642   9.172   5.992  0.00  0.00    +0.027 C 
ATOM     11  C   UNL     1       8.870   8.329   4.515  0.00  0.00    +0.054 C 
ATOM     12  C   UNL     1       9.450   9.592   5.144  0.00  0.00    +0.018 C 
ATOM     13  C   UNL     1      11.716   8.571   5.076  0.00  0.00    +0.130 C 
ATOM     14  C   UNL     1      10.212   8.188   7.096  0.00  0.00    +0.113 C 
ATOM     15  C   UNL     1       8.376   7.387   5.627  0.00  0.00    +0.118 C 
ATOM     16  C   UNL     1       9.898   7.618   3.655  0.00  0.00    +0.027 A 
ATOM     17  C   UNL     1       9.508   6.899   2.588  0.00  0.00    +0.024 A 
ATOM     18  C   UNL     1      12.244   7.016   3.259  0.00  0.00    +0.273 A 
ATOM     19  C   UNL     1       9.572   5.748   7.029  0.00  0.00    +0.324 C 
ATOM     20  C   UNL     1      11.767   6.207   2.093  0.00  0.00    +0.099 A 
ATOM     21  C   UNL     1      10.464   6.180   1.794  0.00  0.00    +0.030 A 
ENDROOT
BRANCH  20   9
ATOM      5  O   UNL     1      12.289   3.395   2.207  0.00  0.00    -0.275 OA
ATOM      9  N   UNL     1      12.697   5.526   1.362  0.00  0.00    -0.281 N 
ATOM     23  C   UNL     1      12.904   4.156   1.463  0.00  0.00    +0.222 C 
ATOM     32  H   UNL     1      13.406   6.089   0.900  0.00  0.00    +0.155 HD
BRANCH  23  24
ATOM     24  C   UNL     1      14.003   3.695   0.524  0.00  0.00    +0.131 C 
BRANCH  24  25
ATOM     25  C   UNL     1      13.558   3.587  -0.909  0.00  0.00    -0.038 A 
ATOM     26  C   UNL     1      12.509   2.740  -1.237  0.00  0.00    +0.007 A 
ATOM     27  C   UNL     1      14.203   4.335  -1.883  0.00  0.00    +0.007 A 
ATOM     28  C   UNL     1      12.097   2.640  -2.566  0.00  0.00    +0.046 A 
ATOM     29  C   UNL     1      13.792   4.234  -3.212  0.00  0.00    +0.046 A 
ATOM     30  C   UNL     1      12.738   3.387  -3.553  0.00  0.00    +0.120 A 
BRANCH  30   6
ATOM      6  O   UNL     1      12.334   3.289  -4.850  0.00  0.00    -0.495 OA
ATOM     31  C   UNL     1      10.930   3.333  -5.097  0.00  0.00    +0.277 C 
ENDBRANCH  30   6
ENDBRANCH  24  25
ENDBRANCH  23  24
ENDBRANCH  20   9
BRANCH  19  22
ATOM      4  O   UNL     1       9.365   5.258   9.339  0.00  0.00    -0.240 OA
ATOM     22  C   UNL     1      10.093   5.401   8.377  0.00  0.00    +0.392 C 
BRANCH  22   3
ATOM      3  O   UNL     1      11.426   5.283   8.319  0.00  0.00    -0.474 OA
ATOM     33  H   UNL     1      11.803   5.714   7.522  0.00  0.00    +0.296 HD
ENDBRANCH  22   3
ENDBRANCH  19  22
TORSDOF 6
ENDMDL
MODEL 7
REMARK VINA RESULT:      -6.8      4.906     10.206
REMARK  Name = 11884381
REMARK  7 active torsions:
REMARK  status: ('A' for Active; 'I' for Inactive)
REMARK    1  A    between atoms: O_3  and  C_22
REMARK    2  A    between atoms: O_6  and  C_30
REMARK    3  A    between atoms: O_6  and  C_31
REMARK    4  A    between atoms: N_9  and  C_20
REMARK    5  A    between atoms: C_19  and  C_22
REMARK    6  A    between atoms: C_23  and  C_24
REMARK    7  A    between atoms: C_24  and  C_25
REMARK                            x       y       z     vdW  Elec       q    Type
REMARK                         _______ _______ _______ _____ _____    ______ ____
ROOT
ATOM      1  O   UNL     1      15.412  11.662  18.568  0.00  0.00    -0.266 OA
ATOM      2  O   UNL     1      16.018   6.122  18.140  0.00  0.00    -0.263 OA
ATOM      7  N   UNL     1      14.383   9.826  19.582  0.00  0.00    -0.310 N 
ATOM      8  N   UNL     1      15.565   6.916  20.291  0.00  0.00    -0.291 N 
ATOM     10  C   UNL     1      15.166   8.859  21.819  0.00  0.00    +0.027 C 
ATOM     11  C   UNL     1      13.273   7.827  20.641  0.00  0.00    +0.054 C 
ATOM     12  C   UNL     1      13.719   8.413  21.978  0.00  0.00    +0.018 C 
ATOM     13  C   UNL     1      15.226   9.981  20.774  0.00  0.00    +0.130 C 
ATOM     14  C   UNL     1      16.070   7.671  21.440  0.00  0.00    +0.113 C 
ATOM     15  C   UNL     1      14.135   6.596  20.311  0.00  0.00    +0.118 C 
ATOM     16  C   UNL     1      13.384   8.849  19.526  0.00  0.00    +0.027 A 
ATOM     17  C   UNL     1      12.545   8.800  18.476  0.00  0.00    +0.024 A 
ATOM     18  C   UNL     1      14.559  10.773  18.554  0.00  0.00    +0.273 A 
ATOM     19  C   UNL     1      16.368   6.395  19.283  0.00  0.00    +0.324 C 
ATOM     20  C   UNL     1      13.621  10.670  17.391  0.00  0.00    +0.099 A 
ATOM     21  C   UNL     1      12.669   9.730  17.389  0.00  0.00    +0.030 A 
ENDROOT
BRANCH  20   9
ATOM      5  O   UNL     1      14.611  10.092  14.768  0.00  0.00    -0.275 OA
ATOM      9  N   UNL     1      13.768  11.560  16.368  0.00  0.00    -0.281 N 
ATOM     23  C   UNL     1      14.257  11.217  15.113  0.00  0.00    +0.222 C 
ATOM     32  H   UNL     1      13.730  12.544  16.620  0.00  0.00    +0.155 HD
BRANCH  23  24
ATOM     24  C   UNL     1      14.303  12.423  14.193  0.00  0.00    +0.131 C 
BRANCH  24  25
ATOM     25  C   UNL     1      13.322  12.343  13.054  0.00  0.00    -0.038 A 
ATOM     26  C   UNL     1      11.982  12.103  13.322  0.00  0.00    +0.007 A 
ATOM     27  C   UNL     1      13.772  12.508  11.752  0.00  0.00    +0.007 A 
ATOM     28  C   UNL     1      11.074  12.028  12.266  0.00  0.00    +0.046 A 
ATOM     29  C   UNL     1      12.864  12.432  10.696  0.00  0.00    +0.046 A 
ATOM     30  C   UNL     1      11.515  12.192  10.953  0.00  0.00    +0.120 A 
BRANCH  30   6
ATOM      6  O   UNL     1      10.627  12.120   9.924  0.00  0.00    -0.495 OA
ATOM     31  C   UNL     1       9.374  11.493  10.191  0.00  0.00    +0.277 C 
ENDBRANCH  30   6
ENDBRANCH  24  25
ENDBRANCH  23  24
ENDBRANCH  20   9
BRANCH  19  22
ATOM      4  O   UNL     1      18.512   6.694  20.250  0.00  0.00    -0.240 OA
ATOM     22  C   UNL     1      17.807   6.079  19.474  0.00  0.00    +0.392 C 
BRANCH  22   3
ATOM      3  O   UNL     1      18.143   5.052  18.682  0.00  0.00    -0.474 OA
ATOM     33  H   UNL     1      18.938   5.245  18.140  0.00  0.00    +0.296 HD
ENDBRANCH  22   3
ENDBRANCH  19  22
TORSDOF 6
ENDMDL
MODEL 8
REMARK VINA RESULT:      -6.4     27.646     30.313
REMARK  Name = 11884381
REMARK  7 active torsions:
REMARK  status: ('A' for Active; 'I' for Inactive)
REMARK    1  A    between atoms: O_3  and  C_22
REMARK    2  A    between atoms: O_6  and  C_30
REMARK    3  A    between atoms: O_6  and  C_31
REMARK    4  A    between atoms: N_9  and  C_20
REMARK    5  A    between atoms: C_19  and  C_22
REMARK    6  A    between atoms: C_23  and  C_24
REMARK    7  A    between atoms: C_24  and  C_25
REMARK                            x       y       z     vdW  Elec       q    Type
REMARK                         _______ _______ _______ _____ _____    ______ ____
ROOT
ATOM      1  O   UNL     1      -4.765 -12.703  13.419  0.00  0.00    -0.266 OA
ATOM      2  O   UNL     1      -6.976  -8.930  16.898  0.00  0.00    -0.263 OA
ATOM      7  N   UNL     1      -4.522 -12.247  15.697  0.00  0.00    -0.310 N 
ATOM      8  N   UNL     1      -6.639 -11.055  17.811  0.00  0.00    -0.291 N 
ATOM     10  C   UNL     1      -5.901 -13.428  17.501  0.00  0.00    +0.027 C 
ATOM     11  C   UNL     1      -4.261 -11.716  18.147  0.00  0.00    +0.054 C 
ATOM     12  C   UNL     1      -4.706 -13.153  18.403  0.00  0.00    +0.018 C 
ATOM     13  C   UNL     1      -5.450 -13.332  16.039  0.00  0.00    +0.130 C 
ATOM     14  C   UNL     1      -7.057 -12.458  17.811  0.00  0.00    +0.113 C 
ATOM     15  C   UNL     1      -5.399 -10.754  18.530  0.00  0.00    +0.118 C 
ATOM     16  C   UNL     1      -3.877 -11.508  16.694  0.00  0.00    +0.027 A 
ATOM     17  C   UNL     1      -2.943 -10.600  16.364  0.00  0.00    +0.024 A 
ATOM     18  C   UNL     1      -4.236 -12.064  14.330  0.00  0.00    +0.273 A 
ATOM     19  C   UNL     1      -7.397 -10.012  17.291  0.00  0.00    +0.324 C 
ATOM     20  C   UNL     1      -3.208 -11.027  14.002  0.00  0.00    +0.099 A 
ATOM     21  C   UNL     1      -2.604 -10.356  14.990  0.00  0.00    +0.030 A 
ENDROOT
BRANCH  20   9
ATOM      5  O   UNL     1      -4.805  -9.575  12.122  0.00  0.00    -0.275 OA
ATOM      9  N   UNL     1      -2.913 -10.810  12.688  0.00  0.00    -0.281 N 
ATOM     23  C   UNL     1      -3.733 -10.095  11.822  0.00  0.00    +0.222 C 
ATOM     32  H   UNL     1      -2.179 -11.390  12.290  0.00  0.00    +0.155 HD
BRANCH  23  24
ATOM     24  C   UNL     1      -3.135 -10.027  10.429  0.00  0.00    +0.131 C 
BRANCH  24  25
ATOM     25  C   UNL     1      -4.102 -10.419   9.345  0.00  0.00    -0.038 A 
ATOM     26  C   UNL     1      -4.392 -11.760   9.141  0.00  0.00    +0.007 A 
ATOM     27  C   UNL     1      -4.688  -9.434   8.562  0.00  0.00    +0.007 A 
ATOM     28  C   UNL     1      -5.288 -12.124   8.135  0.00  0.00    +0.046 A 
ATOM     29  C   UNL     1      -5.583  -9.798   7.557  0.00  0.00    +0.046 A 
ATOM     30  C   UNL     1      -5.883 -11.143   7.343  0.00  0.00    +0.120 A 
BRANCH  30   6
ATOM      6  O   UNL     1      -6.758 -11.499   6.362  0.00  0.00    -0.495 OA
ATOM     31  C   UNL     1      -6.468 -11.049   5.040  0.00  0.00    +0.277 C 
ENDBRANCH  30   6
ENDBRANCH  24  25
ENDBRANCH  23  24
ENDBRANCH  20   9
BRANCH  19  22
ATOM      4  O   UNL     1      -9.417 -10.433  16.124  0.00  0.00    -0.240 OA
ATOM     22  C   UNL     1      -8.875 -10.075  17.151  0.00  0.00    +0.392 C 
BRANCH  22   3
ATOM      3  O   UNL     1      -9.445  -9.691  18.301  0.00  0.00    -0.474 OA
ATOM     33  H   UNL     1     -10.215 -10.250  18.540  0.00  0.00    +0.296 HD
ENDBRANCH  22   3
ENDBRANCH  19  22
TORSDOF 6
ENDMDL
MODEL 9
REMARK VINA RESULT:      -6.2     17.994     20.820
REMARK  Name = 11884381
REMARK  7 active torsions:
REMARK  status: ('A' for Active; 'I' for Inactive)
REMARK    1  A    between atoms: O_3  and  C_22
REMARK    2  A    between atoms: O_6  and  C_30
REMARK    3  A    between atoms: O_6  and  C_31
REMARK    4  A    between atoms: N_9  and  C_20
REMARK    5  A    between atoms: C_19  and  C_22
REMARK    6  A    between atoms: C_23  and  C_24
REMARK    7  A    between atoms: C_24  and  C_25
REMARK                            x       y       z     vdW  Elec       q    Type
REMARK                         _______ _______ _______ _____ _____    ______ ____
ROOT
ATOM      1  O   UNL     1      10.760   4.342   2.015  0.00  0.00    -0.266 OA
ATOM      2  O   UNL     1       9.553   9.631   3.357  0.00  0.00    -0.263 OA
ATOM      7  N   UNL     1      11.000   5.628   3.951  0.00  0.00    -0.310 N 
ATOM      8  N   UNL     1       9.208   8.064   5.056  0.00  0.00    -0.291 N 
ATOM     10  C   UNL     1       9.240   5.676   5.809  0.00  0.00    +0.027 C 
ATOM     11  C   UNL     1      11.268   7.046   6.016  0.00  0.00    +0.054 C 
ATOM     12  C   UNL     1      10.412   6.000   6.724  0.00  0.00    +0.018 C 
ATOM     13  C   UNL     1       9.779   5.043   4.520  0.00  0.00    +0.130 C 
ATOM     14  C   UNL     1       8.400   6.935   5.524  0.00  0.00    +0.113 C 
ATOM     15  C   UNL     1      10.440   8.325   5.804  0.00  0.00    +0.118 C 
ATOM     16  C   UNL     1      11.776   6.533   4.682  0.00  0.00    +0.027 A 
ATOM     17  C   UNL     1      12.950   6.965   4.192  0.00  0.00    +0.024 A 
ATOM     18  C   UNL     1      11.401   5.152   2.687  0.00  0.00    +0.273 A 
ATOM     19  C   UNL     1       8.815   8.947   4.057  0.00  0.00    +0.324 C 
ATOM     20  C   UNL     1      12.703   5.676   2.165  0.00  0.00    +0.099 A 
ATOM     21  C   UNL     1      13.420   6.526   2.908  0.00  0.00    +0.030 A 
ENDROOT
BRANCH  20   9
ATOM      5  O   UNL     1      13.952   3.169   1.575  0.00  0.00    -0.275 OA
ATOM      9  N   UNL     1      13.120   5.249   0.938  0.00  0.00    -0.281 N 
ATOM     23  C   UNL     1      13.722   4.016   0.716  0.00  0.00    +0.222 C 
ATOM     32  H   UNL     1      13.192   5.960   0.215  0.00  0.00    +0.155 HD
BRANCH  23  24
ATOM     24  C   UNL     1      14.072   3.832  -0.750  0.00  0.00    +0.131 C 
BRANCH  24  25
ATOM     25  C   UNL     1      12.870   3.601  -1.626  0.00  0.00    -0.038 A 
ATOM     26  C   UNL     1      12.323   4.663  -2.330  0.00  0.00    +0.007 A 
ATOM     27  C   UNL     1      12.325   2.328  -1.715  0.00  0.00    +0.007 A 
ATOM     28  C   UNL     1      11.209   4.448  -3.142  0.00  0.00    +0.046 A 
ATOM     29  C   UNL     1      11.212   2.113  -2.526  0.00  0.00    +0.046 A 
ATOM     30  C   UNL     1      10.654   3.173  -3.239  0.00  0.00    +0.120 A 
BRANCH  30   6
ATOM      6  O   UNL     1       9.567   2.964  -4.032  0.00  0.00    -0.495 OA
ATOM     31  C   UNL     1       9.283   3.955  -5.019  0.00  0.00    +0.277 C 
ENDBRANCH  30   6
ENDBRANCH  24  25
ENDBRANCH  23  24
ENDBRANCH  20   9
BRANCH  19  22
ATOM      4  O   UNL     1       6.957   9.008   2.585  0.00  0.00    -0.240 OA
ATOM     22  C   UNL     1       7.392   9.192   3.704  0.00  0.00    +0.392 C 
BRANCH  22   3
ATOM      3  O   UNL     1       6.735   9.620   4.791  0.00  0.00    -0.474 OA
ATOM     33  H   UNL     1       5.774   9.426   4.745  0.00  0.00    +0.296 HD
ENDBRANCH  22   3
ENDBRANCH  19  22
TORSDOF 6
ENDMDL
MODEL 10
REMARK VINA RESULT:      -6.2     19.332     22.561
REMARK  Name = 11884381
REMARK  7 active torsions:
REMARK  status: ('A' for Active; 'I' for Inactive)
REMARK    1  A    between atoms: O_3  and  C_22
REMARK    2  A    between atoms: O_6  and  C_30
REMARK    3  A    between atoms: O_6  and  C_31
REMARK    4  A    between atoms: N_9  and  C_20
REMARK    5  A    between atoms: C_19  and  C_22
REMARK    6  A    between atoms: C_23  and  C_24
REMARK    7  A    between atoms: C_24  and  C_25
REMARK                            x       y       z     vdW  Elec       q    Type
REMARK                         _______ _______ _______ _____ _____    ______ ____
ROOT
ATOM      1  O   UNL     1      10.554   6.512   0.668  0.00  0.00    -0.266 OA
ATOM      2  O   UNL     1      10.058   1.998  -2.590  0.00  0.00    -0.263 OA
ATOM      7  N   UNL     1      12.053   5.239  -0.593  0.00  0.00    -0.310 N 
ATOM      8  N   UNL     1      11.593   3.599  -3.326  0.00  0.00    -0.291 N 
ATOM     10  C   UNL     1      12.687   5.828  -3.002  0.00  0.00    +0.027 C 
ATOM     11  C   UNL     1      13.651   3.833  -1.941  0.00  0.00    +0.054 C 
ATOM     12  C   UNL     1      13.996   5.119  -2.687  0.00  0.00    +0.018 C 
ATOM     13  C   UNL     1      12.007   6.221  -1.684  0.00  0.00    +0.130 C 
ATOM     14  C   UNL     1      11.778   4.944  -3.876  0.00  0.00    +0.113 C 
ATOM     15  C   UNL     1      12.806   2.926  -2.853  0.00  0.00    +0.118 C 
ATOM     16  C   UNL     1      12.895   4.124  -0.659  0.00  0.00    +0.027 A 
ATOM     17  C   UNL     1      13.011   3.302   0.398  0.00  0.00    +0.024 A 
ATOM     18  C   UNL     1      11.294   5.534   0.557  0.00  0.00    +0.273 A 
ATOM     19  C   UNL     1      10.390   2.904  -3.346  0.00  0.00    +0.324 C 
ATOM     20  C   UNL     1      11.432   4.581   1.703  0.00  0.00    +0.099 A 
ATOM     21  C   UNL     1      12.263   3.537   1.601  0.00  0.00    +0.030 A 
ENDROOT
BRANCH  20   9
ATOM      5  O   UNL     1      12.155   6.334   3.847  0.00  0.00    -0.275 OA
ATOM      9  N   UNL     1      10.703   4.824   2.830  0.00  0.00    -0.281 N 
ATOM     23  C   UNL     1      11.110   5.689   3.839  0.00  0.00    +0.222 C 
ATOM     32  H   UNL     1       9.950   4.170   3.028  0.00  0.00    +0.155 HD
BRANCH  23  24
ATOM     24  C   UNL     1      10.087   5.747   4.959  0.00  0.00    +0.131 C 
BRANCH  24  25
ATOM     25  C   UNL     1       9.277   7.016   4.962  0.00  0.00    -0.038 A 
ATOM     26  C   UNL     1       9.261   7.813   6.097  0.00  0.00    +0.007 A 
ATOM     27  C   UNL     1       8.557   7.370   3.830  0.00  0.00    +0.007 A 
ATOM     28  C   UNL     1       8.509   8.989   6.100  0.00  0.00    +0.046 A 
ATOM     29  C   UNL     1       7.806   8.544   3.832  0.00  0.00    +0.046 A 
ATOM     30  C   UNL     1       7.782   9.354   4.967  0.00  0.00    +0.120 A 
BRANCH  30   6
ATOM      6  O   UNL     1       7.050  10.502   4.971  0.00  0.00    -0.495 OA
ATOM     31  C   UNL     1       7.760  11.724   5.168  0.00  0.00    +0.277 C 
ENDBRANCH  30   6
ENDBRANCH  24  25
ENDBRANCH  23  24
ENDBRANCH  20   9
BRANCH  19  22
ATOM      4  O   UNL     1       8.550   4.111  -4.228  0.00  0.00    -0.240 OA
ATOM     22  C   UNL     1       9.314   3.173  -4.336  0.00  0.00    +0.392 C 
BRANCH  22   3
ATOM      3  O   UNL     1       9.359   2.244  -5.301  0.00  0.00    -0.474 OA
ATOM     33  H   UNL     1      10.083   1.597  -5.161  0.00  0.00    +0.296 HD
ENDBRANCH  22   3
ENDBRANCH  19  22
TORSDOF 6
ENDMDL
