MODEL 1
REMARK VINA RESULT:      -7.6      0.000      0.000
REMARK  Name = 75536686
REMARK  9 active torsions:
REMARK  status: ('A' for Active; 'I' for Inactive)
REMARK    1  A    between atoms: S_1  and  N_8
REMARK    2  A    between atoms: S_1  and  C_16
REMARK    3  A    between atoms: O_3  and  C_10
REMARK    4  A    between atoms: O_6  and  C_17
REMARK    5  A    between atoms: N_7  and  C_9
REMARK    6  A    between atoms: N_7  and  C_14
REMARK    7  A    between atoms: N_8  and  C_13
REMARK    8  A    between atoms: C_11  and  C_13
REMARK    9  A    between atoms: C_14  and  C_15
REMARK                            x       y       z     vdW  Elec       q    Type
REMARK                         _______ _______ _______ _____ _____    ______ ____
ROOT
ATOM      2  O   UNL     1      11.694   8.992  20.401  0.00  0.00    -0.371 OA
ATOM      9  C   UNL     1      12.943   7.014  19.986  0.00  0.00    +0.111 C 
ATOM     10  C   UNL     1      12.238   6.883  21.324  0.00  0.00    +0.164 C 
ATOM     11  C   UNL     1      11.133   7.919  21.176  0.00  0.00    +0.164 C 
ATOM     12  C   UNL     1      12.896   8.518  19.768  0.00  0.00    +0.181 C 
ENDROOT
BRANCH  10   3
ATOM      3  O   UNL     1      11.719   5.585  21.542  0.00  0.00    -0.388 OA
ATOM     28  H   UNL     1      11.805   5.377  22.488  0.00  0.00    +0.210 HD
ENDBRANCH  10   3
BRANCH   9   7
ATOM      7  N   UNL     1      14.296   6.484  19.986  0.00  0.00    -0.305 NA
ATOM     27  H   UNL     1      14.345   5.697  19.338  0.00  0.00    +0.123 HD
BRANCH   7  14
ATOM     14  C   UNL     1      15.257   7.499  19.567  0.00  0.00    +0.120 C 
BRANCH  14  15
ATOM     15  C   UNL     1      16.653   7.174  20.030  0.00  0.00    +0.008 A 
ATOM     17  C   UNL     1      17.360   6.110  19.470  0.00  0.00    +0.121 A 
ATOM     18  C   UNL     1      17.236   7.950  21.030  0.00  0.00    +0.008 A 
ATOM     21  C   UNL     1      18.652   5.823  19.910  0.00  0.00    +0.046 A 
ATOM     22  C   UNL     1      18.528   7.662  21.472  0.00  0.00    +0.001 A 
ATOM     23  C   UNL     1      19.236   6.599  20.912  0.00  0.00    +0.004 A 
BRANCH  17   6
ATOM      6  O   UNL     1      16.805   5.341  18.491  0.00  0.00    -0.506 OA
ATOM     30  H   UNL     1      17.477   5.155  17.814  0.00  0.00    +0.292 HD
ENDBRANCH  17   6
ENDBRANCH  14  15
ENDBRANCH   7  14
ENDBRANCH   9   7
BRANCH  11  13
ATOM     13  C   UNL     1      10.629   8.454  22.504  0.00  0.00    +0.140 C 
BRANCH  13   8
ATOM      8  N   UNL     1      10.500   9.923  22.430  0.00  0.00    -0.187 NA
ATOM     29  H   UNL     1      10.177  10.297  21.530  0.00  0.00    +0.148 HD
BRANCH   8   1
ATOM      1  S   UNL     1      11.465  10.914  23.421  0.00  0.00    +0.058 S 
ATOM      4  O   UNL     1      12.843  10.846  22.973  0.00  0.00    -0.153 OA
ATOM      5  O   UNL     1      11.137  10.655  24.810  0.00  0.00    -0.153 OA
BRANCH   1  16
ATOM     16  C   UNL     1      10.845  12.524  23.036  0.00  0.00    +0.105 A 
ATOM     19  C   UNL     1      10.988  13.036  21.748  0.00  0.00    +0.028 A 
ATOM     20  C   UNL     1      10.215  13.283  24.023  0.00  0.00    +0.028 A 
ATOM     24  C   UNL     1      10.503  14.309  21.445  0.00  0.00    +0.002 A 
ATOM     25  C   UNL     1       9.729  14.555  23.721  0.00  0.00    +0.002 A 
ATOM     26  C   UNL     1       9.873  15.067  22.431  0.00  0.00    +0.000 A 
ENDBRANCH   1  16
ENDBRANCH   8   1
ENDBRANCH  13   8
ENDBRANCH  11  13
TORSDOF 9
ENDMDL
MODEL 2
REMARK VINA RESULT:      -7.6      2.201      2.726
REMARK  Name = 75536686
REMARK  9 active torsions:
REMARK  status: ('A' for Active; 'I' for Inactive)
REMARK    1  A    between atoms: S_1  and  N_8
REMARK    2  A    between atoms: S_1  and  C_16
REMARK    3  A    between atoms: O_3  and  C_10
REMARK    4  A    between atoms: O_6  and  C_17
REMARK    5  A    between atoms: N_7  and  C_9
REMARK    6  A    between atoms: N_7  and  C_14
REMARK    7  A    between atoms: N_8  and  C_13
REMARK    8  A    between atoms: C_11  and  C_13
REMARK    9  A    between atoms: C_14  and  C_15
REMARK                            x       y       z     vdW  Elec       q    Type
REMARK                         _______ _______ _______ _____ _____    ______ ____
ROOT
ATOM      2  O   UNL     1      11.414   8.758  19.920  0.00  0.00    -0.371 OA
ATOM      9  C   UNL     1      12.777   6.824  19.713  0.00  0.00    +0.111 C 
ATOM     10  C   UNL     1      12.219   6.888  21.123  0.00  0.00    +0.164 C 
ATOM     11  C   UNL     1      11.022   7.806  20.923  0.00  0.00    +0.164 C 
ATOM     12  C   UNL     1      12.584   8.258  19.248  0.00  0.00    +0.181 C 
ENDROOT
BRANCH  10   3
ATOM      3  O   UNL     1      11.834   5.618  21.615  0.00  0.00    -0.388 OA
ATOM     28  H   UNL     1      12.468   5.352  22.303  0.00  0.00    +0.210 HD
ENDBRANCH  10   3
BRANCH   9   7
ATOM      7  N   UNL     1      14.164   6.392  19.654  0.00  0.00    -0.305 NA
ATOM     27  H   UNL     1      14.279   5.750  18.869  0.00  0.00    +0.123 HD
BRANCH   7  14
ATOM     14  C   UNL     1      15.060   7.528  19.468  0.00  0.00    +0.120 C 
BRANCH  14  15
ATOM     15  C   UNL     1      16.443   7.241  19.991  0.00  0.00    +0.008 A 
ATOM     17  C   UNL     1      17.206   6.202  19.458  0.00  0.00    +0.121 A 
ATOM     18  C   UNL     1      16.959   8.029  21.020  0.00  0.00    +0.008 A 
ATOM     21  C   UNL     1      18.485   5.950  19.955  0.00  0.00    +0.046 A 
ATOM     22  C   UNL     1      18.238   7.777  21.517  0.00  0.00    +0.001 A 
ATOM     23  C   UNL     1      19.000   6.738  20.985  0.00  0.00    +0.004 A 
BRANCH  17   6
ATOM      6  O   UNL     1      16.718   5.423  18.453  0.00  0.00    -0.506 OA
ATOM     30  H   UNL     1      16.700   4.497  18.750  0.00  0.00    +0.292 HD
ENDBRANCH  17   6
ENDBRANCH  14  15
ENDBRANCH   7  14
ENDBRANCH   9   7
BRANCH  11  13
ATOM     13  C   UNL     1      10.607   8.536  22.188  0.00  0.00    +0.140 C 
BRANCH  13   8
ATOM      8  N   UNL     1      11.795   9.134  22.828  0.00  0.00    -0.187 NA
ATOM     29  H   UNL     1      12.281   8.540  23.511  0.00  0.00    +0.148 HD
BRANCH   8   1
ATOM      1  S   UNL     1      11.913  10.824  22.996  0.00  0.00    +0.058 S 
ATOM      4  O   UNL     1      11.798  11.177  24.398  0.00  0.00    -0.153 OA
ATOM      5  O   UNL     1      11.055  11.456  22.012  0.00  0.00    -0.153 OA
BRANCH   1  16
ATOM     16  C   UNL     1      13.581  11.122  22.493  0.00  0.00    +0.105 A 
ATOM     19  C   UNL     1      13.924  11.060  21.143  0.00  0.00    +0.028 A 
ATOM     20  C   UNL     1      14.556  11.414  23.447  0.00  0.00    +0.028 A 
ATOM     24  C   UNL     1      15.242  11.291  20.746  0.00  0.00    +0.002 A 
ATOM     25  C   UNL     1      15.873  11.645  23.052  0.00  0.00    +0.002 A 
ATOM     26  C   UNL     1      16.215  11.585  21.701  0.00  0.00    +0.000 A 
ENDBRANCH   1  16
ENDBRANCH   8   1
ENDBRANCH  13   8
ENDBRANCH  11  13
TORSDOF 9
ENDMDL
MODEL 3
REMARK VINA RESULT:      -6.9      1.816      7.834
REMARK  Name = 75536686
REMARK  9 active torsions:
REMARK  status: ('A' for Active; 'I' for Inactive)
REMARK    1  A    between atoms: S_1  and  N_8
REMARK    2  A    between atoms: S_1  and  C_16
REMARK    3  A    between atoms: O_3  and  C_10
REMARK    4  A    between atoms: O_6  and  C_17
REMARK    5  A    between atoms: N_7  and  C_9
REMARK    6  A    between atoms: N_7  and  C_14
REMARK    7  A    between atoms: N_8  and  C_13
REMARK    8  A    between atoms: C_11  and  C_13
REMARK    9  A    between atoms: C_14  and  C_15
REMARK                            x       y       z     vdW  Elec       q    Type
REMARK                         _______ _______ _______ _____ _____    ______ ____
ROOT
ATOM      2  O   UNL     1      11.968   6.194  20.992  0.00  0.00    -0.371 OA
ATOM      9  C   UNL     1      10.724   8.218  21.031  0.00  0.00    +0.111 C 
ATOM     10  C   UNL     1      12.035   8.456  20.304  0.00  0.00    +0.164 C 
ATOM     11  C   UNL     1      12.418   7.035  19.917  0.00  0.00    +0.164 C 
ATOM     12  C   UNL     1      11.031   6.937  21.791  0.00  0.00    +0.181 C 
ENDROOT
BRANCH  10   3
ATOM      3  O   UNL     1      11.886   9.291  19.171  0.00  0.00    -0.388 OA
ATOM     28  H   UNL     1      11.444   8.780  18.472  0.00  0.00    +0.210 HD
ENDBRANCH  10   3
BRANCH   9   7
ATOM      7  N   UNL     1      10.332   9.313  21.903  0.00  0.00    -0.305 NA
ATOM     27  H   UNL     1       9.682   8.962  22.607  0.00  0.00    +0.123 HD
BRANCH   7  14
ATOM     14  C   UNL     1      11.491   9.888  22.577  0.00  0.00    +0.120 C 
BRANCH  14  15
ATOM     15  C   UNL     1      11.176  11.229  23.186  0.00  0.00    +0.008 A 
ATOM     17  C   UNL     1      11.082  11.380  24.569  0.00  0.00    +0.121 A 
ATOM     18  C   UNL     1      10.979  12.327  22.349  0.00  0.00    +0.008 A 
ATOM     21  C   UNL     1      10.789  12.629  25.116  0.00  0.00    +0.046 A 
ATOM     22  C   UNL     1      10.686  13.577  22.895  0.00  0.00    +0.001 A 
ATOM     23  C   UNL     1      10.592  13.728  24.279  0.00  0.00    +0.004 A 
BRANCH  17   6
ATOM      6  O   UNL     1      11.271  10.318  25.401  0.00  0.00    -0.506 OA
ATOM     30  H   UNL     1      12.155   9.944  25.243  0.00  0.00    +0.292 HD
ENDBRANCH  17   6
ENDBRANCH  14  15
ENDBRANCH   7  14
ENDBRANCH   9   7
BRANCH  11  13
ATOM     13  C   UNL     1      13.911   6.850  19.712  0.00  0.00    +0.140 C 
BRANCH  13   8
ATOM      8  N   UNL     1      14.608   8.127  19.963  0.00  0.00    -0.187 NA
ATOM     29  H   UNL     1      14.975   8.606  19.132  0.00  0.00    +0.148 HD
BRANCH   8   1
ATOM      1  S   UNL     1      15.371   8.401  21.460  0.00  0.00    +0.058 S 
ATOM      4  O   UNL     1      14.751   7.569  22.474  0.00  0.00    -0.153 OA
ATOM      5  O   UNL     1      15.500   9.831  21.669  0.00  0.00    -0.153 OA
BRANCH   1  16
ATOM     16  C   UNL     1      16.996   7.775  21.158  0.00  0.00    +0.105 A 
ATOM     19  C   UNL     1      18.108   8.456  21.651  0.00  0.00    +0.028 A 
ATOM     20  C   UNL     1      17.165   6.601  20.423  0.00  0.00    +0.028 A 
ATOM     24  C   UNL     1      19.391   7.964  21.409  0.00  0.00    +0.002 A 
ATOM     25  C   UNL     1      18.447   6.108  20.181  0.00  0.00    +0.002 A 
ATOM     26  C   UNL     1      19.560   6.790  20.676  0.00  0.00    +0.000 A 
ENDBRANCH   1  16
ENDBRANCH   8   1
ENDBRANCH  13   8
ENDBRANCH  11  13
TORSDOF 9
ENDMDL
MODEL 4
REMARK VINA RESULT:      -6.9      3.018      5.409
REMARK  Name = 75536686
REMARK  9 active torsions:
REMARK  status: ('A' for Active; 'I' for Inactive)
REMARK    1  A    between atoms: S_1  and  N_8
REMARK    2  A    between atoms: S_1  and  C_16
REMARK    3  A    between atoms: O_3  and  C_10
REMARK    4  A    between atoms: O_6  and  C_17
REMARK    5  A    between atoms: N_7  and  C_9
REMARK    6  A    between atoms: N_7  and  C_14
REMARK    7  A    between atoms: N_8  and  C_13
REMARK    8  A    between atoms: C_11  and  C_13
REMARK    9  A    between atoms: C_14  and  C_15
REMARK                            x       y       z     vdW  Elec       q    Type
REMARK                         _______ _______ _______ _____ _____    ______ ____
ROOT
ATOM      2  O   UNL     1      16.885   7.753  20.784  0.00  0.00    -0.371 OA
ATOM      9  C   UNL     1      18.508   6.299  19.840  0.00  0.00    +0.111 C 
ATOM     10  C   UNL     1      17.123   5.789  19.489  0.00  0.00    +0.164 C 
ATOM     11  C   UNL     1      16.289   7.046  19.684  0.00  0.00    +0.164 C 
ATOM     12  C   UNL     1      18.203   7.221  21.009  0.00  0.00    +0.181 C 
ENDROOT
BRANCH  10   3
ATOM      3  O   UNL     1      17.040   5.300  18.164  0.00  0.00    -0.388 OA
ATOM     28  H   UNL     1      16.492   5.913  17.646  0.00  0.00    +0.210 HD
ENDBRANCH  10   3
BRANCH   9   7
ATOM      7  N   UNL     1      19.450   5.245  20.181  0.00  0.00    -0.305 NA
ATOM     27  H   UNL     1      19.493   4.575  19.412  0.00  0.00    +0.123 HD
BRANCH   7  14
ATOM     14  C   UNL     1      20.785   5.787  20.408  0.00  0.00    +0.120 C 
BRANCH  14  15
ATOM     15  C   UNL     1      21.458   5.142  21.591  0.00  0.00    +0.008 A 
ATOM     17  C   UNL     1      21.716   3.771  21.604  0.00  0.00    +0.121 A 
ATOM     18  C   UNL     1      21.823   5.931  22.681  0.00  0.00    +0.008 A 
ATOM     21  C   UNL     1      22.340   3.190  22.707  0.00  0.00    +0.046 A 
ATOM     22  C   UNL     1      22.446   5.349  23.785  0.00  0.00    +0.001 A 
ATOM     23  C   UNL     1      22.705   3.979  23.798  0.00  0.00    +0.004 A 
BRANCH  17   6
ATOM      6  O   UNL     1      21.366   2.985  20.547  0.00  0.00    -0.506 OA
ATOM     30  H   UNL     1      21.246   2.072  20.857  0.00  0.00    +0.292 HD
ENDBRANCH  17   6
ENDBRANCH  14  15
ENDBRANCH   7  14
ENDBRANCH   9   7
BRANCH  11  13
ATOM     13  C   UNL     1      14.830   6.759  19.989  0.00  0.00    +0.140 C 
BRANCH  13   8
ATOM      8  N   UNL     1      13.970   7.634  19.169  0.00  0.00    -0.187 NA
ATOM     29  H   UNL     1      14.374   8.543  18.912  0.00  0.00    +0.148 HD
BRANCH   8   1
ATOM      1  S   UNL     1      12.276   7.499  19.268  0.00  0.00    +0.058 S 
ATOM      4  O   UNL     1      11.930   6.230  19.881  0.00  0.00    -0.153 OA
ATOM      5  O   UNL     1      11.697   7.875  17.992  0.00  0.00    -0.153 OA
BRANCH   1  16
ATOM     16  C   UNL     1      11.877   8.784  20.414  0.00  0.00    +0.105 A 
ATOM     19  C   UNL     1      11.012   8.527  21.477  0.00  0.00    +0.028 A 
ATOM     20  C   UNL     1      12.425  10.057  20.253  0.00  0.00    +0.028 A 
ATOM     24  C   UNL     1      10.693   9.543  22.379  0.00  0.00    +0.002 A 
ATOM     25  C   UNL     1      12.107  11.073  21.155  0.00  0.00    +0.002 A 
ATOM     26  C   UNL     1      11.242  10.815  22.219  0.00  0.00    +0.000 A 
ENDBRANCH   1  16
ENDBRANCH   8   1
ENDBRANCH  13   8
ENDBRANCH  11  13
TORSDOF 9
ENDMDL
MODEL 5
REMARK VINA RESULT:      -6.8     27.160     30.005
REMARK  Name = 75536686
REMARK  9 active torsions:
REMARK  status: ('A' for Active; 'I' for Inactive)
REMARK    1  A    between atoms: S_1  and  N_8
REMARK    2  A    between atoms: S_1  and  C_16
REMARK    3  A    between atoms: O_3  and  C_10
REMARK    4  A    between atoms: O_6  and  C_17
REMARK    5  A    between atoms: N_7  and  C_9
REMARK    6  A    between atoms: N_7  and  C_14
REMARK    7  A    between atoms: N_8  and  C_13
REMARK    8  A    between atoms: C_11  and  C_13
REMARK    9  A    between atoms: C_14  and  C_15
REMARK                            x       y       z     vdW  Elec       q    Type
REMARK                         _______ _______ _______ _____ _____    ______ ____
ROOT
ATOM      2  O   UNL     1     -18.146   3.914  25.560  0.00  0.00    -0.371 OA
ATOM      9  C   UNL     1     -16.669   4.865  23.961  0.00  0.00    +0.111 C 
ATOM     10  C   UNL     1     -16.341   3.393  24.122  0.00  0.00    +0.164 C 
ATOM     11  C   UNL     1     -17.640   2.866  24.715  0.00  0.00    +0.164 C 
ATOM     12  C   UNL     1     -17.465   5.137  25.227  0.00  0.00    +0.181 C 
ENDROOT
BRANCH  10   3
ATOM      3  O   UNL     1     -16.030   2.765  22.893  0.00  0.00    -0.388 OA
ATOM     28  H   UNL     1     -15.427   2.024  23.073  0.00  0.00    +0.210 HD
ENDBRANCH  10   3
BRANCH   9   7
ATOM      7  N   UNL     1     -15.495   5.714  23.838  0.00  0.00    -0.305 NA
ATOM     27  H   UNL     1     -14.667   5.126  23.746  0.00  0.00    +0.123 HD
BRANCH   7  14
ATOM     14  C   UNL     1     -15.592   6.577  22.666  0.00  0.00    +0.120 C 
BRANCH  14  15
ATOM     15  C   UNL     1     -14.244   6.826  22.040  0.00  0.00    +0.008 A 
ATOM     17  C   UNL     1     -13.395   5.764  21.732  0.00  0.00    +0.121 A 
ATOM     18  C   UNL     1     -13.851   8.136  21.770  0.00  0.00    +0.008 A 
ATOM     21  C   UNL     1     -12.150   6.012  21.154  0.00  0.00    +0.046 A 
ATOM     22  C   UNL     1     -12.605   8.384  21.192  0.00  0.00    +0.001 A 
ATOM     23  C   UNL     1     -11.755   7.322  20.884  0.00  0.00    +0.004 A 
BRANCH  17   6
ATOM      6  O   UNL     1     -13.764   4.477  21.990  0.00  0.00    -0.506 OA
ATOM     30  H   UNL     1     -13.229   3.878  21.443  0.00  0.00    +0.292 HD
ENDBRANCH  17   6
ENDBRANCH  14  15
ENDBRANCH   7  14
ENDBRANCH   9   7
BRANCH  11  13
ATOM     13  C   UNL     1     -17.459   1.595  25.526  0.00  0.00    +0.140 C 
BRANCH  13   8
ATOM      8  N   UNL     1     -16.626   1.878  26.711  0.00  0.00    -0.187 NA
ATOM     29  H   UNL     1     -15.611   1.811  26.569  0.00  0.00    +0.148 HD
BRANCH   8   1
ATOM      1  S   UNL     1     -17.245   1.606  28.273  0.00  0.00    +0.058 S 
ATOM      4  O   UNL     1     -17.677   0.225  28.384  0.00  0.00    -0.153 OA
ATOM      5  O   UNL     1     -18.154   2.684  28.614  0.00  0.00    -0.153 OA
BRANCH   1  16
ATOM     16  C   UNL     1     -15.803   1.809  29.274  0.00  0.00    +0.105 A 
ATOM     19  C   UNL     1     -15.009   0.705  29.584  0.00  0.00    +0.028 A 
ATOM     20  C   UNL     1     -15.462   3.072  29.758  0.00  0.00    +0.028 A 
ATOM     24  C   UNL     1     -13.873   0.865  30.379  0.00  0.00    +0.002 A 
ATOM     25  C   UNL     1     -14.327   3.232  30.552  0.00  0.00    +0.002 A 
ATOM     26  C   UNL     1     -13.532   2.128  30.861  0.00  0.00    +0.000 A 
ENDBRANCH   1  16
ENDBRANCH   8   1
ENDBRANCH  13   8
ENDBRANCH  11  13
TORSDOF 9
ENDMDL
MODEL 6
REMARK VINA RESULT:      -6.8      3.073      5.219
REMARK  Name = 75536686
REMARK  9 active torsions:
REMARK  status: ('A' for Active; 'I' for Inactive)
REMARK    1  A    between atoms: S_1  and  N_8
REMARK    2  A    between atoms: S_1  and  C_16
REMARK    3  A    between atoms: O_3  and  C_10
REMARK    4  A    between atoms: O_6  and  C_17
REMARK    5  A    between atoms: N_7  and  C_9
REMARK    6  A    between atoms: N_7  and  C_14
REMARK    7  A    between atoms: N_8  and  C_13
REMARK    8  A    between atoms: C_11  and  C_13
REMARK    9  A    between atoms: C_14  and  C_15
REMARK                            x       y       z     vdW  Elec       q    Type
REMARK                         _______ _______ _______ _____ _____    ______ ____
ROOT
ATOM      2  O   UNL     1      16.417   6.021  18.710  0.00  0.00    -0.371 OA
ATOM      9  C   UNL     1      17.455   6.320  20.825  0.00  0.00    +0.111 C 
ATOM     10  C   UNL     1      16.371   7.368  20.653  0.00  0.00    +0.164 C 
ATOM     11  C   UNL     1      15.511   6.726  19.575  0.00  0.00    +0.164 C 
ATOM     12  C   UNL     1      17.678   5.879  19.387  0.00  0.00    +0.181 C 
ENDROOT
BRANCH  10   3
ATOM      3  O   UNL     1      15.642   7.598  21.843  0.00  0.00    -0.388 OA
ATOM     28  H   UNL     1      16.195   7.333  22.597  0.00  0.00    +0.210 HD
ENDBRANCH  10   3
BRANCH   9   7
ATOM      7  N   UNL     1      18.663   6.827  21.455  0.00  0.00    -0.305 NA
ATOM     27  H   UNL     1      18.778   6.380  22.364  0.00  0.00    +0.123 HD
BRANCH   7  14
ATOM     14  C   UNL     1      19.839   6.544  20.640  0.00  0.00    +0.120 C 
BRANCH  14  15
ATOM     15  C   UNL     1      20.731   5.514  21.282  0.00  0.00    +0.008 A 
ATOM     17  C   UNL     1      21.367   5.779  22.495  0.00  0.00    +0.121 A 
ATOM     18  C   UNL     1      20.918   4.286  20.649  0.00  0.00    +0.008 A 
ATOM     21  C   UNL     1      22.190   4.815  23.075  0.00  0.00    +0.046 A 
ATOM     22  C   UNL     1      21.742   3.321  21.230  0.00  0.00    +0.001 A 
ATOM     23  C   UNL     1      22.378   3.586  22.443  0.00  0.00    +0.004 A 
BRANCH  17   6
ATOM      6  O   UNL     1      21.195   6.974  23.126  0.00  0.00    -0.506 OA
ATOM     30  H   UNL     1      20.274   7.043  23.430  0.00  0.00    +0.292 HD
ENDBRANCH  17   6
ENDBRANCH  14  15
ENDBRANCH   7  14
ENDBRANCH   9   7
BRANCH  11  13
ATOM     13  C   UNL     1      14.709   7.732  18.768  0.00  0.00    +0.140 C 
BRANCH  13   8
ATOM      8  N   UNL     1      13.271   7.410  18.863  0.00  0.00    -0.187 NA
ATOM     29  H   UNL     1      13.021   6.430  18.686  0.00  0.00    +0.148 HD
BRANCH   8   1
ATOM      1  S   UNL     1      12.107   8.613  18.553  0.00  0.00    +0.058 S 
ATOM      4  O   UNL     1      10.964   8.015  17.889  0.00  0.00    -0.153 OA
ATOM      5  O   UNL     1      12.765   9.768  17.973  0.00  0.00    -0.153 OA
BRANCH   1  16
ATOM     16  C   UNL     1      11.613   9.067  20.188  0.00  0.00    +0.105 A 
ATOM     19  C   UNL     1      10.891   8.169  20.973  0.00  0.00    +0.028 A 
ATOM     20  C   UNL     1      11.940  10.326  20.691  0.00  0.00    +0.028 A 
ATOM     24  C   UNL     1      10.497   8.529  22.262  0.00  0.00    +0.002 A 
ATOM     25  C   UNL     1      11.547  10.687  21.979  0.00  0.00    +0.002 A 
ATOM     26  C   UNL     1      10.826   9.788  22.765  0.00  0.00    +0.000 A 
ENDBRANCH   1  16
ENDBRANCH   8   1
ENDBRANCH  13   8
ENDBRANCH  11  13
TORSDOF 9
ENDMDL
MODEL 7
REMARK VINA RESULT:      -6.6     27.969     29.924
REMARK  Name = 75536686
REMARK  9 active torsions:
REMARK  status: ('A' for Active; 'I' for Inactive)
REMARK    1  A    between atoms: S_1  and  N_8
REMARK    2  A    between atoms: S_1  and  C_16
REMARK    3  A    between atoms: O_3  and  C_10
REMARK    4  A    between atoms: O_6  and  C_17
REMARK    5  A    between atoms: N_7  and  C_9
REMARK    6  A    between atoms: N_7  and  C_14
REMARK    7  A    between atoms: N_8  and  C_13
REMARK    8  A    between atoms: C_11  and  C_13
REMARK    9  A    between atoms: C_14  and  C_15
REMARK                            x       y       z     vdW  Elec       q    Type
REMARK                         _______ _______ _______ _____ _____    ______ ____
ROOT
ATOM      2  O   UNL     1     -12.372  -8.722  15.716  0.00  0.00    -0.371 OA
ATOM      9  C   UNL     1     -10.628  -7.915  17.113  0.00  0.00    +0.111 C 
ATOM     10  C   UNL     1     -10.776  -6.989  15.920  0.00  0.00    +0.164 C 
ATOM     11  C   UNL     1     -12.190  -7.318  15.466  0.00  0.00    +0.164 C 
ATOM     12  C   UNL     1     -11.338  -9.163  16.614  0.00  0.00    +0.181 C 
ENDROOT
BRANCH  10   3
ATOM      3  O   UNL     1     -10.637  -5.625  16.268  0.00  0.00    -0.388 OA
ATOM     28  H   UNL     1      -9.731  -5.345  16.053  0.00  0.00    +0.210 HD
ENDBRANCH  10   3
BRANCH   9   7
ATOM      7  N   UNL     1      -9.247  -8.164  17.492  0.00  0.00    -0.305 NA
ATOM     27  H   UNL     1      -9.225  -8.548  18.437  0.00  0.00    +0.123 HD
BRANCH   7  14
ATOM     14  C   UNL     1      -8.616  -9.113  16.583  0.00  0.00    +0.120 C 
BRANCH  14  15
ATOM     15  C   UNL     1      -7.343  -9.678  17.158  0.00  0.00    +0.008 A 
ATOM     17  C   UNL     1      -7.327 -10.250  18.430  0.00  0.00    +0.121 A 
ATOM     18  C   UNL     1      -6.172  -9.623  16.403  0.00  0.00    +0.008 A 
ATOM     21  C   UNL     1      -6.140 -10.767  18.947  0.00  0.00    +0.046 A 
ATOM     22  C   UNL     1      -4.984 -10.140  16.920  0.00  0.00    +0.001 A 
ATOM     23  C   UNL     1      -4.968 -10.712  18.192  0.00  0.00    +0.004 A 
BRANCH  17   6
ATOM      6  O   UNL     1      -8.462 -10.311  19.181  0.00  0.00    -0.506 OA
ATOM     30  H   UNL     1      -8.615  -9.445  19.596  0.00  0.00    +0.292 HD
ENDBRANCH  17   6
ENDBRANCH  14  15
ENDBRANCH   7  14
ENDBRANCH   9   7
BRANCH  11  13
ATOM     13  C   UNL     1     -12.434  -7.024  13.996  0.00  0.00    +0.140 C 
BRANCH  13   8
ATOM      8  N   UNL     1     -12.294  -5.575  13.751  0.00  0.00    -0.187 NA
ATOM     29  H   UNL     1     -11.902  -5.027  14.527  0.00  0.00    +0.148 HD
BRANCH   8   1
ATOM      1  S   UNL     1     -13.329  -4.794  12.649  0.00  0.00    +0.058 S 
ATOM      4  O   UNL     1     -13.565  -3.433  13.093  0.00  0.00    -0.153 OA
ATOM      5  O   UNL     1     -14.448  -5.668  12.351  0.00  0.00    -0.153 OA
BRANCH   1  16
ATOM     16  C   UNL     1     -12.325  -4.727  11.196  0.00  0.00    +0.105 A 
ATOM     19  C   UNL     1     -11.903  -3.496  10.696  0.00  0.00    +0.028 A 
ATOM     20  C   UNL     1     -11.958  -5.906  10.546  0.00  0.00    +0.028 A 
ATOM     24  C   UNL     1     -11.114  -3.442   9.546  0.00  0.00    +0.002 A 
ATOM     25  C   UNL     1     -11.170  -5.854   9.397  0.00  0.00    +0.002 A 
ATOM     26  C   UNL     1     -10.747  -4.621   8.898  0.00  0.00    +0.000 A 
ENDBRANCH   1  16
ENDBRANCH   8   1
ENDBRANCH  13   8
ENDBRANCH  11  13
TORSDOF 9
ENDMDL
MODEL 8
REMARK VINA RESULT:      -6.5     16.634     18.352
REMARK  Name = 75536686
REMARK  9 active torsions:
REMARK  status: ('A' for Active; 'I' for Inactive)
REMARK    1  A    between atoms: S_1  and  N_8
REMARK    2  A    between atoms: S_1  and  C_16
REMARK    3  A    between atoms: O_3  and  C_10
REMARK    4  A    between atoms: O_6  and  C_17
REMARK    5  A    between atoms: N_7  and  C_9
REMARK    6  A    between atoms: N_7  and  C_14
REMARK    7  A    between atoms: N_8  and  C_13
REMARK    8  A    between atoms: C_11  and  C_13
REMARK    9  A    between atoms: C_14  and  C_15
REMARK                            x       y       z     vdW  Elec       q    Type
REMARK                         _______ _______ _______ _____ _____    ______ ____
ROOT
ATOM      2  O   UNL     1      10.143   6.853   2.308  0.00  0.00    -0.371 OA
ATOM      9  C   UNL     1      11.258   4.773   2.579  0.00  0.00    +0.111 C 
ATOM     10  C   UNL     1      10.865   5.306   3.944  0.00  0.00    +0.164 C 
ATOM     11  C   UNL     1       9.761   6.284   3.571  0.00  0.00    +0.164 C 
ATOM     12  C   UNL     1      11.172   6.031   1.729  0.00  0.00    +0.181 C 
ENDROOT
BRANCH  10   3
ATOM      3  O   UNL     1      10.400   4.290   4.813  0.00  0.00    -0.388 OA
ATOM     28  H   UNL     1      10.211   4.692   5.678  0.00  0.00    +0.210 HD
ENDBRANCH  10   3
BRANCH   9   7
ATOM      7  N   UNL     1      12.575   4.159   2.549  0.00  0.00    -0.305 NA
ATOM     27  H   UNL     1      12.728   3.655   3.423  0.00  0.00    +0.123 HD
BRANCH   7  14
ATOM     14  C   UNL     1      12.692   3.221   1.438  0.00  0.00    +0.120 C 
BRANCH  14  15
ATOM     15  C   UNL     1      13.802   3.605   0.495  0.00  0.00    +0.008 A 
ATOM     17  C   UNL     1      15.129   3.620   0.923  0.00  0.00    +0.121 A 
ATOM     18  C   UNL     1      13.489   3.949  -0.820  0.00  0.00    +0.008 A 
ATOM     21  C   UNL     1      16.144   3.978   0.037  0.00  0.00    +0.046 A 
ATOM     22  C   UNL     1      14.505   4.308  -1.707  0.00  0.00    +0.001 A 
ATOM     23  C   UNL     1      15.832   4.323  -1.278  0.00  0.00    +0.004 A 
BRANCH  17   6
ATOM      6  O   UNL     1      15.452   3.287   2.205  0.00  0.00    -0.506 OA
ATOM     30  H   UNL     1      15.441   4.089   2.753  0.00  0.00    +0.292 HD
ENDBRANCH  17   6
ENDBRANCH  14  15
ENDBRANCH   7  14
ENDBRANCH   9   7
BRANCH  11  13
ATOM     13  C   UNL     1       9.566   7.389   4.594  0.00  0.00    +0.140 C 
BRANCH  13   8
ATOM      8  N   UNL     1       8.687   6.911   5.679  0.00  0.00    -0.187 NA
ATOM     29  H   UNL     1       7.691   7.143   5.581  0.00  0.00    +0.148 HD
BRANCH   8   1
ATOM      1  S   UNL     1       9.314   6.678   7.244  0.00  0.00    +0.058 S 
ATOM      4  O   UNL     1       9.527   5.261   7.469  0.00  0.00    -0.153 OA
ATOM      5  O   UNL     1       8.533   7.457   8.186  0.00  0.00    -0.153 OA
BRANCH   1  16
ATOM     16  C   UNL     1      10.897   7.455   7.118  0.00  0.00    +0.105 A 
ATOM     19  C   UNL     1      12.044   6.678   6.963  0.00  0.00    +0.028 A 
ATOM     20  C   UNL     1      10.998   8.845   7.178  0.00  0.00    +0.028 A 
ATOM     24  C   UNL     1      13.294   7.290   6.869  0.00  0.00    +0.002 A 
ATOM     25  C   UNL     1      12.247   9.458   7.084  0.00  0.00    +0.002 A 
ATOM     26  C   UNL     1      13.395   8.680   6.928  0.00  0.00    +0.000 A 
ENDBRANCH   1  16
ENDBRANCH   8   1
ENDBRANCH  13   8
ENDBRANCH  11  13
TORSDOF 9
ENDMDL
MODEL 9
REMARK VINA RESULT:      -6.3     16.338     19.112
REMARK  Name = 75536686
REMARK  9 active torsions:
REMARK  status: ('A' for Active; 'I' for Inactive)
REMARK    1  A    between atoms: S_1  and  N_8
REMARK    2  A    between atoms: S_1  and  C_16
REMARK    3  A    between atoms: O_3  and  C_10
REMARK    4  A    between atoms: O_6  and  C_17
REMARK    5  A    between atoms: N_7  and  C_9
REMARK    6  A    between atoms: N_7  and  C_14
REMARK    7  A    between atoms: N_8  and  C_13
REMARK    8  A    between atoms: C_11  and  C_13
REMARK    9  A    between atoms: C_14  and  C_15
REMARK                            x       y       z     vdW  Elec       q    Type
REMARK                         _______ _______ _______ _____ _____    ______ ____
ROOT
ATOM      2  O   UNL     1      15.067   9.598   4.802  0.00  0.00    -0.371 OA
ATOM      9  C   UNL     1      14.875   7.516   5.929  0.00  0.00    +0.111 C 
ATOM     10  C   UNL     1      14.773   7.281   4.433  0.00  0.00    +0.164 C 
ATOM     11  C   UNL     1      15.425   8.544   3.892  0.00  0.00    +0.164 C 
ATOM     12  C   UNL     1      14.583   9.005   6.020  0.00  0.00    +0.181 C 
ENDROOT
BRANCH  10   3
ATOM      3  O   UNL     1      15.457   6.114   4.016  0.00  0.00    -0.388 OA
ATOM     28  H   UNL     1      14.927   5.340   4.276  0.00  0.00    +0.210 HD
ENDBRANCH  10   3
BRANCH   9   7
ATOM      7  N   UNL     1      13.953   6.709   6.711  0.00  0.00    -0.305 NA
ATOM     27  H   UNL     1      14.387   6.482   7.606  0.00  0.00    +0.123 HD
BRANCH   7  14
ATOM     14  C   UNL     1      12.708   7.427   6.960  0.00  0.00    +0.120 C 
BRANCH  14  15
ATOM     15  C   UNL     1      11.534   6.762   6.291  0.00  0.00    +0.008 A 
ATOM     17  C   UNL     1      10.865   5.707   6.911  0.00  0.00    +0.121 A 
ATOM     18  C   UNL     1      11.118   7.213   5.039  0.00  0.00    +0.008 A 
ATOM     21  C   UNL     1       9.780   5.101   6.277  0.00  0.00    +0.046 A 
ATOM     22  C   UNL     1      10.033   6.608   4.405  0.00  0.00    +0.001 A 
ATOM     23  C   UNL     1       9.364   5.552   5.024  0.00  0.00    +0.004 A 
BRANCH  17   6
ATOM      6  O   UNL     1      11.259   5.253   8.134  0.00  0.00    -0.506 OA
ATOM     30  H   UNL     1      10.480   5.185   8.713  0.00  0.00    +0.292 HD
ENDBRANCH  17   6
ENDBRANCH  14  15
ENDBRANCH   7  14
ENDBRANCH   9   7
BRANCH  11  13
ATOM     13  C   UNL     1      14.970   8.902   2.489  0.00  0.00    +0.140 C 
BRANCH  13   8
ATOM      8  N   UNL     1      13.804   8.075   2.119  0.00  0.00    -0.187 NA
ATOM     29  H   UNL     1      13.132   7.890   2.874  0.00  0.00    +0.148 HD
BRANCH   8   1
ATOM      1  S   UNL     1      13.926   6.951   0.848  0.00  0.00    +0.058 S 
ATOM      4  O   UNL     1      15.152   6.190   0.995  0.00  0.00    -0.153 OA
ATOM      5  O   UNL     1      13.630   7.621  -0.404  0.00  0.00    -0.153 OA
BRANCH   1  16
ATOM     16  C   UNL     1      12.569   5.870   1.189  0.00  0.00    +0.105 A 
ATOM     19  C   UNL     1      11.327   6.104   0.600  0.00  0.00    +0.028 A 
ATOM     20  C   UNL     1      12.740   4.786   2.050  0.00  0.00    +0.028 A 
ATOM     24  C   UNL     1      10.255   5.254   0.873  0.00  0.00    +0.002 A 
ATOM     25  C   UNL     1      11.670   3.936   2.323  0.00  0.00    +0.002 A 
ATOM     26  C   UNL     1      10.427   4.169   1.733  0.00  0.00    +0.000 A 
ENDBRANCH   1  16
ENDBRANCH   8   1
ENDBRANCH  13   8
ENDBRANCH  11  13
TORSDOF 9
ENDMDL
MODEL 10
REMARK VINA RESULT:      -6.2     26.690     29.001
REMARK  Name = 75536686
REMARK  9 active torsions:
REMARK  status: ('A' for Active; 'I' for Inactive)
REMARK    1  A    between atoms: S_1  and  N_8
REMARK    2  A    between atoms: S_1  and  C_16
REMARK    3  A    between atoms: O_3  and  C_10
REMARK    4  A    between atoms: O_6  and  C_17
REMARK    5  A    between atoms: N_7  and  C_9
REMARK    6  A    between atoms: N_7  and  C_14
REMARK    7  A    between atoms: N_8  and  C_13
REMARK    8  A    between atoms: C_11  and  C_13
REMARK    9  A    between atoms: C_14  and  C_15
REMARK                            x       y       z     vdW  Elec       q    Type
REMARK                         _______ _______ _______ _____ _____    ______ ____
ROOT
ATOM      2  O   UNL     1      -3.753 -11.731  18.387  0.00  0.00    -0.371 OA
ATOM      9  C   UNL     1      -6.052 -11.287  17.984  0.00  0.00    +0.111 C 
ATOM     10  C   UNL     1      -5.227 -10.692  16.857  0.00  0.00    +0.164 C 
ATOM     11  C   UNL     1      -3.939 -11.491  16.982  0.00  0.00    +0.164 C 
ATOM     12  C   UNL     1      -4.997 -11.473  19.062  0.00  0.00    +0.181 C 
ENDROOT
BRANCH  10   3
ATOM      3  O   UNL     1      -5.833 -10.860  15.590  0.00  0.00    -0.388 OA
ATOM     28  H   UNL     1      -5.501 -11.688  15.201  0.00  0.00    +0.210 HD
ENDBRANCH  10   3
BRANCH   9   7
ATOM      7  N   UNL     1      -7.155 -10.442  18.410  0.00  0.00    -0.305 NA
ATOM     27  H   UNL     1      -7.026  -9.507  18.023  0.00  0.00    +0.123 HD
BRANCH   7  14
ATOM     14  C   UNL     1      -8.432 -10.972  17.947  0.00  0.00    +0.120 C 
BRANCH  14  15
ATOM     15  C   UNL     1      -9.404  -9.873  17.605  0.00  0.00    +0.008 A 
ATOM     17  C   UNL     1      -9.057  -8.870  16.700  0.00  0.00    +0.121 A 
ATOM     18  C   UNL     1     -10.662  -9.867  18.206  0.00  0.00    +0.008 A 
ATOM     21  C   UNL     1      -9.969  -7.860  16.396  0.00  0.00    +0.046 A 
ATOM     22  C   UNL     1     -11.575  -8.856  17.902  0.00  0.00    +0.001 A 
ATOM     23  C   UNL     1     -11.228  -7.853  16.997  0.00  0.00    +0.004 A 
BRANCH  17   6
ATOM      6  O   UNL     1      -7.831  -8.862  16.105  0.00  0.00    -0.506 OA
ATOM     30  H   UNL     1      -7.470  -7.959  16.135  0.00  0.00    +0.292 HD
ENDBRANCH  17   6
ENDBRANCH  14  15
ENDBRANCH   7  14
ENDBRANCH   9   7
BRANCH  11  13
ATOM     13  C   UNL     1      -2.727 -10.770  16.420  0.00  0.00    +0.140 C 
BRANCH  13   8
ATOM      8  N   UNL     1      -2.963 -10.432  15.003  0.00  0.00    -0.187 NA
ATOM     29  H   UNL     1      -3.560  -9.614  14.833  0.00  0.00    +0.148 HD
BRANCH   8   1
ATOM      1  S   UNL     1      -2.898 -11.649  13.815  0.00  0.00    +0.058 S 
ATOM      4  O   UNL     1      -4.070 -12.497  13.932  0.00  0.00    -0.153 OA
ATOM      5  O   UNL     1      -1.572 -12.235  13.812  0.00  0.00    -0.153 OA
BRANCH   1  16
ATOM     16  C   UNL     1      -3.052 -10.710  12.326  0.00  0.00    +0.105 A 
ATOM     19  C   UNL     1      -1.959  -9.996  11.836  0.00  0.00    +0.028 A 
ATOM     20  C   UNL     1      -4.268 -10.680  11.642  0.00  0.00    +0.028 A 
ATOM     24  C   UNL     1      -2.081  -9.251  10.663  0.00  0.00    +0.002 A 
ATOM     25  C   UNL     1      -4.390  -9.936  10.469  0.00  0.00    +0.002 A 
ATOM     26  C   UNL     1      -3.296  -9.222   9.979  0.00  0.00    +0.000 A 
ENDBRANCH   1  16
ENDBRANCH   8   1
ENDBRANCH  13   8
ENDBRANCH  11  13
TORSDOF 9
ENDMDL
