MODEL 1
REMARK VINA RESULT:      -5.9      0.000      0.000
REMARK  Name = 11912453
REMARK  8 active torsions:
REMARK  status: ('A' for Active; 'I' for Inactive)
REMARK    1  A    between atoms: N_4  and  C_17
REMARK    2  A    between atoms: N_4  and  C_18
REMARK    3  A    between atoms: N_5  and  C_19
REMARK    4  A    between atoms: C_7  and  C_13
REMARK    5  A    between atoms: C_8  and  C_12
REMARK    6  A    between atoms: C_12  and  C_14
REMARK    7  A    between atoms: C_13  and  C_15
REMARK    8  A    between atoms: C_17  and  C_22
REMARK                            x       y       z     vdW  Elec       q    Type
REMARK                         _______ _______ _______ _____ _____    ______ ____
ROOT
ATOM      2  O   UNL     1       9.188   7.002   3.880  0.00  0.00    -0.252 OA
ATOM      3  N   UNL     1      10.740   5.825   2.630  0.00  0.00    -0.285 N 
ATOM      5  N   UNL     1      10.890   5.880   4.987  0.00  0.00    -0.269 N 
ATOM      7  C   UNL     1      11.183   4.244   0.191  0.00  0.00    +0.004 C 
ATOM      8  C   UNL     1      11.802   3.841   1.550  0.00  0.00    +0.010 C 
ATOM      9  C   UNL     1       9.885   5.027   0.445  0.00  0.00    +0.023 C 
ATOM     10  C   UNL     1      11.983   5.046   2.489  0.00  0.00    +0.113 C 
ATOM     11  C   UNL     1      10.100   6.217   1.372  0.00  0.00    +0.109 C 
ATOM     16  C   UNL     1      10.190   6.283   3.850  0.00  0.00    +0.306 C 
ATOM     26  H   UNL     1      11.885   5.702   4.902  0.00  0.00    +0.156 HD
ENDROOT
BRANCH   5  19
ATOM     19  C   UNL     1      10.382   5.742   6.302  0.00  0.00    +0.035 A 
ATOM     20  C   UNL     1      10.140   4.472   6.820  0.00  0.00    +0.023 A 
ATOM     21  C   UNL     1      10.131   6.875   7.070  0.00  0.00    +0.023 A 
ATOM     23  C   UNL     1       9.640   4.335   8.115  0.00  0.00    +0.002 A 
ATOM     24  C   UNL     1       9.631   6.738   8.365  0.00  0.00    +0.002 A 
ATOM     25  C   UNL     1       9.387   5.469   8.888  0.00  0.00    +0.000 A 
ENDBRANCH   5  19
BRANCH   8  12
ATOM     12  C   UNL     1      13.115   3.073   1.403  0.00  0.00    +0.002 C 
ATOM     14  C   UNL     1      14.298   3.933   1.798  0.00  0.00    +0.004 C 
ENDBRANCH   8  12
BRANCH   7  13
ATOM     13  C   UNL     1      12.135   5.027  -0.719  0.00  0.00    +0.100 C 
BRANCH  13  15
ATOM      1  O   UNL     1      11.105   6.581  -2.227  0.00  0.00    -0.276 OA
ATOM      4  N   UNL     1      11.350   4.401  -2.980  0.00  0.00    -0.291 N 
ATOM     15  C   UNL     1      11.484   5.422  -2.034  0.00  0.00    +0.216 C 
ATOM     18  C   UNL     1      10.747   4.622  -4.289  0.00  0.00    +0.133 C 
BRANCH   4  17
ATOM     17  C   UNL     1      11.806   3.036  -2.730  0.00  0.00    +0.226 C 
BRANCH  17  22
ATOM      6  N   UNL     1       9.808   1.343  -2.853  0.00  0.00    -0.195 NA
ATOM     22  C   UNL     1      10.692   2.093  -2.797  0.00  0.00    +0.082 C 
ENDBRANCH  17  22
ENDBRANCH   4  17
ENDBRANCH  13  15
ENDBRANCH   7  13
TORSDOF 6
ENDMDL
MODEL 2
REMARK VINA RESULT:      -5.8     22.743     25.053
REMARK  Name = 11912453
REMARK  8 active torsions:
REMARK  status: ('A' for Active; 'I' for Inactive)
REMARK    1  A    between atoms: N_4  and  C_17
REMARK    2  A    between atoms: N_4  and  C_18
REMARK    3  A    between atoms: N_5  and  C_19
REMARK    4  A    between atoms: C_7  and  C_13
REMARK    5  A    between atoms: C_8  and  C_12
REMARK    6  A    between atoms: C_12  and  C_14
REMARK    7  A    between atoms: C_13  and  C_15
REMARK    8  A    between atoms: C_17  and  C_22
REMARK                            x       y       z     vdW  Elec       q    Type
REMARK                         _______ _______ _______ _____ _____    ______ ____
ROOT
ATOM      2  O   UNL     1      -8.160 -10.828  14.841  0.00  0.00    -0.252 OA
ATOM      3  N   UNL     1      -7.261  -9.753  12.999  0.00  0.00    -0.285 N 
ATOM      5  N   UNL     1      -6.182  -9.644  15.097  0.00  0.00    -0.269 N 
ATOM      7  C   UNL     1      -6.922  -9.832  10.079  0.00  0.00    +0.004 C 
ATOM      8  C   UNL     1      -5.769  -9.421  11.025  0.00  0.00    +0.010 C 
ATOM      9  C   UNL     1      -7.868 -10.783  10.828  0.00  0.00    +0.023 C 
ATOM     10  C   UNL     1      -6.283  -8.854  12.359  0.00  0.00    +0.113 C 
ATOM     11  C   UNL     1      -8.365 -10.190  12.141  0.00  0.00    +0.109 C 
ATOM     16  C   UNL     1      -7.258 -10.137  14.360  0.00  0.00    +0.306 C 
ATOM     26  H   UNL     1      -5.757  -8.771  14.805  0.00  0.00    +0.156 HD
ENDROOT
BRANCH   5  19
ATOM     19  C   UNL     1      -5.627 -10.197  16.278  0.00  0.00    +0.035 A 
ATOM     20  C   UNL     1      -6.342 -10.137  17.471  0.00  0.00    +0.023 A 
ATOM     21  C   UNL     1      -4.373 -10.798  16.238  0.00  0.00    +0.023 A 
ATOM     23  C   UNL     1      -5.797 -10.681  18.634  0.00  0.00    +0.002 A 
ATOM     24  C   UNL     1      -3.828 -11.342  17.401  0.00  0.00    +0.002 A 
ATOM     25  C   UNL     1      -4.539 -11.285  18.598  0.00  0.00    +0.000 A 
ENDBRANCH   5  19
BRANCH   8  12
ATOM     12  C   UNL     1      -4.782  -8.452  10.375  0.00  0.00    +0.002 C 
ATOM     14  C   UNL     1      -3.670  -9.198   9.667  0.00  0.00    +0.004 C 
ENDBRANCH   8  12
BRANCH   7  13
ATOM     13  C   UNL     1      -7.686  -8.648   9.477  0.00  0.00    +0.100 C 
BRANCH  13  15
ATOM      1  O   UNL     1      -7.668  -9.833   7.392  0.00  0.00    -0.276 OA
ATOM      4  N   UNL     1      -8.099  -7.555   7.296  0.00  0.00    -0.291 N 
ATOM     15  C   UNL     1      -7.813  -8.750   7.966  0.00  0.00    +0.216 C 
ATOM     18  C   UNL     1      -8.252  -7.489   5.848  0.00  0.00    +0.133 C 
BRANCH   4  17
ATOM     17  C   UNL     1      -8.267  -6.284   7.996  0.00  0.00    +0.226 C 
BRANCH  17  22
ATOM      6  N   UNL     1     -10.787  -5.563   8.031  0.00  0.00    -0.195 NA
ATOM     22  C   UNL     1      -9.671  -5.882   8.017  0.00  0.00    +0.082 C 
ENDBRANCH  17  22
ENDBRANCH   4  17
ENDBRANCH  13  15
ENDBRANCH   7  13
TORSDOF 6
ENDMDL
MODEL 3
REMARK VINA RESULT:      -5.7     23.892     27.458
REMARK  Name = 11912453
REMARK  8 active torsions:
REMARK  status: ('A' for Active; 'I' for Inactive)
REMARK    1  A    between atoms: N_4  and  C_17
REMARK    2  A    between atoms: N_4  and  C_18
REMARK    3  A    between atoms: N_5  and  C_19
REMARK    4  A    between atoms: C_7  and  C_13
REMARK    5  A    between atoms: C_8  and  C_12
REMARK    6  A    between atoms: C_12  and  C_14
REMARK    7  A    between atoms: C_13  and  C_15
REMARK    8  A    between atoms: C_17  and  C_22
REMARK                            x       y       z     vdW  Elec       q    Type
REMARK                         _______ _______ _______ _____ _____    ______ ____
ROOT
ATOM      2  O   UNL     1      -7.198 -10.497  12.814  0.00  0.00    -0.252 OA
ATOM      3  N   UNL     1      -5.722 -10.917  14.548  0.00  0.00    -0.285 N 
ATOM      5  N   UNL     1      -5.002 -11.040  12.301  0.00  0.00    -0.269 N 
ATOM      7  C   UNL     1      -4.987 -10.247  17.315  0.00  0.00    +0.004 C 
ATOM      8  C   UNL     1      -3.923 -10.437  16.210  0.00  0.00    +0.010 C 
ATOM      9  C   UNL     1      -6.299  -9.774  16.669  0.00  0.00    +0.023 C 
ATOM     10  C   UNL     1      -4.416 -11.351  15.074  0.00  0.00    +0.113 C 
ATOM     11  C   UNL     1      -6.764 -10.703  15.554  0.00  0.00    +0.109 C 
ATOM     16  C   UNL     1      -6.055 -10.786  13.179  0.00  0.00    +0.306 C 
ATOM     26  H   UNL     1      -4.271 -11.678  12.597  0.00  0.00    +0.156 HD
ENDROOT
BRANCH   5  19
ATOM     19  C   UNL     1      -4.850 -10.551  10.981  0.00  0.00    +0.035 A 
ATOM     20  C   UNL     1      -4.416  -9.244  10.773  0.00  0.00    +0.023 A 
ATOM     21  C   UNL     1      -5.132 -11.379   9.898  0.00  0.00    +0.023 A 
ATOM     23  C   UNL     1      -4.266  -8.761   9.474  0.00  0.00    +0.002 A 
ATOM     24  C   UNL     1      -4.981 -10.896   8.598  0.00  0.00    +0.002 A 
ATOM     25  C   UNL     1      -4.548  -9.588   8.386  0.00  0.00    +0.000 A 
ENDBRANCH   5  19
BRANCH   8  12
ATOM     12  C   UNL     1      -2.582 -10.932  16.752  0.00  0.00    +0.002 C 
ATOM     14  C   UNL     1      -1.442 -10.532  15.838  0.00  0.00    +0.004 C 
ENDBRANCH   8  12
BRANCH   7  13
ATOM     13  C   UNL     1      -5.213 -11.490  18.183  0.00  0.00    +0.100 C 
BRANCH  13  15
ATOM      1  O   UNL     1      -6.396 -10.420  19.973  0.00  0.00    -0.276 OA
ATOM      4  N   UNL     1      -7.424 -12.253  18.991  0.00  0.00    -0.291 N 
ATOM     15  C   UNL     1      -6.386 -11.325  19.134  0.00  0.00    +0.216 C 
ATOM     18  C   UNL     1      -8.617 -12.226  19.827  0.00  0.00    +0.133 C 
BRANCH   4  17
ATOM     17  C   UNL     1      -7.390 -13.317  17.990  0.00  0.00    +0.226 C 
BRANCH  17  22
ATOM      6  N   UNL     1      -9.613 -13.362  16.600  0.00  0.00    -0.195 NA
ATOM     22  C   UNL     1      -8.628 -13.342  17.214  0.00  0.00    +0.082 C 
ENDBRANCH  17  22
ENDBRANCH   4  17
ENDBRANCH  13  15
ENDBRANCH   7  13
TORSDOF 6
ENDMDL
MODEL 4
REMARK VINA RESULT:      -5.7     22.765     24.989
REMARK  Name = 11912453
REMARK  8 active torsions:
REMARK  status: ('A' for Active; 'I' for Inactive)
REMARK    1  A    between atoms: N_4  and  C_17
REMARK    2  A    between atoms: N_4  and  C_18
REMARK    3  A    between atoms: N_5  and  C_19
REMARK    4  A    between atoms: C_7  and  C_13
REMARK    5  A    between atoms: C_8  and  C_12
REMARK    6  A    between atoms: C_12  and  C_14
REMARK    7  A    between atoms: C_13  and  C_15
REMARK    8  A    between atoms: C_17  and  C_22
REMARK                            x       y       z     vdW  Elec       q    Type
REMARK                         _______ _______ _______ _____ _____    ______ ____
ROOT
ATOM      2  O   UNL     1      -7.216  -9.823  15.149  0.00  0.00    -0.252 OA
ATOM      3  N   UNL     1      -5.597 -10.106  13.519  0.00  0.00    -0.285 N 
ATOM      5  N   UNL     1      -5.016 -10.145  15.808  0.00  0.00    -0.269 N 
ATOM      7  C   UNL     1      -5.026 -11.163  10.836  0.00  0.00    +0.004 C 
ATOM      8  C   UNL     1      -4.036 -11.339  12.011  0.00  0.00    +0.010 C 
ATOM      9  C   UNL     1      -6.453 -11.054  11.396  0.00  0.00    +0.023 C 
ATOM     10  C   UNL     1      -4.197 -10.243  13.079  0.00  0.00    +0.113 C 
ATOM     11  C   UNL     1      -6.581  -9.956  12.445  0.00  0.00    +0.109 C 
ATOM     16  C   UNL     1      -6.033 -10.020  14.862  0.00  0.00    +0.306 C 
ATOM     26  H   UNL     1      -4.078  -9.858  15.549  0.00  0.00    +0.156 HD
ENDROOT
BRANCH   5  19
ATOM     19  C   UNL     1      -5.142 -10.579  17.151  0.00  0.00    +0.035 A 
ATOM     20  C   UNL     1      -6.223 -10.150  17.918  0.00  0.00    +0.023 A 
ATOM     21  C   UNL     1      -4.189 -11.435  17.695  0.00  0.00    +0.023 A 
ATOM     23  C   UNL     1      -6.349 -10.578  19.239  0.00  0.00    +0.002 A 
ATOM     24  C   UNL     1      -4.315 -11.863  19.017  0.00  0.00    +0.002 A 
ATOM     25  C   UNL     1      -5.395 -11.435  19.788  0.00  0.00    +0.000 A 
ENDBRANCH   5  19
BRANCH   8  12
ATOM     12  C   UNL     1      -2.580 -11.434  11.556  0.00  0.00    +0.002 C 
ATOM     14  C   UNL     1      -1.754 -10.300  12.127  0.00  0.00    +0.004 C 
ENDBRANCH   8  12
BRANCH   7  13
ATOM     13  C   UNL     1      -4.698  -9.981   9.917  0.00  0.00    +0.100 C 
BRANCH  13  15
ATOM      1  O   UNL     1      -4.852 -11.069   7.785  0.00  0.00    -0.276 OA
ATOM      4  N   UNL     1      -6.252  -9.252   8.135  0.00  0.00    -0.291 N 
ATOM     15  C   UNL     1      -5.262 -10.164   8.517  0.00  0.00    +0.216 C 
ATOM     18  C   UNL     1      -6.891  -9.297   6.825  0.00  0.00    +0.133 C 
BRANCH   4  17
ATOM     17  C   UNL     1      -6.721  -8.188   9.019  0.00  0.00    +0.226 C 
BRANCH  17  22
ATOM      6  N   UNL     1      -9.233  -8.558   9.675  0.00  0.00    -0.195 NA
ATOM     22  C   UNL     1      -8.121  -8.392   9.384  0.00  0.00    +0.082 C 
ENDBRANCH  17  22
ENDBRANCH   4  17
ENDBRANCH  13  15
ENDBRANCH   7  13
TORSDOF 6
ENDMDL
MODEL 5
REMARK VINA RESULT:      -5.7     18.591     21.237
REMARK  Name = 11912453
REMARK  8 active torsions:
REMARK  status: ('A' for Active; 'I' for Inactive)
REMARK    1  A    between atoms: N_4  and  C_17
REMARK    2  A    between atoms: N_4  and  C_18
REMARK    3  A    between atoms: N_5  and  C_19
REMARK    4  A    between atoms: C_7  and  C_13
REMARK    5  A    between atoms: C_8  and  C_12
REMARK    6  A    between atoms: C_12  and  C_14
REMARK    7  A    between atoms: C_13  and  C_15
REMARK    8  A    between atoms: C_17  and  C_22
REMARK                            x       y       z     vdW  Elec       q    Type
REMARK                         _______ _______ _______ _____ _____    ______ ____
ROOT
ATOM      2  O   UNL     1      15.383   6.176  19.489  0.00  0.00    -0.252 OA
ATOM      3  N   UNL     1      17.134   7.460  20.294  0.00  0.00    -0.285 N 
ATOM      5  N   UNL     1      14.953   8.357  20.153  0.00  0.00    -0.269 N 
ATOM      7  C   UNL     1      19.672   7.431  21.778  0.00  0.00    +0.004 C 
ATOM      8  C   UNL     1      18.611   8.535  21.994  0.00  0.00    +0.010 C 
ATOM      9  C   UNL     1      18.967   6.144  21.318  0.00  0.00    +0.023 C 
ATOM     10  C   UNL     1      17.713   8.732  20.760  0.00  0.00    +0.113 C 
ATOM     11  C   UNL     1      18.092   6.371  20.091  0.00  0.00    +0.109 C 
ATOM     16  C   UNL     1      15.777   7.250  19.952  0.00  0.00    +0.306 C 
ATOM     26  H   UNL     1      15.364   9.282  20.093  0.00  0.00    +0.156 HD
ENDROOT
BRANCH   5  19
ATOM     19  C   UNL     1      13.554   8.354  20.378  0.00  0.00    +0.035 A 
ATOM     20  C   UNL     1      12.683   8.609  19.322  0.00  0.00    +0.023 A 
ATOM     21  C   UNL     1      13.058   8.094  21.653  0.00  0.00    +0.023 A 
ATOM     23  C   UNL     1      11.306   8.606  19.543  0.00  0.00    +0.002 A 
ATOM     24  C   UNL     1      11.681   8.091  21.873  0.00  0.00    +0.002 A 
ATOM     25  C   UNL     1      10.805   8.346  20.819  0.00  0.00    +0.000 A 
ENDBRANCH   5  19
BRANCH   8  12
ATOM     12  C   UNL     1      19.219   9.868  22.433  0.00  0.00    +0.002 C 
ATOM     14  C   UNL     1      18.879  10.972  21.453  0.00  0.00    +0.004 C 
ENDBRANCH   8  12
BRANCH   7  13
ATOM     13  C   UNL     1      20.794   7.825  20.812  0.00  0.00    +0.100 C 
BRANCH  13  15
ATOM      1  O   UNL     1      22.574   8.677  22.175  0.00  0.00    -0.276 OA
ATOM      4  N   UNL     1      22.910   6.601  21.196  0.00  0.00    -0.291 N 
ATOM     15  C   UNL     1      22.166   7.756  21.462  0.00  0.00    +0.216 C 
ATOM     18  C   UNL     1      24.243   6.386  21.747  0.00  0.00    +0.133 C 
BRANCH   4  17
ATOM     17  C   UNL     1      22.407   5.523  20.348  0.00  0.00    +0.226 C 
BRANCH  17  22
ATOM      6  N   UNL     1      21.880   3.385  21.772  0.00  0.00    -0.195 NA
ATOM     22  C   UNL     1      22.113   4.331  21.140  0.00  0.00    +0.082 C 
ENDBRANCH  17  22
ENDBRANCH   4  17
ENDBRANCH  13  15
ENDBRANCH   7  13
TORSDOF 6
ENDMDL
MODEL 6
REMARK VINA RESULT:      -5.7     25.617     28.728
REMARK  Name = 11912453
REMARK  8 active torsions:
REMARK  status: ('A' for Active; 'I' for Inactive)
REMARK    1  A    between atoms: N_4  and  C_17
REMARK    2  A    between atoms: N_4  and  C_18
REMARK    3  A    between atoms: N_5  and  C_19
REMARK    4  A    between atoms: C_7  and  C_13
REMARK    5  A    between atoms: C_8  and  C_12
REMARK    6  A    between atoms: C_12  and  C_14
REMARK    7  A    between atoms: C_13  and  C_15
REMARK    8  A    between atoms: C_17  and  C_22
REMARK                            x       y       z     vdW  Elec       q    Type
REMARK                         _______ _______ _______ _____ _____    ______ ____
ROOT
ATOM      2  O   UNL     1     -10.510 -10.498  16.945  0.00  0.00    -0.252 OA
ATOM      3  N   UNL     1      -8.253 -10.442  17.454  0.00  0.00    -0.285 N 
ATOM      5  N   UNL     1      -9.873 -10.270  19.164  0.00  0.00    -0.269 N 
ATOM      7  C   UNL     1      -5.581 -11.420  16.710  0.00  0.00    +0.004 C 
ATOM      8  C   UNL     1      -6.033 -11.319  18.186  0.00  0.00    +0.010 C 
ATOM      9  C   UNL     1      -6.817 -11.633  15.822  0.00  0.00    +0.023 C 
ATOM     10  C   UNL     1      -7.129 -10.259  18.390  0.00  0.00    +0.113 C 
ATOM     11  C   UNL     1      -7.880 -10.563  16.043  0.00  0.00    +0.109 C 
ATOM     16  C   UNL     1      -9.624 -10.419  17.800  0.00  0.00    +0.306 C 
ATOM     26  H   UNL     1      -9.189  -9.778  19.728  0.00  0.00    +0.156 HD
ENDROOT
BRANCH   5  19
ATOM     19  C   UNL     1     -11.029 -10.679  19.874  0.00  0.00    +0.035 A 
ATOM     20  C   UNL     1     -12.040  -9.759  20.140  0.00  0.00    +0.023 A 
ATOM     21  C   UNL     1     -11.149 -11.999  20.299  0.00  0.00    +0.023 A 
ATOM     23  C   UNL     1     -13.177 -10.161  20.838  0.00  0.00    +0.002 A 
ATOM     24  C   UNL     1     -12.288 -12.402  20.998  0.00  0.00    +0.002 A 
ATOM     25  C   UNL     1     -13.301 -11.483  21.267  0.00  0.00    +0.000 A 
ENDBRANCH   5  19
BRANCH   8  12
ATOM     12  C   UNL     1      -4.871 -11.082  19.151  0.00  0.00    +0.002 C 
ATOM     14  C   UNL     1      -4.013 -12.323  19.288  0.00  0.00    +0.004 C 
ENDBRANCH   8  12
BRANCH   7  13
ATOM     13  C   UNL     1      -4.752 -10.224  16.230  0.00  0.00    +0.100 C 
BRANCH  13  15
ATOM      1  O   UNL     1      -2.448 -10.832  16.497  0.00  0.00    -0.276 OA
ATOM      4  N   UNL     1      -3.269 -10.778  14.328  0.00  0.00    -0.291 N 
ATOM     15  C   UNL     1      -3.383 -10.638  15.715  0.00  0.00    +0.216 C 
ATOM     18  C   UNL     1      -2.023 -11.171  13.682  0.00  0.00    +0.133 C 
BRANCH   4  17
ATOM     17  C   UNL     1      -4.391 -10.543  13.422  0.00  0.00    +0.226 C 
BRANCH  17  22
ATOM      6  N   UNL     1      -3.541  -9.945  11.015  0.00  0.00    -0.195 NA
ATOM     22  C   UNL     1      -3.918 -10.212  12.080  0.00  0.00    +0.082 C 
ENDBRANCH  17  22
ENDBRANCH   4  17
ENDBRANCH  13  15
ENDBRANCH   7  13
TORSDOF 6
ENDMDL
MODEL 7
REMARK VINA RESULT:      -5.7      1.540      2.360
REMARK  Name = 11912453
REMARK  8 active torsions:
REMARK  status: ('A' for Active; 'I' for Inactive)
REMARK    1  A    between atoms: N_4  and  C_17
REMARK    2  A    between atoms: N_4  and  C_18
REMARK    3  A    between atoms: N_5  and  C_19
REMARK    4  A    between atoms: C_7  and  C_13
REMARK    5  A    between atoms: C_8  and  C_12
REMARK    6  A    between atoms: C_12  and  C_14
REMARK    7  A    between atoms: C_13  and  C_15
REMARK    8  A    between atoms: C_17  and  C_22
REMARK                            x       y       z     vdW  Elec       q    Type
REMARK                         _______ _______ _______ _____ _____    ______ ____
ROOT
ATOM      2  O   UNL     1       9.096   6.906   3.987  0.00  0.00    -0.252 OA
ATOM      3  N   UNL     1      10.664   5.798   2.694  0.00  0.00    -0.285 N 
ATOM      5  N   UNL     1      10.840   5.806   5.049  0.00  0.00    -0.269 N 
ATOM      7  C   UNL     1      11.119   4.282   0.215  0.00  0.00    +0.004 C 
ATOM      8  C   UNL     1      11.763   3.866   1.558  0.00  0.00    +0.010 C 
ATOM      9  C   UNL     1       9.804   5.025   0.501  0.00  0.00    +0.023 C 
ATOM     10  C   UNL     1      11.925   5.055   2.522  0.00  0.00    +0.113 C 
ATOM     11  C   UNL     1       9.998   6.200   1.452  0.00  0.00    +0.109 C 
ATOM     16  C   UNL     1      10.116   6.214   3.929  0.00  0.00    +0.306 C 
ATOM     26  H   UNL     1      11.838   5.656   4.949  0.00  0.00    +0.156 HD
ENDROOT
BRANCH   5  19
ATOM     19  C   UNL     1      10.352   5.626   6.367  0.00  0.00    +0.035 A 
ATOM     20  C   UNL     1      10.084   6.737   7.163  0.00  0.00    +0.023 A 
ATOM     21  C   UNL     1      10.140   4.341   6.858  0.00  0.00    +0.023 A 
ATOM     23  C   UNL     1       9.603   6.561   8.460  0.00  0.00    +0.002 A 
ATOM     24  C   UNL     1       9.659   4.165   8.155  0.00  0.00    +0.002 A 
ATOM     25  C   UNL     1       9.390   5.274   8.956  0.00  0.00    +0.000 A 
ENDBRANCH   5  19
BRANCH   8  12
ATOM     12  C   UNL     1      13.095   3.137   1.379  0.00  0.00    +0.002 C 
ATOM     14  C   UNL     1      14.256   4.001   1.827  0.00  0.00    +0.004 C 
ENDBRANCH   8  12
BRANCH   7  13
ATOM     13  C   UNL     1      12.039   5.110  -0.688  0.00  0.00    +0.100 C 
BRANCH  13  15
ATOM      1  O   UNL     1      10.890   4.731  -2.759  0.00  0.00    -0.276 OA
ATOM      4  N   UNL     1      13.156   4.234  -2.715  0.00  0.00    -0.291 N 
ATOM     15  C   UNL     1      11.959   4.680  -2.144  0.00  0.00    +0.216 C 
ATOM     18  C   UNL     1      13.242   3.790  -4.101  0.00  0.00    +0.133 C 
BRANCH   4  17
ATOM     17  C   UNL     1      14.410   4.183  -1.968  0.00  0.00    +0.226 C 
BRANCH  17  22
ATOM      6  N   UNL     1      16.164   5.856  -2.967  0.00  0.00    -0.195 NA
ATOM     22  C   UNL     1      15.387   5.117  -2.523  0.00  0.00    +0.082 C 
ENDBRANCH  17  22
ENDBRANCH   4  17
ENDBRANCH  13  15
ENDBRANCH   7  13
TORSDOF 6
ENDMDL
MODEL 8
REMARK VINA RESULT:      -5.6      2.133      8.323
REMARK  Name = 11912453
REMARK  8 active torsions:
REMARK  status: ('A' for Active; 'I' for Inactive)
REMARK    1  A    between atoms: N_4  and  C_17
REMARK    2  A    between atoms: N_4  and  C_18
REMARK    3  A    between atoms: N_5  and  C_19
REMARK    4  A    between atoms: C_7  and  C_13
REMARK    5  A    between atoms: C_8  and  C_12
REMARK    6  A    between atoms: C_12  and  C_14
REMARK    7  A    between atoms: C_13  and  C_15
REMARK    8  A    between atoms: C_17  and  C_22
REMARK                            x       y       z     vdW  Elec       q    Type
REMARK                         _______ _______ _______ _____ _____    ______ ____
ROOT
ATOM      2  O   UNL     1       9.822   4.305   0.397  0.00  0.00    -0.252 OA
ATOM      3  N   UNL     1      11.244   5.248   1.961  0.00  0.00    -0.285 N 
ATOM      5  N   UNL     1      12.109   4.206   0.026  0.00  0.00    -0.269 N 
ATOM      7  C   UNL     1      11.583   7.402   3.935  0.00  0.00    +0.004 C 
ATOM      8  C   UNL     1      12.725   6.979   2.982  0.00  0.00    +0.010 C 
ATOM      9  C   UNL     1      10.234   7.100   3.263  0.00  0.00    +0.023 C 
ATOM     10  C   UNL     1      12.585   5.521   2.511  0.00  0.00    +0.113 C 
ATOM     11  C   UNL     1      10.123   5.647   2.815  0.00  0.00    +0.109 C 
ATOM     16  C   UNL     1      10.974   4.569   0.750  0.00  0.00    +0.306 C 
ATOM     26  H   UNL     1      12.971   4.036   0.534  0.00  0.00    +0.156 HD
ENDROOT
BRANCH   5  19
ATOM     19  C   UNL     1      12.199   3.977  -1.369  0.00  0.00    +0.035 A 
ATOM     20  C   UNL     1      12.167   5.055  -2.250  0.00  0.00    +0.023 A 
ATOM     21  C   UNL     1      12.322   2.677  -1.851  0.00  0.00    +0.023 A 
ATOM     23  C   UNL     1      12.256   4.831  -3.623  0.00  0.00    +0.002 A 
ATOM     24  C   UNL     1      12.411   2.453  -3.226  0.00  0.00    +0.002 A 
ATOM     25  C   UNL     1      12.378   3.530  -4.111  0.00  0.00    +0.000 A 
ENDBRANCH   5  19
BRANCH   8  12
ATOM     12  C   UNL     1      14.115   7.219   3.572  0.00  0.00    +0.002 C 
ATOM     14  C   UNL     1      15.198   6.939   2.551  0.00  0.00    +0.004 C 
ENDBRANCH   8  12
BRANCH   7  13
ATOM     13  C   UNL     1      11.665   6.765   5.326  0.00  0.00    +0.100 C 
BRANCH  13  15
ATOM      1  O   UNL     1      11.067   8.734   6.557  0.00  0.00    -0.276 OA
ATOM      4  N   UNL     1       9.896   6.795   7.055  0.00  0.00    -0.291 N 
ATOM     15  C   UNL     1      10.860   7.533   6.362  0.00  0.00    +0.216 C 
ATOM     18  C   UNL     1       9.043   7.389   8.077  0.00  0.00    +0.133 C 
BRANCH   4  17
ATOM     17  C   UNL     1       9.669   5.373   6.807  0.00  0.00    +0.226 C 
BRANCH  17  22
ATOM      6  N   UNL     1       9.888   3.985   9.020  0.00  0.00    -0.195 NA
ATOM     22  C   UNL     1       9.791   4.602   8.041  0.00  0.00    +0.082 C 
ENDBRANCH  17  22
ENDBRANCH   4  17
ENDBRANCH  13  15
ENDBRANCH   7  13
TORSDOF 6
ENDMDL
MODEL 9
REMARK VINA RESULT:      -5.5     26.326     30.032
REMARK  Name = 11912453
REMARK  8 active torsions:
REMARK  status: ('A' for Active; 'I' for Inactive)
REMARK    1  A    between atoms: N_4  and  C_17
REMARK    2  A    between atoms: N_4  and  C_18
REMARK    3  A    between atoms: N_5  and  C_19
REMARK    4  A    between atoms: C_7  and  C_13
REMARK    5  A    between atoms: C_8  and  C_12
REMARK    6  A    between atoms: C_12  and  C_14
REMARK    7  A    between atoms: C_13  and  C_15
REMARK    8  A    between atoms: C_17  and  C_22
REMARK                            x       y       z     vdW  Elec       q    Type
REMARK                         _______ _______ _______ _____ _____    ______ ____
ROOT
ATOM      2  O   UNL     1     -13.892   9.115  23.403  0.00  0.00    -0.252 OA
ATOM      3  N   UNL     1     -12.831   9.480  21.378  0.00  0.00    -0.285 N 
ATOM      5  N   UNL     1     -12.718  11.093  23.099  0.00  0.00    -0.269 N 
ATOM      7  C   UNL     1     -11.436   8.219  19.117  0.00  0.00    +0.004 C 
ATOM      8  C   UNL     1     -10.946   9.545  19.743  0.00  0.00    +0.010 C 
ATOM      9  C   UNL     1     -12.179   7.405  20.188  0.00  0.00    +0.023 C 
ATOM     10  C   UNL     1     -12.082  10.323  20.429  0.00  0.00    +0.113 C 
ATOM     11  C   UNL     1     -13.303   8.200  20.843  0.00  0.00    +0.109 C 
ATOM     16  C   UNL     1     -13.191   9.845  22.696  0.00  0.00    +0.306 C 
ATOM     26  H   UNL     1     -12.562  11.801  22.390  0.00  0.00    +0.156 HD
ENDROOT
BRANCH   5  19
ATOM     19  C   UNL     1     -12.478  11.531  24.425  0.00  0.00    +0.035 A 
ATOM     20  C   UNL     1     -11.665  10.776  25.267  0.00  0.00    +0.023 A 
ATOM     21  C   UNL     1     -13.054  12.715  24.878  0.00  0.00    +0.023 A 
ATOM     23  C   UNL     1     -11.428  11.207  26.571  0.00  0.00    +0.002 A 
ATOM     24  C   UNL     1     -12.816  13.146  26.183  0.00  0.00    +0.002 A 
ATOM     25  C   UNL     1     -12.003  12.393  27.029  0.00  0.00    +0.000 A 
ENDBRANCH   5  19
BRANCH   8  12
ATOM     12  C   UNL     1     -10.210  10.440  18.745  0.00  0.00    +0.002 C 
ATOM     14  C   UNL     1     -10.975  11.724  18.496  0.00  0.00    +0.004 C 
ENDBRANCH   8  12
BRANCH   7  13
ATOM     13  C   UNL     1     -12.297   8.403  17.862  0.00  0.00    +0.100 C 
BRANCH  13  15
ATOM      1  O   UNL     1     -10.298   7.943  16.620  0.00  0.00    -0.276 OA
ATOM      4  N   UNL     1     -12.192   8.478  15.392  0.00  0.00    -0.291 N 
ATOM     15  C   UNL     1     -11.493   8.250  16.582  0.00  0.00    +0.216 C 
ATOM     18  C   UNL     1     -11.561   8.369  14.082  0.00  0.00    +0.133 C 
BRANCH   4  17
ATOM     17  C   UNL     1     -13.607   8.840  15.371  0.00  0.00    +0.226 C 
BRANCH  17  22
ATOM      6  N   UNL     1     -15.065   6.863  14.456  0.00  0.00    -0.195 NA
ATOM     22  C   UNL     1     -14.420   7.739  14.860  0.00  0.00    +0.082 C 
ENDBRANCH  17  22
ENDBRANCH   4  17
ENDBRANCH  13  15
ENDBRANCH   7  13
TORSDOF 6
ENDMDL
MODEL 10
REMARK VINA RESULT:      -5.5     26.719     30.553
REMARK  Name = 11912453
REMARK  8 active torsions:
REMARK  status: ('A' for Active; 'I' for Inactive)
REMARK    1  A    between atoms: N_4  and  C_17
REMARK    2  A    between atoms: N_4  and  C_18
REMARK    3  A    between atoms: N_5  and  C_19
REMARK    4  A    between atoms: C_7  and  C_13
REMARK    5  A    between atoms: C_8  and  C_12
REMARK    6  A    between atoms: C_12  and  C_14
REMARK    7  A    between atoms: C_13  and  C_15
REMARK    8  A    between atoms: C_17  and  C_22
REMARK                            x       y       z     vdW  Elec       q    Type
REMARK                         _______ _______ _______ _____ _____    ______ ____
ROOT
ATOM      2  O   UNL     1      -4.975 -12.927  17.532  0.00  0.00    -0.252 OA
ATOM      3  N   UNL     1      -6.735 -11.514  18.048  0.00  0.00    -0.285 N 
ATOM      5  N   UNL     1      -4.802 -10.682  16.975  0.00  0.00    -0.269 N 
ATOM      7  C   UNL     1      -9.652 -11.291  18.343  0.00  0.00    +0.004 C 
ATOM      8  C   UNL     1      -8.812 -10.185  17.663  0.00  0.00    +0.010 C 
ATOM      9  C   UNL     1      -8.939 -12.641  18.163  0.00  0.00    +0.023 C 
ATOM     10  C   UNL     1      -7.352 -10.179  18.147  0.00  0.00    +0.113 C 
ATOM     11  C   UNL     1      -7.498 -12.605  18.659  0.00  0.00    +0.109 C 
ATOM     16  C   UNL     1      -5.459 -11.793  17.504  0.00  0.00    +0.306 C 
ATOM     26  H   UNL     1      -5.011  -9.768  17.362  0.00  0.00    +0.156 HD
ENDROOT
BRANCH   5  19
ATOM     19  C   UNL     1      -3.800 -10.676  15.973  0.00  0.00    +0.035 A 
ATOM     20  C   UNL     1      -2.456 -10.672  16.338  0.00  0.00    +0.023 A 
ATOM     21  C   UNL     1      -4.164 -10.677  14.630  0.00  0.00    +0.023 A 
ATOM     23  C   UNL     1      -1.470 -10.666  15.353  0.00  0.00    +0.002 A 
ATOM     24  C   UNL     1      -3.177 -10.671  13.644  0.00  0.00    +0.002 A 
ATOM     25  C   UNL     1      -1.831 -10.667  14.005  0.00  0.00    +0.000 A 
ENDBRANCH   5  19
BRANCH   8  12
ATOM     12  C   UNL     1      -9.430  -8.794  17.807  0.00  0.00    +0.002 C 
ATOM     14  C   UNL     1     -10.502  -8.562  16.762  0.00  0.00    +0.004 C 
ENDBRANCH   8  12
BRANCH   7  13
ATOM     13  C   UNL     1      -9.964 -11.020  19.818  0.00  0.00    +0.100 C 
BRANCH  13  15
ATOM      1  O   UNL     1     -12.095  -9.921  19.813  0.00  0.00    -0.276 OA
ATOM      4  N   UNL     1     -12.035 -12.080  20.658  0.00  0.00    -0.291 N 
ATOM     15  C   UNL     1     -11.457 -10.941  20.089  0.00  0.00    +0.216 C 
ATOM     18  C   UNL     1     -13.455 -12.160  20.976  0.00  0.00    +0.133 C 
BRANCH   4  17
ATOM     17  C   UNL     1     -11.259 -13.277  20.976  0.00  0.00    +0.226 C 
BRANCH  17  22
ATOM      6  N   UNL     1     -11.956 -14.254  23.307  0.00  0.00    -0.195 NA
ATOM     22  C   UNL     1     -11.647 -13.820  22.276  0.00  0.00    +0.082 C 
ENDBRANCH  17  22
ENDBRANCH   4  17
ENDBRANCH  13  15
ENDBRANCH   7  13
TORSDOF 6
ENDMDL
