MODEL 1
REMARK VINA RESULT:      -7.3      0.000      0.000
REMARK  Name = 51137140
REMARK  6 active torsions:
REMARK  status: ('A' for Active; 'I' for Inactive)
REMARK    1  A    between atoms: S_1  and  C_18
REMARK    2  A    between atoms: S_1  and  C_22
REMARK    3  A    between atoms: N_5  and  C_13
REMARK    4  A    between atoms: C_8  and  C_12
REMARK    5  A    between atoms: C_13  and  C_14
REMARK    6  A    between atoms: C_22  and  C_26
REMARK                            x       y       z     vdW  Elec       q    Type
REMARK                         _______ _______ _______ _____ _____    ______ ____
ROOT
ATOM      2  O   UNL     1      17.744   7.791  21.472  0.00  0.00    -0.439 OA
ATOM      6  N   UNL     1      17.311   6.271  19.848  0.00  0.00    -0.213 NA
ATOM     12  C   UNL     1      18.217   6.856  20.601  0.00  0.00    +0.201 A 
ATOM     15  C   UNL     1      16.136   6.862  20.248  0.00  0.00    +0.111 A 
ATOM     16  C   UNL     1      16.398   7.793  21.242  0.00  0.00    +0.155 A 
ATOM     17  C   UNL     1      14.812   6.675  19.827  0.00  0.00    +0.058 A 
ATOM     18  C   UNL     1      13.812   7.444  20.438  0.00  0.00    +0.090 A 
ATOM     19  C   UNL     1      15.435   8.573  21.869  0.00  0.00    +0.050 A 
ATOM     21  C   UNL     1      14.119   8.374  21.438  0.00  0.00    +0.030 A 
ENDROOT
BRANCH  12   8
ATOM      5  N   UNL     1      21.345   5.040  21.179  0.00  0.00    -0.296 NA
ATOM      8  C   UNL     1      19.709   6.626  20.625  0.00  0.00    +0.090 C 
ATOM      9  C   UNL     1      20.407   7.041  21.932  0.00  0.00    +0.029 C 
ATOM     10  C   UNL     1      20.092   5.152  20.432  0.00  0.00    +0.097 C 
ATOM     11  C   UNL     1      21.114   5.782  22.417  0.00  0.00    +0.085 C 
BRANCH   5  13
ATOM     13  C   UNL     1      21.724   3.657  21.424  0.00  0.00    +0.139 C 
BRANCH  13  14
ATOM      7  N   UNL     1      23.774   4.365  20.322  0.00  0.00    -0.259 NA
ATOM     14  C   UNL     1      23.138   3.376  20.988  0.00  0.00    +0.055 A 
ATOM     20  C   UNL     1      23.707   2.147  21.282  0.00  0.00    +0.024 A 
ATOM     23  C   UNL     1      25.014   1.919  20.866  0.00  0.00    +0.003 A 
ATOM     24  C   UNL     1      25.044   4.107  19.933  0.00  0.00    +0.111 A 
ATOM     25  C   UNL     1      25.702   2.912  20.179  0.00  0.00    +0.020 A 
ENDBRANCH  13  14
ENDBRANCH   5  13
ENDBRANCH  12   8
BRANCH  18   1
ATOM      1  S   UNL     1      12.148   7.238  19.937  0.00  0.00    -0.003 S 
ATOM      3  O   UNL     1      12.098   7.187  18.484  0.00  0.00    -0.169 OA
ATOM      4  O   UNL     1      11.579   6.152  20.721  0.00  0.00    -0.169 OA
BRANCH   1  22
ATOM     22  C   UNL     1      11.350   8.748  20.433  0.00  0.00    +0.168 C 
ATOM     26  C   UNL     1      10.595   8.574  21.731  0.00  0.00    +0.028 C 
ENDBRANCH   1  22
ENDBRANCH  18   1
TORSDOF 5
ENDMDL
MODEL 2
REMARK VINA RESULT:      -6.7      3.650     10.108
REMARK  Name = 51137140
REMARK  6 active torsions:
REMARK  status: ('A' for Active; 'I' for Inactive)
REMARK    1  A    between atoms: S_1  and  C_18
REMARK    2  A    between atoms: S_1  and  C_22
REMARK    3  A    between atoms: N_5  and  C_13
REMARK    4  A    between atoms: C_8  and  C_12
REMARK    5  A    between atoms: C_13  and  C_14
REMARK    6  A    between atoms: C_22  and  C_26
REMARK                            x       y       z     vdW  Elec       q    Type
REMARK                         _______ _______ _______ _____ _____    ______ ____
ROOT
ATOM      2  O   UNL     1      14.989   6.780  19.377  0.00  0.00    -0.439 OA
ATOM      6  N   UNL     1      15.519   7.961  21.236  0.00  0.00    -0.213 NA
ATOM     12  C   UNL     1      14.597   7.644  20.354  0.00  0.00    +0.201 A 
ATOM     15  C   UNL     1      16.618   7.250  20.816  0.00  0.00    +0.111 A 
ATOM     16  C   UNL     1      16.296   6.526  19.677  0.00  0.00    +0.155 A 
ATOM     17  C   UNL     1      17.918   7.159  21.332  0.00  0.00    +0.058 A 
ATOM     18  C   UNL     1      18.835   6.335  20.666  0.00  0.00    +0.090 A 
ATOM     19  C   UNL     1      17.177   5.700  18.990  0.00  0.00    +0.050 A 
ATOM     21  C   UNL     1      18.470   5.621  19.518  0.00  0.00    +0.030 A 
ENDROOT
BRANCH  12   8
ATOM      5  N   UNL     1      11.432   9.026  21.576  0.00  0.00    -0.296 NA
ATOM      8  C   UNL     1      13.163   8.113  20.284  0.00  0.00    +0.090 C 
ATOM      9  C   UNL     1      12.112   7.028  20.580  0.00  0.00    +0.029 C 
ATOM     10  C   UNL     1      12.851   9.236  21.282  0.00  0.00    +0.097 C 
ATOM     11  C   UNL     1      11.290   7.580  21.736  0.00  0.00    +0.085 C 
BRANCH   5  13
ATOM     13  C   UNL     1      10.995   9.760  22.754  0.00  0.00    +0.139 C 
BRANCH  13  14
ATOM      7  N   UNL     1      12.533  11.370  23.737  0.00  0.00    -0.259 NA
ATOM     14  C   UNL     1      11.582  11.146  22.802  0.00  0.00    +0.055 A 
ATOM     20  C   UNL     1      11.132  12.105  21.909  0.00  0.00    +0.024 A 
ATOM     23  C   UNL     1      11.695  13.374  21.979  0.00  0.00    +0.003 A 
ATOM     24  C   UNL     1      13.057  12.616  23.775  0.00  0.00    +0.111 A 
ATOM     25  C   UNL     1      12.676  13.643  22.926  0.00  0.00    +0.020 A 
ENDBRANCH  13  14
ENDBRANCH   5  13
ENDBRANCH  12   8
BRANCH  18   1
ATOM      1  S   UNL     1      20.468   6.198  21.281  0.00  0.00    -0.003 S 
ATOM      3  O   UNL     1      21.243   7.335  20.809  0.00  0.00    -0.169 OA
ATOM      4  O   UNL     1      20.384   5.918  22.706  0.00  0.00    -0.169 OA
BRANCH   1  22
ATOM     22  C   UNL     1      21.120   4.753  20.476  0.00  0.00    +0.168 C 
ATOM     26  C   UNL     1      21.632   3.744  21.479  0.00  0.00    +0.028 C 
ENDBRANCH   1  22
ENDBRANCH  18   1
TORSDOF 5
ENDMDL
MODEL 3
REMARK VINA RESULT:      -6.6     29.927     32.284
REMARK  Name = 51137140
REMARK  6 active torsions:
REMARK  status: ('A' for Active; 'I' for Inactive)
REMARK    1  A    between atoms: S_1  and  C_18
REMARK    2  A    between atoms: S_1  and  C_22
REMARK    3  A    between atoms: N_5  and  C_13
REMARK    4  A    between atoms: C_8  and  C_12
REMARK    5  A    between atoms: C_13  and  C_14
REMARK    6  A    between atoms: C_22  and  C_26
REMARK                            x       y       z     vdW  Elec       q    Type
REMARK                         _______ _______ _______ _____ _____    ______ ____
ROOT
ATOM      2  O   UNL     1     -12.269  -7.695  16.522  0.00  0.00    -0.439 OA
ATOM      6  N   UNL     1     -10.629  -6.426  15.608  0.00  0.00    -0.213 NA
ATOM     12  C   UNL     1     -10.949  -7.360  16.476  0.00  0.00    +0.201 A 
ATOM     15  C   UNL     1     -11.832  -6.111  15.024  0.00  0.00    +0.111 A 
ATOM     16  C   UNL     1     -12.838  -6.886  15.581  0.00  0.00    +0.155 A 
ATOM     17  C   UNL     1     -12.165  -5.188  14.022  0.00  0.00    +0.058 A 
ATOM     18  C   UNL     1     -13.508  -5.094  13.632  0.00  0.00    +0.090 A 
ATOM     19  C   UNL     1     -14.179  -6.822  15.222  0.00  0.00    +0.050 A 
ATOM     21  C   UNL     1     -14.493  -5.896  14.221  0.00  0.00    +0.030 A 
ENDROOT
BRANCH  12   8
ATOM      5  N   UNL     1      -8.600  -9.949  17.573  0.00  0.00    -0.296 NA
ATOM      8  C   UNL     1     -10.045  -8.108  17.428  0.00  0.00    +0.090 C 
ATOM      9  C   UNL     1     -10.729  -9.239  18.216  0.00  0.00    +0.029 C 
ATOM     10  C   UNL     1      -8.863  -8.787  16.723  0.00  0.00    +0.097 C 
ATOM     11  C   UNL     1      -9.921 -10.488  17.893  0.00  0.00    +0.085 C 
BRANCH   5  13
ATOM     13  C   UNL     1      -7.743 -10.930  16.923  0.00  0.00    +0.139 C 
BRANCH  13  14
ATOM      7  N   UNL     1      -5.455 -11.739  17.091  0.00  0.00    -0.259 NA
ATOM     14  C   UNL     1      -6.528 -11.251  17.753  0.00  0.00    +0.055 A 
ATOM     20  C   UNL     1      -6.565 -11.037  19.121  0.00  0.00    +0.024 A 
ATOM     23  C   UNL     1      -5.427 -11.343  19.858  0.00  0.00    +0.003 A 
ATOM     24  C   UNL     1      -4.367 -12.026  17.841  0.00  0.00    +0.111 A 
ATOM     25  C   UNL     1      -4.303 -11.847  19.214  0.00  0.00    +0.020 A 
ENDBRANCH  13  14
ENDBRANCH   5  13
ENDBRANCH  12   8
BRANCH  18   1
ATOM      1  S   UNL     1     -13.960  -3.952  12.386  0.00  0.00    -0.003 S 
ATOM      3  O   UNL     1     -14.518  -4.684  11.260  0.00  0.00    -0.169 OA
ATOM      4  O   UNL     1     -14.730  -2.890  13.015  0.00  0.00    -0.169 OA
BRANCH   1  22
ATOM     22  C   UNL     1     -12.414  -3.261  11.843  0.00  0.00    +0.168 C 
ATOM     26  C   UNL     1     -11.992  -3.830  10.506  0.00  0.00    +0.028 C 
ENDBRANCH   1  22
ENDBRANCH  18   1
TORSDOF 5
ENDMDL
MODEL 4
REMARK VINA RESULT:      -6.6      3.785     10.031
REMARK  Name = 51137140
REMARK  6 active torsions:
REMARK  status: ('A' for Active; 'I' for Inactive)
REMARK    1  A    between atoms: S_1  and  C_18
REMARK    2  A    between atoms: S_1  and  C_22
REMARK    3  A    between atoms: N_5  and  C_13
REMARK    4  A    between atoms: C_8  and  C_12
REMARK    5  A    between atoms: C_13  and  C_14
REMARK    6  A    between atoms: C_22  and  C_26
REMARK                            x       y       z     vdW  Elec       q    Type
REMARK                         _______ _______ _______ _____ _____    ______ ____
ROOT
ATOM      2  O   UNL     1      19.602   6.844  22.064  0.00  0.00    -0.439 OA
ATOM      6  N   UNL     1      19.760   5.431  20.299  0.00  0.00    -0.213 NA
ATOM     12  C   UNL     1      19.104   6.418  20.869  0.00  0.00    +0.201 A 
ATOM     15  C   UNL     1      20.781   5.177  21.183  0.00  0.00    +0.111 A 
ATOM     16  C   UNL     1      20.687   6.041  22.265  0.00  0.00    +0.155 A 
ATOM     17  C   UNL     1      21.825   4.241  21.152  0.00  0.00    +0.058 A 
ATOM     18  C   UNL     1      22.728   4.226  22.225  0.00  0.00    +0.090 A 
ATOM     19  C   UNL     1      21.561   6.055  23.345  0.00  0.00    +0.050 A 
ATOM     21  C   UNL     1      22.596   5.115  23.298  0.00  0.00    +0.030 A 
ENDROOT
BRANCH  12   8
ATOM      5  N   UNL     1      15.692   7.747  20.986  0.00  0.00    -0.296 NA
ATOM      8  C   UNL     1      17.871   7.137  20.373  0.00  0.00    +0.090 C 
ATOM      9  C   UNL     1      16.859   6.247  19.629  0.00  0.00    +0.029 C 
ATOM     10  C   UNL     1      17.061   7.786  21.503  0.00  0.00    +0.097 C 
ATOM     11  C   UNL     1      15.551   6.419  20.390  0.00  0.00    +0.085 C 
BRANCH   5  13
ATOM     13  C   UNL     1      14.700   7.998  22.021  0.00  0.00    +0.139 C 
BRANCH  13  14
ATOM      7  N   UNL     1      12.411   7.205  21.794  0.00  0.00    -0.259 NA
ATOM     14  C   UNL     1      13.316   8.148  21.447  0.00  0.00    +0.055 A 
ATOM     20  C   UNL     1      13.040   9.217  20.610  0.00  0.00    +0.024 A 
ATOM     23  C   UNL     1      11.752   9.327  20.098  0.00  0.00    +0.003 A 
ATOM     24  C   UNL     1      11.169   7.345  21.277  0.00  0.00    +0.111 A 
ATOM     25  C   UNL     1      10.793   8.378  20.433  0.00  0.00    +0.020 A 
ENDBRANCH  13  14
ENDBRANCH   5  13
ENDBRANCH  12   8
BRANCH  18   1
ATOM      1  S   UNL     1      24.042   3.071  22.221  0.00  0.00    -0.003 S 
ATOM      3  O   UNL     1      25.299   3.790  22.353  0.00  0.00    -0.169 OA
ATOM      4  O   UNL     1      23.708   2.014  23.165  0.00  0.00    -0.169 OA
BRANCH   1  22
ATOM     22  C   UNL     1      24.009   2.375  20.585  0.00  0.00    +0.168 C 
ATOM     26  C   UNL     1      25.041   3.022  19.687  0.00  0.00    +0.028 C 
ENDBRANCH   1  22
ENDBRANCH  18   1
TORSDOF 5
ENDMDL
MODEL 5
REMARK VINA RESULT:      -6.5     27.745     29.940
REMARK  Name = 51137140
REMARK  6 active torsions:
REMARK  status: ('A' for Active; 'I' for Inactive)
REMARK    1  A    between atoms: S_1  and  C_18
REMARK    2  A    between atoms: S_1  and  C_22
REMARK    3  A    between atoms: N_5  and  C_13
REMARK    4  A    between atoms: C_8  and  C_12
REMARK    5  A    between atoms: C_13  and  C_14
REMARK    6  A    between atoms: C_22  and  C_26
REMARK                            x       y       z     vdW  Elec       q    Type
REMARK                         _______ _______ _______ _____ _____    ______ ____
ROOT
ATOM      2  O   UNL     1      -4.163 -10.887  17.580  0.00  0.00    -0.439 OA
ATOM      6  N   UNL     1      -5.695 -10.388  15.986  0.00  0.00    -0.213 NA
ATOM     12  C   UNL     1      -4.423 -10.515  16.295  0.00  0.00    +0.201 A 
ATOM     15  C   UNL     1      -6.339 -10.702  17.160  0.00  0.00    +0.111 A 
ATOM     16  C   UNL     1      -5.403 -11.008  18.137  0.00  0.00    +0.155 A 
ATOM     17  C   UNL     1      -7.701 -10.752  17.486  0.00  0.00    +0.058 A 
ATOM     18  C   UNL     1      -8.052 -11.112  18.795  0.00  0.00    +0.090 A 
ATOM     19  C   UNL     1      -5.712 -11.367  19.443  0.00  0.00    +0.050 A 
ATOM     21  C   UNL     1      -7.075 -11.413  19.752  0.00  0.00    +0.030 A 
ENDROOT
BRANCH  12   8
ATOM      5  N   UNL     1      -2.133 -11.123  13.501  0.00  0.00    -0.296 NA
ATOM      8  C   UNL     1      -3.216 -10.302  15.412  0.00  0.00    +0.090 C 
ATOM      9  C   UNL     1      -1.962 -11.091  15.829  0.00  0.00    +0.029 C 
ATOM     10  C   UNL     1      -3.462 -10.709  13.953  0.00  0.00    +0.097 C 
ATOM     11  C   UNL     1      -1.589 -11.914  14.604  0.00  0.00    +0.085 C 
BRANCH   5  13
ATOM     13  C   UNL     1      -2.178 -11.869  12.253  0.00  0.00    +0.139 C 
BRANCH  13  14
ATOM      7  N   UNL     1      -3.817 -11.784  10.457  0.00  0.00    -0.259 NA
ATOM     14  C   UNL     1      -2.889 -11.105  11.167  0.00  0.00    +0.055 A 
ATOM     20  C   UNL     1      -2.566  -9.775  10.951  0.00  0.00    +0.024 A 
ATOM     23  C   UNL     1      -3.241  -9.098   9.942  0.00  0.00    +0.003 A 
ATOM     24  C   UNL     1      -4.452 -11.093   9.484  0.00  0.00    +0.111 A 
ATOM     25  C   UNL     1      -4.204  -9.762   9.190  0.00  0.00    +0.020 A 
ENDBRANCH  13  14
ENDBRANCH   5  13
ENDBRANCH  12   8
BRANCH  18   1
ATOM      1  S   UNL     1      -9.743 -11.184  19.239  0.00  0.00    -0.003 S 
ATOM      3  O   UNL     1     -10.212 -12.551  19.078  0.00  0.00    -0.169 OA
ATOM      4  O   UNL     1      -9.895 -10.511  20.521  0.00  0.00    -0.169 OA
BRANCH   1  22
ATOM     22  C   UNL     1     -10.563 -10.202  18.004  0.00  0.00    +0.168 C 
ATOM     26  C   UNL     1     -11.829  -9.576  18.546  0.00  0.00    +0.028 C 
ENDBRANCH   1  22
ENDBRANCH  18   1
TORSDOF 5
ENDMDL
MODEL 6
REMARK VINA RESULT:      -6.3     27.550     31.325
REMARK  Name = 51137140
REMARK  6 active torsions:
REMARK  status: ('A' for Active; 'I' for Inactive)
REMARK    1  A    between atoms: S_1  and  C_18
REMARK    2  A    between atoms: S_1  and  C_22
REMARK    3  A    between atoms: N_5  and  C_13
REMARK    4  A    between atoms: C_8  and  C_12
REMARK    5  A    between atoms: C_13  and  C_14
REMARK    6  A    between atoms: C_22  and  C_26
REMARK                            x       y       z     vdW  Elec       q    Type
REMARK                         _______ _______ _______ _____ _____    ______ ____
ROOT
ATOM      2  O   UNL     1      -3.698 -11.160  17.615  0.00  0.00    -0.439 OA
ATOM      6  N   UNL     1      -5.438 -11.537  16.214  0.00  0.00    -0.213 NA
ATOM     12  C   UNL     1      -5.011 -11.487  17.456  0.00  0.00    +0.201 A 
ATOM     15  C   UNL     1      -4.321 -11.216  15.481  0.00  0.00    +0.111 A 
ATOM     16  C   UNL     1      -3.253 -10.985  16.336  0.00  0.00    +0.155 A 
ATOM     17  C   UNL     1      -4.119 -11.099  14.098  0.00  0.00    +0.058 A 
ATOM     18  C   UNL     1      -2.838 -10.751  13.647  0.00  0.00    +0.090 A 
ATOM     19  C   UNL     1      -1.972 -10.639  15.926  0.00  0.00    +0.050 A 
ATOM     21  C   UNL     1      -1.787 -10.526  14.544  0.00  0.00    +0.030 A 
ENDROOT
BRANCH  12   8
ATOM      5  N   UNL     1      -7.904 -12.343  19.533  0.00  0.00    -0.296 NA
ATOM      8  C   UNL     1      -5.785 -11.746  18.727  0.00  0.00    +0.090 C 
ATOM      9  C   UNL     1      -6.477 -10.508  19.326  0.00  0.00    +0.029 C 
ATOM     10  C   UNL     1      -6.914 -12.769  18.544  0.00  0.00    +0.097 C 
ATOM     11  C   UNL     1      -7.949 -10.886  19.420  0.00  0.00    +0.085 C 
BRANCH   5  13
ATOM     13  C   UNL     1      -9.206 -12.956  19.315  0.00  0.00    +0.139 C 
BRANCH  13  14
ATOM      7  N   UNL     1     -10.979 -13.336  20.937  0.00  0.00    -0.259 NA
ATOM     14  C   UNL     1      -9.719 -13.641  20.554  0.00  0.00    +0.055 A 
ATOM     20  C   UNL     1      -8.897 -14.529  21.229  0.00  0.00    +0.024 A 
ATOM     23  C   UNL     1      -9.401 -15.144  22.369  0.00  0.00    +0.003 A 
ATOM     24  C   UNL     1     -11.435 -13.954  22.050  0.00  0.00    +0.111 A 
ATOM     25  C   UNL     1     -10.693 -14.857  22.794  0.00  0.00    +0.020 A 
ENDBRANCH  13  14
ENDBRANCH   5  13
ENDBRANCH  12   8
BRANCH  18   1
ATOM      1  S   UNL     1      -2.549 -10.597  11.928  0.00  0.00    -0.003 S 
ATOM      3  O   UNL     1      -1.359  -9.786  11.724  0.00  0.00    -0.169 OA
ATOM      4  O   UNL     1      -2.631 -11.927  11.342  0.00  0.00    -0.169 OA
BRANCH   1  22
ATOM     22  C   UNL     1      -3.932  -9.650  11.334  0.00  0.00    +0.168 C 
ATOM     26  C   UNL     1      -3.841  -9.413   9.843  0.00  0.00    +0.028 C 
ENDBRANCH   1  22
ENDBRANCH  18   1
TORSDOF 5
ENDMDL
MODEL 7
REMARK VINA RESULT:      -6.2      3.724     10.360
REMARK  Name = 51137140
REMARK  6 active torsions:
REMARK  status: ('A' for Active; 'I' for Inactive)
REMARK    1  A    between atoms: S_1  and  C_18
REMARK    2  A    between atoms: S_1  and  C_22
REMARK    3  A    between atoms: N_5  and  C_13
REMARK    4  A    between atoms: C_8  and  C_12
REMARK    5  A    between atoms: C_13  and  C_14
REMARK    6  A    between atoms: C_22  and  C_26
REMARK                            x       y       z     vdW  Elec       q    Type
REMARK                         _______ _______ _______ _____ _____    ______ ____
ROOT
ATOM      2  O   UNL     1      16.407   9.332  21.059  0.00  0.00    -0.439 OA
ATOM      6  N   UNL     1      15.973   7.324  20.102  0.00  0.00    -0.213 NA
ATOM     12  C   UNL     1      15.524   8.521  20.411  0.00  0.00    +0.201 A 
ATOM     15  C   UNL     1      17.261   7.335  20.582  0.00  0.00    +0.111 A 
ATOM     16  C   UNL     1      17.529   8.563  21.169  0.00  0.00    +0.155 A 
ATOM     17  C   UNL     1      18.265   6.357  20.567  0.00  0.00    +0.058 A 
ATOM     18  C   UNL     1      19.501   6.673  21.149  0.00  0.00    +0.090 A 
ATOM     19  C   UNL     1      18.739   8.912  21.756  0.00  0.00    +0.050 A 
ATOM     21  C   UNL     1      19.731   7.926  21.732  0.00  0.00    +0.030 A 
ENDROOT
BRANCH  12   8
ATOM      5  N   UNL     1      12.022   9.373  21.067  0.00  0.00    -0.296 NA
ATOM      8  C   UNL     1      14.160   9.112  20.140  0.00  0.00    +0.090 C 
ATOM      9  C   UNL     1      13.174   8.164  19.435  0.00  0.00    +0.029 C 
ATOM     10  C   UNL     1      13.432   9.548  21.419  0.00  0.00    +0.097 C 
ATOM     11  C   UNL     1      11.965   8.095  20.360  0.00  0.00    +0.085 C 
BRANCH   5  13
ATOM     13  C   UNL     1      11.152   9.402  22.233  0.00  0.00    +0.139 C 
BRANCH  13  14
ATOM      7  N   UNL     1      10.980  11.812  21.952  0.00  0.00    -0.259 NA
ATOM     14  C   UNL     1      11.050  10.783  22.824  0.00  0.00    +0.055 A 
ATOM     20  C   UNL     1      11.035  10.931  24.202  0.00  0.00    +0.024 A 
ATOM     23  C   UNL     1      10.940  12.219  24.717  0.00  0.00    +0.003 A 
ATOM     24  C   UNL     1      10.888  13.050  22.489  0.00  0.00    +0.111 A 
ATOM     25  C   UNL     1      10.865  13.304  23.851  0.00  0.00    +0.020 A 
ENDBRANCH  13  14
ENDBRANCH   5  13
ENDBRANCH  12   8
BRANCH  18   1
ATOM      1  S   UNL     1      20.778   5.477  21.150  0.00  0.00    -0.003 S 
ATOM      3  O   UNL     1      21.102   5.139  22.526  0.00  0.00    -0.169 OA
ATOM      4  O   UNL     1      20.405   4.428  20.212  0.00  0.00    -0.169 OA
BRANCH   1  22
ATOM     22  C   UNL     1      22.184   6.337  20.480  0.00  0.00    +0.168 C 
ATOM     26  C   UNL     1      23.398   6.190  21.369  0.00  0.00    +0.028 C 
ENDBRANCH   1  22
ENDBRANCH  18   1
TORSDOF 5
ENDMDL
MODEL 8
REMARK VINA RESULT:      -6.2     28.442     30.967
REMARK  Name = 51137140
REMARK  6 active torsions:
REMARK  status: ('A' for Active; 'I' for Inactive)
REMARK    1  A    between atoms: S_1  and  C_18
REMARK    2  A    between atoms: S_1  and  C_22
REMARK    3  A    between atoms: N_5  and  C_13
REMARK    4  A    between atoms: C_8  and  C_12
REMARK    5  A    between atoms: C_13  and  C_14
REMARK    6  A    between atoms: C_22  and  C_26
REMARK                            x       y       z     vdW  Elec       q    Type
REMARK                         _______ _______ _______ _____ _____    ______ ____
ROOT
ATOM      2  O   UNL     1      -7.870  -8.865  16.723  0.00  0.00    -0.439 OA
ATOM      6  N   UNL     1      -7.412 -10.812  17.788  0.00  0.00    -0.213 NA
ATOM     12  C   UNL     1      -6.972  -9.850  17.007  0.00  0.00    +0.201 A 
ATOM     15  C   UNL     1      -8.709 -10.439  18.051  0.00  0.00    +0.111 A 
ATOM     16  C   UNL     1      -8.992  -9.248  17.399  0.00  0.00    +0.155 A 
ATOM     17  C   UNL     1      -9.711 -11.045  18.822  0.00  0.00    +0.058 A 
ATOM     18  C   UNL     1     -10.958 -10.410  18.896  0.00  0.00    +0.090 A 
ATOM     19  C   UNL     1     -10.214  -8.590  17.449  0.00  0.00    +0.050 A 
ATOM     21  C   UNL     1     -11.203  -9.207  18.223  0.00  0.00    +0.030 A 
ENDROOT
BRANCH  12   8
ATOM      5  N   UNL     1      -4.151 -10.656  14.813  0.00  0.00    -0.296 NA
ATOM      8  C   UNL     1      -5.605  -9.697  16.383  0.00  0.00    +0.090 C 
ATOM      9  C   UNL     1      -4.474 -10.442  17.115  0.00  0.00    +0.029 C 
ATOM     10  C   UNL     1      -5.542 -10.218  14.941  0.00  0.00    +0.097 C 
ATOM     11  C   UNL     1      -3.859 -11.355  16.064  0.00  0.00    +0.085 C 
BRANCH   5  13
ATOM     13  C   UNL     1      -3.939 -11.498  13.645  0.00  0.00    +0.139 C 
BRANCH  13  14
ATOM      7  N   UNL     1      -4.631 -10.355  11.611  0.00  0.00    -0.259 NA
ATOM     14  C   UNL     1      -3.601 -10.686  12.422  0.00  0.00    +0.055 A 
ATOM     20  C   UNL     1      -2.284 -10.326  12.190  0.00  0.00    +0.024 A 
ATOM     23  C   UNL     1      -2.005  -9.576  11.053  0.00  0.00    +0.003 A 
ATOM     24  C   UNL     1      -4.321  -9.626  10.515  0.00  0.00    +0.111 A 
ATOM     25  C   UNL     1      -3.037  -9.215  10.194  0.00  0.00    +0.020 A 
ENDBRANCH  13  14
ENDBRANCH   5  13
ENDBRANCH  12   8
BRANCH  18   1
ATOM      1  S   UNL     1     -12.234 -11.138  19.848  0.00  0.00    -0.003 S 
ATOM      3  O   UNL     1     -13.320 -11.522  18.961  0.00  0.00    -0.169 OA
ATOM      4  O   UNL     1     -11.625 -12.130  20.723  0.00  0.00    -0.169 OA
BRANCH   1  22
ATOM     22  C   UNL     1     -12.836  -9.808  20.863  0.00  0.00    +0.168 C 
ATOM     26  C   UNL     1     -14.286  -9.498  20.566  0.00  0.00    +0.028 C 
ENDBRANCH   1  22
ENDBRANCH  18   1
TORSDOF 5
ENDMDL
MODEL 9
REMARK VINA RESULT:      -6.1     28.073     32.007
REMARK  Name = 51137140
REMARK  6 active torsions:
REMARK  status: ('A' for Active; 'I' for Inactive)
REMARK    1  A    between atoms: S_1  and  C_18
REMARK    2  A    between atoms: S_1  and  C_22
REMARK    3  A    between atoms: N_5  and  C_13
REMARK    4  A    between atoms: C_8  and  C_12
REMARK    5  A    between atoms: C_13  and  C_14
REMARK    6  A    between atoms: C_22  and  C_26
REMARK                            x       y       z     vdW  Elec       q    Type
REMARK                         _______ _______ _______ _____ _____    ______ ____
ROOT
ATOM      2  O   UNL     1      -7.294 -10.366  17.174  0.00  0.00    -0.439 OA
ATOM      6  N   UNL     1      -7.151  -9.862  14.970  0.00  0.00    -0.213 NA
ATOM     12  C   UNL     1      -7.915  -9.947  16.036  0.00  0.00    +0.201 A 
ATOM     15  C   UNL     1      -5.917 -10.256  15.431  0.00  0.00    +0.111 A 
ATOM     16  C   UNL     1      -6.002 -10.566  16.781  0.00  0.00    +0.155 A 
ATOM     17  C   UNL     1      -4.680 -10.382  14.784  0.00  0.00    +0.058 A 
ATOM     18  C   UNL     1      -3.583 -10.817  15.539  0.00  0.00    +0.090 A 
ATOM     19  C   UNL     1      -4.938 -11.000  17.561  0.00  0.00    +0.050 A 
ATOM     21  C   UNL     1      -3.711 -11.120  16.900  0.00  0.00    +0.030 A 
ENDROOT
BRANCH  12   8
ATOM      5  N   UNL     1     -10.910  -7.884  16.478  0.00  0.00    -0.296 NA
ATOM      8  C   UNL     1      -9.389  -9.641  16.162  0.00  0.00    +0.090 C 
ATOM      9  C   UNL     1      -9.938  -9.687  17.599  0.00  0.00    +0.029 C 
ATOM     10  C   UNL     1      -9.756  -8.241  15.652  0.00  0.00    +0.097 C 
ATOM     11  C   UNL     1     -10.554  -8.313  17.830  0.00  0.00    +0.085 C 
BRANCH   5  13
ATOM     13  C   UNL     1     -11.224  -6.465  16.411  0.00  0.00    +0.139 C 
BRANCH  13  14
ATOM      7  N   UNL     1     -12.004  -5.440  14.347  0.00  0.00    -0.259 NA
ATOM     14  C   UNL     1     -12.330  -6.180  15.430  0.00  0.00    +0.055 A 
ATOM     20  C   UNL     1     -13.600  -6.677  15.676  0.00  0.00    +0.024 A 
ATOM     23  C   UNL     1     -14.599  -6.397  14.750  0.00  0.00    +0.003 A 
ATOM     24  C   UNL     1     -13.001  -5.188  13.469  0.00  0.00    +0.111 A 
ATOM     25  C   UNL     1     -14.302  -5.639  13.623  0.00  0.00    +0.020 A 
ENDBRANCH  13  14
ENDBRANCH   5  13
ENDBRANCH  12   8
BRANCH  18   1
ATOM      1  S   UNL     1      -2.023 -10.988  14.764  0.00  0.00    -0.003 S 
ATOM      3  O   UNL     1      -1.082 -10.079  15.400  0.00  0.00    -0.169 OA
ATOM      4  O   UNL     1      -1.719 -12.409  14.684  0.00  0.00    -0.169 OA
BRANCH   1  22
ATOM     22  C   UNL     1      -2.288 -10.390  13.110  0.00  0.00    +0.168 C 
ATOM     26  C   UNL     1      -2.338 -11.526  12.113  0.00  0.00    +0.028 C 
ENDBRANCH   1  22
ENDBRANCH  18   1
TORSDOF 5
ENDMDL
MODEL 10
REMARK VINA RESULT:      -6.1     27.878     31.462
REMARK  Name = 51137140
REMARK  6 active torsions:
REMARK  status: ('A' for Active; 'I' for Inactive)
REMARK    1  A    between atoms: S_1  and  C_18
REMARK    2  A    between atoms: S_1  and  C_22
REMARK    3  A    between atoms: N_5  and  C_13
REMARK    4  A    between atoms: C_8  and  C_12
REMARK    5  A    between atoms: C_13  and  C_14
REMARK    6  A    between atoms: C_22  and  C_26
REMARK                            x       y       z     vdW  Elec       q    Type
REMARK                         _______ _______ _______ _____ _____    ______ ____
ROOT
ATOM      2  O   UNL     1      -8.679  -9.696  18.036  0.00  0.00    -0.439 OA
ATOM      6  N   UNL     1      -8.736 -11.017  19.876  0.00  0.00    -0.213 NA
ATOM     12  C   UNL     1      -7.998 -10.434  18.957  0.00  0.00    +0.201 A 
ATOM     15  C   UNL     1     -10.015 -10.637  19.544  0.00  0.00    +0.111 A 
ATOM     16  C   UNL     1      -9.983  -9.828  18.417  0.00  0.00    +0.155 A 
ATOM     17  C   UNL     1     -11.253 -10.929  20.134  0.00  0.00    +0.058 A 
ATOM     18  C   UNL     1     -12.405 -10.383  19.550  0.00  0.00    +0.090 A 
ATOM     19  C   UNL     1     -11.101  -9.271  17.811  0.00  0.00    +0.050 A 
ATOM     21  C   UNL     1     -12.328  -9.571  18.412  0.00  0.00    +0.030 A 
ENDROOT
BRANCH  12   8
ATOM      5  N   UNL     1      -4.786 -11.466  17.529  0.00  0.00    -0.296 NA
ATOM      8  C   UNL     1      -6.497 -10.477  18.791  0.00  0.00    +0.090 C 
ATOM      9  C   UNL     1      -5.784 -11.545  19.639  0.00  0.00    +0.029 C 
ATOM     10  C   UNL     1      -6.062 -10.771  17.349  0.00  0.00    +0.097 C 
ATOM     11  C   UNL     1      -5.015 -12.394  18.635  0.00  0.00    +0.085 C 
BRANCH   5  13
ATOM     13  C   UNL     1      -4.348 -12.143  16.318  0.00  0.00    +0.139 C 
BRANCH  13  14
ATOM      7  N   UNL     1      -3.437 -11.219  14.260  0.00  0.00    -0.259 NA
ATOM     14  C   UNL     1      -3.281 -11.364  15.595  0.00  0.00    +0.055 A 
ATOM     20  C   UNL     1      -2.215 -10.846  16.312  0.00  0.00    +0.024 A 
ATOM     23  C   UNL     1      -1.247 -10.132  15.615  0.00  0.00    +0.003 A 
ATOM     24  C   UNL     1      -2.476 -10.518  13.616  0.00  0.00    +0.111 A 
ATOM     25  C   UNL     1      -1.373  -9.960  14.241  0.00  0.00    +0.020 A 
ENDBRANCH  13  14
ENDBRANCH   5  13
ENDBRANCH  12   8
BRANCH  18   1
ATOM      1  S   UNL     1     -13.968 -10.726  20.258  0.00  0.00    -0.003 S 
ATOM      3  O   UNL     1     -14.591  -9.472  20.649  0.00  0.00    -0.169 OA
ATOM      4  O   UNL     1     -14.669 -11.638  19.367  0.00  0.00    -0.169 OA
BRANCH   1  22
ATOM     22  C   UNL     1     -13.587 -11.608  21.755  0.00  0.00    +0.168 C 
ATOM     26  C   UNL     1     -14.766 -12.428  22.230  0.00  0.00    +0.028 C 
ENDBRANCH   1  22
ENDBRANCH  18   1
TORSDOF 5
ENDMDL
