MODEL 1
REMARK VINA RESULT:      -6.6      0.000      0.000
REMARK  Name = 25390144
REMARK  10 active torsions:
REMARK  status: ('A' for Active; 'I' for Inactive)
REMARK    1  A    between atoms: O_5  and  C_17
REMARK    2  A    between atoms: O_6  and  C_18
REMARK    3  A    between atoms: O_9  and  C_30
REMARK    4  A    between atoms: O_9  and  C_31
REMARK    5  A    between atoms: N_10  and  C_20
REMARK    6  A    between atoms: C_13  and  C_21
REMARK    7  A    between atoms: C_14  and  C_20
REMARK    8  A    between atoms: C_19  and  C_22
REMARK    9  A    between atoms: C_22  and  C_23
REMARK   10  A    between atoms: C_24  and  C_25
REMARK                            x       y       z     vdW  Elec       q    Type
REMARK                         _______ _______ _______ _____ _____    ______ ____
ROOT
ATOM      4  O   UNL     1       9.540   5.936   5.967  0.00  0.00    -0.366 OA
ATOM     14  C   UNL     1       9.290   6.191   7.369  0.00  0.00    +0.167 C 
ATOM     17  C   UNL     1      10.648   6.157   8.061  0.00  0.00    +0.176 C 
ATOM     18  C   UNL     1      11.579   6.597   6.950  0.00  0.00    +0.175 C 
ATOM     19  C   UNL     1      10.961   5.909   5.745  0.00  0.00    +0.159 C 
ENDROOT
BRANCH  17   5
ATOM      5  O   UNL     1      10.923   4.806   8.431  0.00  0.00    -0.387 OA
ATOM     33  H   UNL     1      11.332   4.372   7.663  0.00  0.00    +0.210 HD
ENDBRANCH  17   5
BRANCH  18   6
ATOM      6  O   UNL     1      12.919   6.205   7.155  0.00  0.00    -0.387 OA
ATOM     34  H   UNL     1      13.351   6.179   6.284  0.00  0.00    +0.210 HD
ENDBRANCH  18   6
BRANCH  14  20
ATOM     20  C   UNL     1       8.597   7.542   7.480  0.00  0.00    +0.138 C 
BRANCH  20  10
ATOM      7  O   UNL     1       9.316   9.685   5.652  0.00  0.00    -0.276 OA
ATOM     10  N   UNL     1       7.950   7.895   6.251  0.00  0.00    -0.313 N 
ATOM     21  C   UNL     1       8.366   8.941   5.439  0.00  0.00    +0.216 C 
ATOM     32  H   UNL     1       7.144   7.346   5.969  0.00  0.00    +0.149 HD
BRANCH  21  13
ATOM     13  C   UNL     1       7.547   9.128   4.205  0.00  0.00    +0.075 C 
ATOM     15  C   UNL     1       8.061  10.021   3.115  0.00  0.00    +0.013 C 
ATOM     16  C   UNL     1       8.026   8.535   2.913  0.00  0.00    +0.013 C 
ENDBRANCH  21  13
ENDBRANCH  20  10
ENDBRANCH  14  20
BRANCH  19  22
ATOM     22  C   UNL     1      11.285   6.594   4.429  0.00  0.00    +0.133 C 
BRANCH  22  23
ATOM      8  O   UNL     1      11.103   4.326   3.553  0.00  0.00    -0.338 OA
ATOM     11  N   UNL     1      11.113   5.919   1.979  0.00  0.00    -0.191 NA
ATOM     12  N   UNL     1      10.999   3.660   2.325  0.00  0.00    -0.056 NA
ATOM     23  C   UNL     1      11.165   5.651   3.259  0.00  0.00    +0.230 A 
ATOM     24  C   UNL     1      11.010   4.667   1.445  0.00  0.00    +0.202 A 
BRANCH  24  25
ATOM     25  C   UNL     1      10.921   4.456   0.030  0.00  0.00    +0.023 A 
ATOM     26  C   UNL     1       9.951   5.125  -0.716  0.00  0.00    +0.015 A 
ATOM     27  C   UNL     1      11.804   3.579  -0.601  0.00  0.00    +0.015 A 
ATOM     28  C   UNL     1       9.863   4.918  -2.093  0.00  0.00    +0.046 A 
ATOM     29  C   UNL     1      11.717   3.372  -1.977  0.00  0.00    +0.046 A 
ATOM     30  C   UNL     1      10.746   4.042  -2.723  0.00  0.00    +0.130 A 
BRANCH  30   9
ATOM      9  O   UNL     1      10.662   3.839  -4.066  0.00  0.00    -0.406 OA
BRANCH   9  31
ATOM      1  F   UNL     1       9.915   2.445  -5.677  0.00  0.00    -0.133 F 
ATOM      2  F   UNL     1       9.085   2.230  -3.667  0.00  0.00    -0.133 F 
ATOM      3  F   UNL     1       8.543   3.969  -4.920  0.00  0.00    -0.133 F 
ATOM     31  C   UNL     1       9.538   3.125  -4.570  0.00  0.00    +0.575 C 
ENDBRANCH   9  31
ENDBRANCH  30   9
ENDBRANCH  24  25
ENDBRANCH  22  23
ENDBRANCH  19  22
TORSDOF 10
ENDMDL
MODEL 2
REMARK VINA RESULT:      -6.6     25.053     27.513
REMARK  Name = 25390144
REMARK  10 active torsions:
REMARK  status: ('A' for Active; 'I' for Inactive)
REMARK    1  A    between atoms: O_5  and  C_17
REMARK    2  A    between atoms: O_6  and  C_18
REMARK    3  A    between atoms: O_9  and  C_30
REMARK    4  A    between atoms: O_9  and  C_31
REMARK    5  A    between atoms: N_10  and  C_20
REMARK    6  A    between atoms: C_13  and  C_21
REMARK    7  A    between atoms: C_14  and  C_20
REMARK    8  A    between atoms: C_19  and  C_22
REMARK    9  A    between atoms: C_22  and  C_23
REMARK   10  A    between atoms: C_24  and  C_25
REMARK                            x       y       z     vdW  Elec       q    Type
REMARK                         _______ _______ _______ _____ _____    ______ ____
ROOT
ATOM      4  O   UNL     1      -3.550 -12.098  11.680  0.00  0.00    -0.366 OA
ATOM     14  C   UNL     1      -4.063 -13.432  11.902  0.00  0.00    +0.167 C 
ATOM     17  C   UNL     1      -2.896 -14.257  12.433  0.00  0.00    +0.176 C 
ATOM     18  C   UNL     1      -2.057 -13.207  13.130  0.00  0.00    +0.175 C 
ATOM     19  C   UNL     1      -2.205 -12.025  12.187  0.00  0.00    +0.159 C 
ENDROOT
BRANCH  17   5
ATOM      5  O   UNL     1      -2.189 -14.795  11.315  0.00  0.00    -0.387 OA
ATOM     33  H   UNL     1      -1.296 -14.410  11.325  0.00  0.00    +0.210 HD
ENDBRANCH  17   5
BRANCH  18   6
ATOM      6  O   UNL     1      -0.708 -13.587  13.294  0.00  0.00    -0.387 OA
ATOM     34  H   UNL     1      -0.661 -14.552  13.182  0.00  0.00    +0.210 HD
ENDBRANCH  18   6
BRANCH  14  20
ATOM     20  C   UNL     1      -5.218 -13.329  12.888  0.00  0.00    +0.138 C 
BRANCH  20  10
ATOM      7  O   UNL     1      -7.696 -12.433  14.118  0.00  0.00    -0.276 OA
ATOM     10  N   UNL     1      -5.729 -11.992  12.950  0.00  0.00    -0.313 N 
ATOM     21  C   UNL     1      -6.929 -11.656  13.562  0.00  0.00    +0.216 C 
ATOM     32  H   UNL     1      -5.176 -11.256  12.520  0.00  0.00    +0.149 HD
BRANCH  21  13
ATOM     13  C   UNL     1      -7.264 -10.203  13.509  0.00  0.00    +0.075 C 
ATOM     15  C   UNL     1      -6.446  -9.296  12.637  0.00  0.00    +0.013 C 
ATOM     16  C   UNL     1      -7.856  -9.635  12.252  0.00  0.00    +0.013 C 
ENDBRANCH  21  13
ENDBRANCH  20  10
ENDBRANCH  14  20
BRANCH  19  22
ATOM     22  C   UNL     1      -1.987 -10.684  12.865  0.00  0.00    +0.133 C 
BRANCH  22  23
ATOM      8  O   UNL     1      -1.497 -10.673  15.253  0.00  0.00    -0.338 OA
ATOM     11  N   UNL     1      -3.683 -10.716  14.765  0.00  0.00    -0.191 NA
ATOM     12  N   UNL     1      -2.171 -10.687  16.482  0.00  0.00    -0.056 NA
ATOM     23  C   UNL     1      -2.461 -10.692  14.295  0.00  0.00    +0.230 A 
ATOM     24  C   UNL     1      -3.455 -10.711  16.111  0.00  0.00    +0.202 A 
BRANCH  24  25
ATOM     25  C   UNL     1      -4.531 -10.732  17.058  0.00  0.00    +0.023 A 
ATOM     26  C   UNL     1      -4.386 -11.417  18.264  0.00  0.00    +0.015 A 
ATOM     27  C   UNL     1      -5.723 -10.067  16.772  0.00  0.00    +0.015 A 
ATOM     28  C   UNL     1      -5.434 -11.438  19.185  0.00  0.00    +0.046 A 
ATOM     29  C   UNL     1      -6.771 -10.087  17.692  0.00  0.00    +0.046 A 
ATOM     30  C   UNL     1      -6.627 -10.773  18.899  0.00  0.00    +0.130 A 
BRANCH  30   9
ATOM      9  O   UNL     1      -7.649 -10.792  19.796  0.00  0.00    -0.406 OA
BRANCH   9  31
ATOM      1  F   UNL     1      -8.018 -12.950  20.348  0.00  0.00    -0.133 F 
ATOM      2  F   UNL     1      -9.715 -11.574  20.395  0.00  0.00    -0.133 F 
ATOM      3  F   UNL     1      -8.848 -12.215  18.465  0.00  0.00    -0.133 F 
ATOM     31  C   UNL     1      -8.572 -11.875  19.742  0.00  0.00    +0.575 C 
ENDBRANCH   9  31
ENDBRANCH  30   9
ENDBRANCH  24  25
ENDBRANCH  22  23
ENDBRANCH  19  22
TORSDOF 10
ENDMDL
MODEL 3
REMARK VINA RESULT:      -6.6      5.081      8.092
REMARK  Name = 25390144
REMARK  10 active torsions:
REMARK  status: ('A' for Active; 'I' for Inactive)
REMARK    1  A    between atoms: O_5  and  C_17
REMARK    2  A    between atoms: O_6  and  C_18
REMARK    3  A    between atoms: O_9  and  C_30
REMARK    4  A    between atoms: O_9  and  C_31
REMARK    5  A    between atoms: N_10  and  C_20
REMARK    6  A    between atoms: C_13  and  C_21
REMARK    7  A    between atoms: C_14  and  C_20
REMARK    8  A    between atoms: C_19  and  C_22
REMARK    9  A    between atoms: C_22  and  C_23
REMARK   10  A    between atoms: C_24  and  C_25
REMARK                            x       y       z     vdW  Elec       q    Type
REMARK                         _______ _______ _______ _____ _____    ______ ____
ROOT
ATOM      4  O   UNL     1      14.665   4.612   1.911  0.00  0.00    -0.366 OA
ATOM     14  C   UNL     1      15.202   5.934   1.673  0.00  0.00    +0.167 C 
ATOM     17  C   UNL     1      15.505   6.012   0.181  0.00  0.00    +0.176 C 
ATOM     18  C   UNL     1      14.486   5.053  -0.398  0.00  0.00    +0.175 C 
ATOM     19  C   UNL     1      14.477   3.951   0.647  0.00  0.00    +0.159 C 
ENDROOT
BRANCH  17   5
ATOM      5  O   UNL     1      16.827   5.517  -0.030  0.00  0.00    -0.387 OA
ATOM     33  H   UNL     1      16.752   4.572  -0.246  0.00  0.00    +0.210 HD
ENDBRANCH  17   5
BRANCH  18   6
ATOM      6  O   UNL     1      14.838   4.568  -1.676  0.00  0.00    -0.387 OA
ATOM     34  H   UNL     1      14.654   5.275  -2.318  0.00  0.00    +0.210 HD
ENDBRANCH  18   6
BRANCH  14  20
ATOM     20  C   UNL     1      14.161   6.948   2.125  0.00  0.00    +0.138 C 
BRANCH  20  10
ATOM      7  O   UNL     1      12.471   8.647   3.772  0.00  0.00    -0.276 OA
ATOM     10  N   UNL     1      13.846   6.784   3.513  0.00  0.00    -0.313 N 
ATOM     21  C   UNL     1      13.025   7.651   4.222  0.00  0.00    +0.216 C 
ATOM     32  H   UNL     1      14.250   5.987   3.996  0.00  0.00    +0.149 HD
BRANCH  21  13
ATOM     13  C   UNL     1      12.832   7.285   5.656  0.00  0.00    +0.075 C 
ATOM     15  C   UNL     1      14.037   7.008   6.507  0.00  0.00    +0.013 C 
ATOM     16  C   UNL     1      13.240   8.262   6.719  0.00  0.00    +0.013 C 
ENDBRANCH  21  13
ENDBRANCH  20  10
ENDBRANCH  14  20
BRANCH  19  22
ATOM     22  C   UNL     1      13.183   3.157   0.674  0.00  0.00    +0.133 C 
BRANCH  22  23
ATOM      8  O   UNL     1      11.099   4.392   0.401  0.00  0.00    -0.338 OA
ATOM     11  N   UNL     1      11.833   4.288   2.514  0.00  0.00    -0.191 NA
ATOM     12  N   UNL     1      10.164   5.093   1.173  0.00  0.00    -0.056 NA
ATOM     23  C   UNL     1      12.048   3.951   1.267  0.00  0.00    +0.230 A 
ATOM     24  C   UNL     1      10.666   4.987   2.407  0.00  0.00    +0.202 A 
BRANCH  24  25
ATOM     25  C   UNL     1      10.026   5.567   3.553  0.00  0.00    +0.023 A 
ATOM     26  C   UNL     1       9.935   4.843   4.741  0.00  0.00    +0.015 A 
ATOM     27  C   UNL     1       9.495   6.854   3.477  0.00  0.00    +0.015 A 
ATOM     28  C   UNL     1       9.311   5.406   5.855  0.00  0.00    +0.046 A 
ATOM     29  C   UNL     1       8.873   7.418   4.590  0.00  0.00    +0.046 A 
ATOM     30  C   UNL     1       8.780   6.694   5.779  0.00  0.00    +0.130 A 
BRANCH  30   9
ATOM      9  O   UNL     1       8.172   7.245   6.865  0.00  0.00    -0.406 OA
BRANCH   9  31
ATOM      1  F   UNL     1       8.787   8.764   8.417  0.00  0.00    -0.133 F 
ATOM      2  F   UNL     1       8.568   6.683   9.047  0.00  0.00    -0.133 F 
ATOM      3  F   UNL     1      10.270   7.293   7.776  0.00  0.00    -0.133 F 
ATOM     31  C   UNL     1       8.957   7.480   8.029  0.00  0.00    +0.575 C 
ENDBRANCH   9  31
ENDBRANCH  30   9
ENDBRANCH  24  25
ENDBRANCH  22  23
ENDBRANCH  19  22
TORSDOF 10
ENDMDL
MODEL 4
REMARK VINA RESULT:      -6.5     25.407     27.932
REMARK  Name = 25390144
REMARK  10 active torsions:
REMARK  status: ('A' for Active; 'I' for Inactive)
REMARK    1  A    between atoms: O_5  and  C_17
REMARK    2  A    between atoms: O_6  and  C_18
REMARK    3  A    between atoms: O_9  and  C_30
REMARK    4  A    between atoms: O_9  and  C_31
REMARK    5  A    between atoms: N_10  and  C_20
REMARK    6  A    between atoms: C_13  and  C_21
REMARK    7  A    between atoms: C_14  and  C_20
REMARK    8  A    between atoms: C_19  and  C_22
REMARK    9  A    between atoms: C_22  and  C_23
REMARK   10  A    between atoms: C_24  and  C_25
REMARK                            x       y       z     vdW  Elec       q    Type
REMARK                         _______ _______ _______ _____ _____    ______ ____
ROOT
ATOM      4  O   UNL     1      -3.484 -11.877  11.402  0.00  0.00    -0.366 OA
ATOM     14  C   UNL     1      -4.139 -13.158  11.557  0.00  0.00    +0.167 C 
ATOM     17  C   UNL     1      -3.112 -14.090  12.191  0.00  0.00    +0.176 C 
ATOM     18  C   UNL     1      -2.253 -13.124  12.979  0.00  0.00    +0.175 C 
ATOM     19  C   UNL     1      -2.196 -11.931  12.040  0.00  0.00    +0.159 C 
ENDROOT
BRANCH  17   5
ATOM      5  O   UNL     1      -2.350 -14.689  11.143  0.00  0.00    -0.387 OA
ATOM     33  H   UNL     1      -2.937 -15.307  10.674  0.00  0.00    +0.210 HD
ENDBRANCH  17   5
BRANCH  18   6
ATOM      6  O   UNL     1      -0.968 -13.629  13.271  0.00  0.00    -0.387 OA
ATOM     34  H   UNL     1      -0.320 -12.967  12.975  0.00  0.00    +0.210 HD
ENDBRANCH  18   6
BRANCH  14  20
ATOM     20  C   UNL     1      -5.371 -12.950  12.425  0.00  0.00    +0.138 C 
BRANCH  20  10
ATOM      7  O   UNL     1      -7.080 -12.629  14.756  0.00  0.00    -0.276 OA
ATOM     10  N   UNL     1      -5.195 -13.528  13.724  0.00  0.00    -0.313 N 
ATOM     21  C   UNL     1      -6.067 -13.318  14.783  0.00  0.00    +0.216 C 
ATOM     32  H   UNL     1      -4.383 -14.123  13.868  0.00  0.00    +0.149 HD
BRANCH  21  13
ATOM     13  C   UNL     1      -5.689 -14.021  16.044  0.00  0.00    +0.075 C 
ATOM     15  C   UNL     1      -6.729 -14.230  17.105  0.00  0.00    +0.013 C 
ATOM     16  C   UNL     1      -6.230 -15.396  16.304  0.00  0.00    +0.013 C 
ENDBRANCH  21  13
ENDBRANCH  20  10
ENDBRANCH  14  20
BRANCH  19  22
ATOM     22  C   UNL     1      -1.923 -10.618  12.751  0.00  0.00    +0.133 C 
BRANCH  22  23
ATOM      8  O   UNL     1      -1.427 -10.669  15.137  0.00  0.00    -0.338 OA
ATOM     11  N   UNL     1      -3.614 -10.649  14.656  0.00  0.00    -0.191 NA
ATOM     12  N   UNL     1      -2.097 -10.691  16.368  0.00  0.00    -0.056 NA
ATOM     23  C   UNL     1      -2.393 -10.644  14.183  0.00  0.00    +0.230 A 
ATOM     24  C   UNL     1      -3.382 -10.677  16.000  0.00  0.00    +0.202 A 
BRANCH  24  25
ATOM     25  C   UNL     1      -4.456 -10.691  16.951  0.00  0.00    +0.023 A 
ATOM     26  C   UNL     1      -5.658 -10.049  16.654  0.00  0.00    +0.015 A 
ATOM     27  C   UNL     1      -4.297 -11.346  18.172  0.00  0.00    +0.015 A 
ATOM     28  C   UNL     1      -6.703 -10.061  17.579  0.00  0.00    +0.046 A 
ATOM     29  C   UNL     1      -5.341 -11.358  19.097  0.00  0.00    +0.046 A 
ATOM     30  C   UNL     1      -6.543 -10.716  18.801  0.00  0.00    +0.130 A 
BRANCH  30   9
ATOM      9  O   UNL     1      -7.561 -10.728  19.704  0.00  0.00    -0.406 OA
BRANCH   9  31
ATOM      1  F   UNL     1      -7.951 -12.898  20.192  0.00  0.00    -0.133 F 
ATOM      2  F   UNL     1      -9.621 -11.495  20.338  0.00  0.00    -0.133 F 
ATOM      3  F   UNL     1      -8.825 -12.083  18.361  0.00  0.00    -0.133 F 
ATOM     31  C   UNL     1      -8.505 -11.793  19.641  0.00  0.00    +0.575 C 
ENDBRANCH   9  31
ENDBRANCH  30   9
ENDBRANCH  24  25
ENDBRANCH  22  23
ENDBRANCH  19  22
TORSDOF 10
ENDMDL
MODEL 5
REMARK VINA RESULT:      -6.4     25.563     28.082
REMARK  Name = 25390144
REMARK  10 active torsions:
REMARK  status: ('A' for Active; 'I' for Inactive)
REMARK    1  A    between atoms: O_5  and  C_17
REMARK    2  A    between atoms: O_6  and  C_18
REMARK    3  A    between atoms: O_9  and  C_30
REMARK    4  A    between atoms: O_9  and  C_31
REMARK    5  A    between atoms: N_10  and  C_20
REMARK    6  A    between atoms: C_13  and  C_21
REMARK    7  A    between atoms: C_14  and  C_20
REMARK    8  A    between atoms: C_19  and  C_22
REMARK    9  A    between atoms: C_22  and  C_23
REMARK   10  A    between atoms: C_24  and  C_25
REMARK                            x       y       z     vdW  Elec       q    Type
REMARK                         _______ _______ _______ _____ _____    ______ ____
ROOT
ATOM      4  O   UNL     1      -3.641 -11.433  17.328  0.00  0.00    -0.366 OA
ATOM     14  C   UNL     1      -3.894 -11.798  15.951  0.00  0.00    +0.167 C 
ATOM     17  C   UNL     1      -4.765 -13.049  15.991  0.00  0.00    +0.176 C 
ATOM     18  C   UNL     1      -5.508 -12.874  17.299  0.00  0.00    +0.175 C 
ATOM     19  C   UNL     1      -4.427 -12.280  18.186  0.00  0.00    +0.159 C 
ENDROOT
BRANCH  17   5
ATOM      5  O   UNL     1      -3.905 -14.186  16.058  0.00  0.00    -0.387 OA
ATOM     33  H   UNL     1      -3.503 -14.297  15.180  0.00  0.00    +0.210 HD
ENDBRANCH  17   5
BRANCH  18   6
ATOM      6  O   UNL     1      -6.014 -14.084  17.821  0.00  0.00    -0.387 OA
ATOM     34  H   UNL     1      -6.092 -13.976  18.785  0.00  0.00    +0.210 HD
ENDBRANCH  18   6
BRANCH  14  20
ATOM     20  C   UNL     1      -4.576 -10.618  15.273  0.00  0.00    +0.138 C 
BRANCH  20  10
ATOM      7  O   UNL     1      -2.167 -10.257  13.685  0.00  0.00    -0.276 OA
ATOM     10  N   UNL     1      -4.450 -10.695  13.848  0.00  0.00    -0.313 N 
ATOM     21  C   UNL     1      -3.251 -10.507  13.172  0.00  0.00    +0.216 C 
ATOM     32  H   UNL     1      -5.288 -10.897  13.312  0.00  0.00    +0.149 HD
BRANCH  21  13
ATOM     13  C   UNL     1      -3.353 -10.635  11.689  0.00  0.00    +0.075 C 
ATOM     15  C   UNL     1      -4.163  -9.631  10.923  0.00  0.00    +0.013 C 
ATOM     16  C   UNL     1      -2.666  -9.622  10.820  0.00  0.00    +0.013 C 
ENDBRANCH  21  13
ENDBRANCH  20  10
ENDBRANCH  14  20
BRANCH  19  22
ATOM     22  C   UNL     1      -4.977 -11.465  19.343  0.00  0.00    +0.133 C 
BRANCH  22  23
ATOM      8  O   UNL     1      -7.323 -11.479  20.006  0.00  0.00    -0.338 OA
ATOM     11  N   UNL     1      -6.903 -10.306  18.144  0.00  0.00    -0.191 NA
ATOM     12  N   UNL     1      -8.556 -10.968  19.581  0.00  0.00    -0.056 NA
ATOM     23  C   UNL     1      -6.404 -11.042  19.105  0.00  0.00    +0.230 A 
ATOM     24  C   UNL     1      -8.226 -10.288  18.478  0.00  0.00    +0.202 A 
BRANCH  24  25
ATOM     25  C   UNL     1      -9.193  -9.580  17.690  0.00  0.00    +0.023 A 
ATOM     26  C   UNL     1      -8.813  -8.988  16.486  0.00  0.00    +0.015 A 
ATOM     27  C   UNL     1     -10.513  -9.483  18.130  0.00  0.00    +0.015 A 
ATOM     28  C   UNL     1      -9.753  -8.298  15.720  0.00  0.00    +0.046 A 
ATOM     29  C   UNL     1     -11.453  -8.793  17.364  0.00  0.00    +0.046 A 
ATOM     30  C   UNL     1     -11.073  -8.201  16.160  0.00  0.00    +0.130 A 
BRANCH  30   9
ATOM      9  O   UNL     1     -11.991  -7.528  15.413  0.00  0.00    -0.406 OA
BRANCH   9  31
ATOM      1  F   UNL     1     -11.333  -5.582  14.478  0.00  0.00    -0.133 F 
ATOM      2  F   UNL     1     -13.296  -5.649  15.436  0.00  0.00    -0.133 F 
ATOM      3  F   UNL     1     -11.454  -5.685  16.657  0.00  0.00    -0.133 F 
ATOM     31  C   UNL     1     -12.029  -6.108  15.511  0.00  0.00    +0.575 C 
ENDBRANCH   9  31
ENDBRANCH  30   9
ENDBRANCH  24  25
ENDBRANCH  22  23
ENDBRANCH  19  22
TORSDOF 10
ENDMDL
MODEL 6
REMARK VINA RESULT:      -6.4     24.296     26.602
REMARK  Name = 25390144
REMARK  10 active torsions:
REMARK  status: ('A' for Active; 'I' for Inactive)
REMARK    1  A    between atoms: O_5  and  C_17
REMARK    2  A    between atoms: O_6  and  C_18
REMARK    3  A    between atoms: O_9  and  C_30
REMARK    4  A    between atoms: O_9  and  C_31
REMARK    5  A    between atoms: N_10  and  C_20
REMARK    6  A    between atoms: C_13  and  C_21
REMARK    7  A    between atoms: C_14  and  C_20
REMARK    8  A    between atoms: C_19  and  C_22
REMARK    9  A    between atoms: C_22  and  C_23
REMARK   10  A    between atoms: C_24  and  C_25
REMARK                            x       y       z     vdW  Elec       q    Type
REMARK                         _______ _______ _______ _____ _____    ______ ____
ROOT
ATOM      4  O   UNL     1      -5.363  -8.664  11.182  0.00  0.00    -0.366 OA
ATOM     14  C   UNL     1      -6.749  -8.746  10.778  0.00  0.00    +0.167 C 
ATOM     17  C   UNL     1      -6.747  -8.860   9.258  0.00  0.00    +0.176 C 
ATOM     18  C   UNL     1      -5.420  -9.540   8.994  0.00  0.00    +0.175 C 
ATOM     19  C   UNL     1      -4.528  -8.879  10.030  0.00  0.00    +0.159 C 
ENDROOT
BRANCH  17   5
ATOM      5  O   UNL     1      -6.743  -7.540   8.714  0.00  0.00    -0.387 OA
ATOM     33  H   UNL     1      -6.670  -7.624   7.748  0.00  0.00    +0.210 HD
ENDBRANCH  17   5
BRANCH  18   6
ATOM      6  O   UNL     1      -4.942  -9.344   7.681  0.00  0.00    -0.387 OA
ATOM     34  H   UNL     1      -5.229  -8.460   7.395  0.00  0.00    +0.210 HD
ENDBRANCH  18   6
BRANCH  14  20
ATOM     20  C   UNL     1      -7.364  -9.956  11.466  0.00  0.00    +0.138 C 
BRANCH  20  10
ATOM      7  O   UNL     1      -9.092  -9.601  13.778  0.00  0.00    -0.276 OA
ATOM     10  N   UNL     1      -6.995 -10.009  12.850  0.00  0.00    -0.313 N 
ATOM     21  C   UNL     1      -7.894  -9.826  13.892  0.00  0.00    +0.216 C 
ATOM     32  H   UNL     1      -6.020 -10.190  13.069  0.00  0.00    +0.149 HD
BRANCH  21  13
ATOM     13  C   UNL     1      -7.289  -9.926  15.253  0.00  0.00    +0.075 C 
ATOM     15  C   UNL     1      -8.048  -9.388  16.430  0.00  0.00    +0.013 C 
ATOM     16  C   UNL     1      -7.893 -10.870  16.252  0.00  0.00    +0.013 C 
ENDBRANCH  21  13
ENDBRANCH  20  10
ENDBRANCH  14  20
BRANCH  19  22
ATOM     22  C   UNL     1      -3.329  -9.725  10.420  0.00  0.00    +0.133 C 
BRANCH  22  23
ATOM      8  O   UNL     1      -3.873 -11.924  11.321  0.00  0.00    -0.338 OA
ATOM     11  N   UNL     1      -3.689 -10.317  12.871  0.00  0.00    -0.191 NA
ATOM     12  N   UNL     1      -4.121 -12.541  12.554  0.00  0.00    -0.056 NA
ATOM     23  C   UNL     1      -3.627 -10.616  11.598  0.00  0.00    +0.230 A 
ATOM     24  C   UNL     1      -3.994 -11.530  13.418  0.00  0.00    +0.202 A 
BRANCH  24  25
ATOM     25  C   UNL     1      -4.165 -11.697  14.833  0.00  0.00    +0.023 A 
ATOM     26  C   UNL     1      -3.674 -10.734  15.713  0.00  0.00    +0.015 A 
ATOM     27  C   UNL     1      -4.822 -12.824  15.326  0.00  0.00    +0.015 A 
ATOM     28  C   UNL     1      -3.839 -10.897  17.089  0.00  0.00    +0.046 A 
ATOM     29  C   UNL     1      -4.987 -12.988  16.701  0.00  0.00    +0.046 A 
ATOM     30  C   UNL     1      -4.495 -12.025  17.583  0.00  0.00    +0.130 A 
BRANCH  30   9
ATOM      9  O   UNL     1      -4.657 -12.186  18.924  0.00  0.00    -0.406 OA
BRANCH   9  31
ATOM      1  F   UNL     1      -6.028 -10.393  18.961  0.00  0.00    -0.133 F 
ATOM      2  F   UNL     1      -6.894 -12.357  19.373  0.00  0.00    -0.133 F 
ATOM      3  F   UNL     1      -5.578 -11.382  20.858  0.00  0.00    -0.133 F 
ATOM     31  C   UNL     1      -5.795 -11.592  19.542  0.00  0.00    +0.575 C 
ENDBRANCH   9  31
ENDBRANCH  30   9
ENDBRANCH  24  25
ENDBRANCH  22  23
ENDBRANCH  19  22
TORSDOF 10
ENDMDL
MODEL 7
REMARK VINA RESULT:      -6.3     24.790     26.761
REMARK  Name = 25390144
REMARK  10 active torsions:
REMARK  status: ('A' for Active; 'I' for Inactive)
REMARK    1  A    between atoms: O_5  and  C_17
REMARK    2  A    between atoms: O_6  and  C_18
REMARK    3  A    between atoms: O_9  and  C_30
REMARK    4  A    between atoms: O_9  and  C_31
REMARK    5  A    between atoms: N_10  and  C_20
REMARK    6  A    between atoms: C_13  and  C_21
REMARK    7  A    between atoms: C_14  and  C_20
REMARK    8  A    between atoms: C_19  and  C_22
REMARK    9  A    between atoms: C_22  and  C_23
REMARK   10  A    between atoms: C_24  and  C_25
REMARK                            x       y       z     vdW  Elec       q    Type
REMARK                         _______ _______ _______ _____ _____    ______ ____
ROOT
ATOM      4  O   UNL     1      -8.217 -12.765  18.481  0.00  0.00    -0.366 OA
ATOM     14  C   UNL     1      -9.231 -11.774  18.192  0.00  0.00    +0.167 C 
ATOM     17  C   UNL     1      -8.822 -10.510  18.940  0.00  0.00    +0.176 C 
ATOM     18  C   UNL     1      -7.315 -10.646  18.988  0.00  0.00    +0.175 C 
ATOM     19  C   UNL     1      -7.151 -12.139  19.217  0.00  0.00    +0.159 C 
ENDROOT
BRANCH  17   5
ATOM      5  O   UNL     1      -9.369 -10.578  20.257  0.00  0.00    -0.387 OA
ATOM     33  H   UNL     1      -9.381  -9.673  20.613  0.00  0.00    +0.210 HD
ENDBRANCH  17   5
BRANCH  18   6
ATOM      6  O   UNL     1      -6.718  -9.884  20.015  0.00  0.00    -0.387 OA
ATOM     34  H   UNL     1      -7.146 -10.135  20.851  0.00  0.00    +0.210 HD
ENDBRANCH  18   6
BRANCH  14  20
ATOM     20  C   UNL     1      -9.281 -11.585  16.682  0.00  0.00    +0.138 C 
BRANCH  20  10
ATOM      7  O   UNL     1      -8.505  -9.263  15.114  0.00  0.00    -0.276 OA
ATOM     10  N   UNL     1     -10.094 -10.459  16.328  0.00  0.00    -0.313 N 
ATOM     21  C   UNL     1      -9.634  -9.389  15.571  0.00  0.00    +0.216 C 
ATOM     32  H   UNL     1     -11.056 -10.452  16.653  0.00  0.00    +0.149 HD
BRANCH  21  13
ATOM     13  C   UNL     1     -10.653  -8.328  15.320  0.00  0.00    +0.075 C 
ATOM     15  C   UNL     1     -11.580  -7.928  16.430  0.00  0.00    +0.013 C 
ATOM     16  C   UNL     1     -10.495  -6.992  15.985  0.00  0.00    +0.013 C 
ENDBRANCH  21  13
ENDBRANCH  20  10
ENDBRANCH  14  20
BRANCH  19  22
ATOM     22  C   UNL     1      -5.815 -12.678  18.738  0.00  0.00    +0.133 C 
BRANCH  22  23
ATOM      8  O   UNL     1      -4.507 -10.804  17.888  0.00  0.00    -0.338 OA
ATOM     11  N   UNL     1      -5.426 -12.080  16.293  0.00  0.00    -0.191 NA
ATOM     12  N   UNL     1      -4.123 -10.237  16.666  0.00  0.00    -0.056 NA
ATOM     23  C   UNL     1      -5.270 -11.885  17.578  0.00  0.00    +0.230 A 
ATOM     24  C   UNL     1      -4.703 -11.045  15.773  0.00  0.00    +0.202 A 
BRANCH  24  25
ATOM     25  C   UNL     1      -4.581 -10.846  14.358  0.00  0.00    +0.023 A 
ATOM     26  C   UNL     1      -3.323 -10.873  13.757  0.00  0.00    +0.015 A 
ATOM     27  C   UNL     1      -5.721 -10.625  13.585  0.00  0.00    +0.015 A 
ATOM     28  C   UNL     1      -3.204 -10.678  12.380  0.00  0.00    +0.046 A 
ATOM     29  C   UNL     1      -5.602 -10.430  12.209  0.00  0.00    +0.046 A 
ATOM     30  C   UNL     1      -4.344 -10.457  11.607  0.00  0.00    +0.130 A 
BRANCH  30   9
ATOM      9  O   UNL     1      -4.229 -10.266  10.264  0.00  0.00    -0.406 OA
BRANCH   9  31
ATOM      1  F   UNL     1      -4.131  -8.883   8.483  0.00  0.00    -0.133 F 
ATOM      2  F   UNL     1      -4.481  -8.000  10.452  0.00  0.00    -0.133 F 
ATOM      3  F   UNL     1      -2.494  -8.814   9.930  0.00  0.00    -0.133 F 
ATOM     31  C   UNL     1      -3.827  -8.983   9.798  0.00  0.00    +0.575 C 
ENDBRANCH   9  31
ENDBRANCH  30   9
ENDBRANCH  24  25
ENDBRANCH  22  23
ENDBRANCH  19  22
TORSDOF 10
ENDMDL
MODEL 8
REMARK VINA RESULT:      -6.3     24.310     25.975
REMARK  Name = 25390144
REMARK  10 active torsions:
REMARK  status: ('A' for Active; 'I' for Inactive)
REMARK    1  A    between atoms: O_5  and  C_17
REMARK    2  A    between atoms: O_6  and  C_18
REMARK    3  A    between atoms: O_9  and  C_30
REMARK    4  A    between atoms: O_9  and  C_31
REMARK    5  A    between atoms: N_10  and  C_20
REMARK    6  A    between atoms: C_13  and  C_21
REMARK    7  A    between atoms: C_14  and  C_20
REMARK    8  A    between atoms: C_19  and  C_22
REMARK    9  A    between atoms: C_22  and  C_23
REMARK   10  A    between atoms: C_24  and  C_25
REMARK                            x       y       z     vdW  Elec       q    Type
REMARK                         _______ _______ _______ _____ _____    ______ ____
ROOT
ATOM      4  O   UNL     1      -6.673 -11.747  17.384  0.00  0.00    -0.366 OA
ATOM     14  C   UNL     1      -6.347 -12.246  18.703  0.00  0.00    +0.167 C 
ATOM     17  C   UNL     1      -4.827 -12.350  18.759  0.00  0.00    +0.176 C 
ATOM     18  C   UNL     1      -4.401 -11.266  17.792  0.00  0.00    +0.175 C 
ATOM     19  C   UNL     1      -5.454 -11.395  16.705  0.00  0.00    +0.159 C 
ENDROOT
BRANCH  17   5
ATOM      5  O   UNL     1      -4.452 -13.634  18.262  0.00  0.00    -0.387 OA
ATOM     33  H   UNL     1      -4.651 -14.284  18.957  0.00  0.00    +0.210 HD
ENDBRANCH  17   5
BRANCH  18   6
ATOM      6  O   UNL     1      -3.095 -11.448  17.289  0.00  0.00    -0.387 OA
ATOM     34  H   UNL     1      -3.139 -12.138  16.605  0.00  0.00    +0.210 HD
ENDBRANCH  18   6
BRANCH  14  20
ATOM     20  C   UNL     1      -6.917 -11.271  19.723  0.00  0.00    +0.138 C 
BRANCH  20  10
ATOM      7  O   UNL     1      -9.720 -11.673  20.388  0.00  0.00    -0.276 OA
ATOM     10  N   UNL     1      -8.050 -10.570  19.195  0.00  0.00    -0.313 N 
ATOM     21  C   UNL     1      -9.360 -10.832  19.573  0.00  0.00    +0.216 C 
ATOM     32  H   UNL     1      -7.874  -9.845  18.505  0.00  0.00    +0.149 HD
BRANCH  21  13
ATOM     13  C   UNL     1     -10.380  -9.979  18.896  0.00  0.00    +0.075 C 
ATOM     15  C   UNL     1     -10.003  -9.245  17.642  0.00  0.00    +0.013 C 
ATOM     16  C   UNL     1     -10.937 -10.418  17.573  0.00  0.00    +0.013 C 
ENDBRANCH  21  13
ENDBRANCH  20  10
ENDBRANCH  14  20
BRANCH  19  22
ATOM     22  C   UNL     1      -5.661 -10.118  15.912  0.00  0.00    +0.133 C 
BRANCH  22  23
ATOM      8  O   UNL     1      -3.765 -10.539  14.440  0.00  0.00    -0.338 OA
ATOM     11  N   UNL     1      -5.664 -10.032  13.366  0.00  0.00    -0.191 NA
ATOM     12  N   UNL     1      -3.460 -10.569  13.072  0.00  0.00    -0.056 NA
ATOM     23  C   UNL     1      -5.082 -10.216  14.524  0.00  0.00    +0.230 A 
ATOM     24  C   UNL     1      -4.630 -10.260  12.505  0.00  0.00    +0.202 A 
BRANCH  24  25
ATOM     25  C   UNL     1      -4.799 -10.171  11.084  0.00  0.00    +0.023 A 
ATOM     26  C   UNL     1      -4.138  -9.177  10.363  0.00  0.00    +0.015 A 
ATOM     27  C   UNL     1      -5.626 -11.080  10.423  0.00  0.00    +0.015 A 
ATOM     28  C   UNL     1      -4.304  -9.089   8.981  0.00  0.00    +0.046 A 
ATOM     29  C   UNL     1      -5.791 -10.993   9.041  0.00  0.00    +0.046 A 
ATOM     30  C   UNL     1      -5.131  -9.998   8.320  0.00  0.00    +0.130 A 
BRANCH  30   9
ATOM      9  O   UNL     1      -5.294  -9.914   6.971  0.00  0.00    -0.406 OA
BRANCH   9  31
ATOM      1  F   UNL     1      -7.157  -8.713   7.398  0.00  0.00    -0.133 F 
ATOM      2  F   UNL     1      -6.418  -8.766   5.342  0.00  0.00    -0.133 F 
ATOM      3  F   UNL     1      -7.364 -10.553   6.236  0.00  0.00    -0.133 F 
ATOM     31  C   UNL     1      -6.559  -9.494   6.470  0.00  0.00    +0.575 C 
ENDBRANCH   9  31
ENDBRANCH  30   9
ENDBRANCH  24  25
ENDBRANCH  22  23
ENDBRANCH  19  22
TORSDOF 10
ENDMDL
MODEL 9
REMARK VINA RESULT:      -6.3     22.709     24.253
REMARK  Name = 25390144
REMARK  10 active torsions:
REMARK  status: ('A' for Active; 'I' for Inactive)
REMARK    1  A    between atoms: O_5  and  C_17
REMARK    2  A    between atoms: O_6  and  C_18
REMARK    3  A    between atoms: O_9  and  C_30
REMARK    4  A    between atoms: O_9  and  C_31
REMARK    5  A    between atoms: N_10  and  C_20
REMARK    6  A    between atoms: C_13  and  C_21
REMARK    7  A    between atoms: C_14  and  C_20
REMARK    8  A    between atoms: C_19  and  C_22
REMARK    9  A    between atoms: C_22  and  C_23
REMARK   10  A    between atoms: C_24  and  C_25
REMARK                            x       y       z     vdW  Elec       q    Type
REMARK                         _______ _______ _______ _____ _____    ______ ____
ROOT
ATOM      4  O   UNL     1      -3.645 -12.281  14.601  0.00  0.00    -0.366 OA
ATOM     14  C   UNL     1      -4.263 -11.288  15.452  0.00  0.00    +0.167 C 
ATOM     17  C   UNL     1      -3.134 -10.645  16.251  0.00  0.00    +0.176 C 
ATOM     18  C   UNL     1      -1.957 -10.795  15.311  0.00  0.00    +0.175 C 
ATOM     19  C   UNL     1      -2.215 -12.169  14.717  0.00  0.00    +0.159 C 
ENDROOT
BRANCH  17   5
ATOM      5  O   UNL     1      -2.928 -11.422  17.431  0.00  0.00    -0.387 OA
ATOM     33  H   UNL     1      -3.746 -11.920  17.597  0.00  0.00    +0.210 HD
ENDBRANCH  17   5
BRANCH  18   6
ATOM      6  O   UNL     1      -0.708 -10.727  15.964  0.00  0.00    -0.387 OA
ATOM     34  H   UNL     1      -0.867 -10.396  16.864  0.00  0.00    +0.210 HD
ENDBRANCH  18   6
BRANCH  14  20
ATOM     20  C   UNL     1      -4.999 -10.301  14.558  0.00  0.00    +0.138 C 
BRANCH  20  10
ATOM      7  O   UNL     1      -7.294  -9.459  12.984  0.00  0.00    -0.276 OA
ATOM     10  N   UNL     1      -5.563 -10.957  13.416  0.00  0.00    -0.313 N 
ATOM     21  C   UNL     1      -6.667 -10.478  12.723  0.00  0.00    +0.216 C 
ATOM     32  H   UNL     1      -5.125 -11.819  13.104  0.00  0.00    +0.149 HD
BRANCH  21  13
ATOM     13  C   UNL     1      -7.082 -11.322  11.564  0.00  0.00    +0.075 C 
ATOM     15  C   UNL     1      -6.602 -12.741  11.484  0.00  0.00    +0.013 C 
ATOM     16  C   UNL     1      -8.043 -12.453  11.791  0.00  0.00    +0.013 C 
ENDBRANCH  21  13
ENDBRANCH  20  10
ENDBRANCH  14  20
BRANCH  19  22
ATOM     22  C   UNL     1      -1.575 -12.366  13.354  0.00  0.00    +0.133 C 
BRANCH  22  23
ATOM      8  O   UNL     1      -1.347 -10.292  12.093  0.00  0.00    -0.338 OA
ATOM     11  N   UNL     1      -3.215 -11.441  11.638  0.00  0.00    -0.191 NA
ATOM     12  N   UNL     1      -2.038  -9.547  11.129  0.00  0.00    -0.056 NA
ATOM     23  C   UNL     1      -2.108 -11.391  12.336  0.00  0.00    +0.230 A 
ATOM     24  C   UNL     1      -3.128 -10.289  10.911  0.00  0.00    +0.202 A 
BRANCH  24  25
ATOM     25  C   UNL     1      -4.147  -9.909   9.976  0.00  0.00    +0.023 A 
ATOM     26  C   UNL     1      -4.828  -8.703  10.139  0.00  0.00    +0.015 A 
ATOM     27  C   UNL     1      -4.457 -10.747   8.905  0.00  0.00    +0.015 A 
ATOM     28  C   UNL     1      -5.820  -8.334   9.230  0.00  0.00    +0.046 A 
ATOM     29  C   UNL     1      -5.449 -10.378   7.997  0.00  0.00    +0.046 A 
ATOM     30  C   UNL     1      -6.131  -9.172   8.159  0.00  0.00    +0.130 A 
BRANCH  30   9
ATOM      9  O   UNL     1      -7.098  -8.813   7.272  0.00  0.00    -0.406 OA
BRANCH   9  31
ATOM      1  F   UNL     1      -8.873  -7.741   8.164  0.00  0.00    -0.133 F 
ATOM      2  F   UNL     1      -9.249  -9.250   6.628  0.00  0.00    -0.133 F 
ATOM      3  F   UNL     1      -8.597  -9.854   8.652  0.00  0.00    -0.133 F 
ATOM     31  C   UNL     1      -8.459  -8.932   7.675  0.00  0.00    +0.575 C 
ENDBRANCH   9  31
ENDBRANCH  30   9
ENDBRANCH  24  25
ENDBRANCH  22  23
ENDBRANCH  19  22
TORSDOF 10
ENDMDL
MODEL 10
REMARK VINA RESULT:      -6.2     24.814     26.791
REMARK  Name = 25390144
REMARK  10 active torsions:
REMARK  status: ('A' for Active; 'I' for Inactive)
REMARK    1  A    between atoms: O_5  and  C_17
REMARK    2  A    between atoms: O_6  and  C_18
REMARK    3  A    between atoms: O_9  and  C_30
REMARK    4  A    between atoms: O_9  and  C_31
REMARK    5  A    between atoms: N_10  and  C_20
REMARK    6  A    between atoms: C_13  and  C_21
REMARK    7  A    between atoms: C_14  and  C_20
REMARK    8  A    between atoms: C_19  and  C_22
REMARK    9  A    between atoms: C_22  and  C_23
REMARK   10  A    between atoms: C_24  and  C_25
REMARK                            x       y       z     vdW  Elec       q    Type
REMARK                         _______ _______ _______ _____ _____    ______ ____
ROOT
ATOM      4  O   UNL     1      -7.996 -12.578  18.094  0.00  0.00    -0.366 OA
ATOM     14  C   UNL     1      -8.927 -11.492  17.873  0.00  0.00    +0.167 C 
ATOM     17  C   UNL     1      -8.559 -10.402  18.873  0.00  0.00    +0.176 C 
ATOM     18  C   UNL     1      -7.076 -10.636  19.065  0.00  0.00    +0.175 C 
ATOM     19  C   UNL     1      -7.001 -12.153  19.043  0.00  0.00    +0.159 C 
ENDROOT
BRANCH  17   5
ATOM      5  O   UNL     1      -9.263 -10.660  20.088  0.00  0.00    -0.387 OA
ATOM     33  H   UNL     1      -9.909  -9.943  20.207  0.00  0.00    +0.210 HD
ENDBRANCH  17   5
BRANCH  18   6
ATOM      6  O   UNL     1      -6.576 -10.099  20.271  0.00  0.00    -0.387 OA
ATOM     34  H   UNL     1      -6.076 -10.803  20.719  0.00  0.00    +0.210 HD
ENDBRANCH  18   6
BRANCH  14  20
ATOM     20  C   UNL     1      -8.786 -11.045  16.425  0.00  0.00    +0.138 C 
BRANCH  20  10
ATOM      7  O   UNL     1      -9.031 -11.165  13.530  0.00  0.00    -0.276 OA
ATOM     10  N   UNL     1      -8.485 -12.154  15.568  0.00  0.00    -0.313 N 
ATOM     21  C   UNL     1      -8.634 -12.119  14.188  0.00  0.00    +0.216 C 
ATOM     32  H   UNL     1      -8.145 -13.006  16.003  0.00  0.00    +0.149 HD
BRANCH  21  13
ATOM     13  C   UNL     1      -8.259 -13.386  13.494  0.00  0.00    +0.075 C 
ATOM     15  C   UNL     1      -7.690 -13.320  12.108  0.00  0.00    +0.013 C 
ATOM     16  C   UNL     1      -6.807 -13.690  13.263  0.00  0.00    +0.013 C 
ENDBRANCH  21  13
ENDBRANCH  20  10
ENDBRANCH  14  20
BRANCH  19  22
ATOM     22  C   UNL     1      -5.641 -12.684  18.629  0.00  0.00    +0.133 C 
BRANCH  22  23
ATOM      8  O   UNL     1      -4.093 -11.057  17.680  0.00  0.00    -0.338 OA
ATOM     11  N   UNL     1      -5.431 -12.037  16.174  0.00  0.00    -0.191 NA
ATOM     12  N   UNL     1      -3.750 -10.507  16.438  0.00  0.00    -0.056 NA
ATOM     23  C   UNL     1      -5.089 -11.948  17.435  0.00  0.00    +0.230 A 
ATOM     24  C   UNL     1      -4.582 -11.135  15.601  0.00  0.00    +0.202 A 
BRANCH  24  25
ATOM     25  C   UNL     1      -4.590 -10.884  14.189  0.00  0.00    +0.023 A 
ATOM     26  C   UNL     1      -5.639 -10.168  13.614  0.00  0.00    +0.015 A 
ATOM     27  C   UNL     1      -3.549 -11.359  13.391  0.00  0.00    +0.015 A 
ATOM     28  C   UNL     1      -5.648  -9.925  12.239  0.00  0.00    +0.046 A 
ATOM     29  C   UNL     1      -3.557 -11.117  12.018  0.00  0.00    +0.046 A 
ATOM     30  C   UNL     1      -4.606 -10.401  11.442  0.00  0.00    +0.130 A 
BRANCH  30   9
ATOM      9  O   UNL     1      -4.614 -10.165  10.102  0.00  0.00    -0.406 OA
BRANCH   9  31
ATOM      1  F   UNL     1      -4.305  -8.830   8.307  0.00  0.00    -0.133 F 
ATOM      2  F   UNL     1      -4.569  -7.883  10.259  0.00  0.00    -0.133 F 
ATOM      3  F   UNL     1      -2.697  -8.957   9.782  0.00  0.00    -0.133 F 
ATOM     31  C   UNL     1      -4.039  -8.951   9.628  0.00  0.00    +0.575 C 
ENDBRANCH   9  31
ENDBRANCH  30   9
ENDBRANCH  24  25
ENDBRANCH  22  23
ENDBRANCH  19  22
TORSDOF 10
ENDMDL
