MODEL 1
REMARK VINA RESULT:      -7.5      0.000      0.000
REMARK  Name = 11941642
REMARK  8 active torsions:
REMARK  status: ('A' for Active; 'I' for Inactive)
REMARK    1  A    between atoms: N_4  and  C_12
REMARK    2  A    between atoms: N_5  and  C_13
REMARK    3  A    between atoms: N_8  and  C_25
REMARK    4  A    between atoms: C_18  and  C_19
REMARK    5  A    between atoms: C_18  and  C_22
REMARK    6  A    between atoms: C_18  and  C_23
REMARK    7  A    between atoms: C_18  and  C_24
REMARK    8  A    between atoms: C_28  and  C_31
REMARK                            x       y       z     vdW  Elec       q    Type
REMARK                         _______ _______ _______ _____ _____    ______ ____
ROOT
ATOM      1  O   UNL     1     -16.355   2.946  23.161  0.00  0.00    -0.370 OA
ATOM      2  O   UNL     1     -16.742   5.609  24.740  0.00  0.00    -0.370 OA
ATOM     10  C   UNL     1     -15.631   5.040  24.028  0.00  0.00    +0.171 C 
ATOM     11  C   UNL     1     -15.661   3.543  24.269  0.00  0.00    +0.171 C 
ATOM     12  C   UNL     1     -15.835   5.179  22.539  0.00  0.00    +0.130 C 
ATOM     13  C   UNL     1     -16.468   3.391  25.538  0.00  0.00    +0.131 C 
ATOM     14  C   UNL     1     -16.682   3.965  22.204  0.00  0.00    +0.185 C 
ATOM     15  C   UNL     1     -17.422   4.570  25.459  0.00  0.00    +0.185 C 
ENDROOT
BRANCH  12   4
ATOM      4  N   UNL     1     -14.563   5.106  21.854  0.00  0.00    -0.306 N 
ATOM      6  N   UNL     1     -14.223   7.422  22.006  0.00  0.00    -0.219 NA
ATOM      7  N   UNL     1     -12.594   5.999  20.943  0.00  0.00    -0.223 NA
ATOM     16  C   UNL     1     -13.769   6.208  21.593  0.00  0.00    +0.216 A 
ATOM     19  C   UNL     1     -13.424   8.475  21.735  0.00  0.00    +0.052 A 
ATOM     20  C   UNL     1     -12.213   8.371  21.082  0.00  0.00    +0.043 A 
ATOM     21  C   UNL     1     -11.845   7.096  20.705  0.00  0.00    +0.116 A 
ATOM     32  H   UNL     1     -14.192   4.200  21.589  0.00  0.00    +0.149 HD
BRANCH  19  18
ATOM     18  C   UNL     1     -13.906   9.815  22.181  0.00  0.00    +0.005 C 
ATOM     22  C   UNL     1     -14.584   9.734  23.584  0.00  0.00    +0.017 C 
ATOM     23  C   UNL     1     -12.729  10.834  22.284  0.00  0.00    +0.017 C 
ATOM     24  C   UNL     1     -14.964  10.492  21.247  0.00  0.00    +0.017 C 
ENDBRANCH  19  18
ENDBRANCH  12   4
BRANCH  13   5
ATOM      3  O   UNL     1     -16.895   2.092  28.055  0.00  0.00    -0.252 OA
ATOM      5  N   UNL     1     -15.626   3.477  26.706  0.00  0.00    -0.292 N 
ATOM      8  N   UNL     1     -14.920   3.076  28.854  0.00  0.00    -0.269 N 
ATOM     17  C   UNL     1     -15.907   2.807  27.903  0.00  0.00    +0.304 C 
ATOM     33  H   UNL     1     -14.755   3.994  26.637  0.00  0.00    +0.151 HD
ATOM     34  H   UNL     1     -14.165   3.694  28.565  0.00  0.00    +0.156 HD
BRANCH   8  25
ATOM     25  C   UNL     1     -14.838   2.593  30.182  0.00  0.00    +0.036 A 
ATOM     26  C   UNL     1     -14.701   3.496  31.225  0.00  0.00    +0.042 A 
ATOM     27  C   UNL     1     -14.897   1.229  30.411  0.00  0.00    +0.023 A 
ATOM     28  C   UNL     1     -14.619   3.019  32.533  0.00  0.00    +0.054 A 
ATOM     29  C   UNL     1     -14.815   0.753  31.720  0.00  0.00    +0.003 A 
ATOM     30  C   UNL     1     -14.676   1.647  32.781  0.00  0.00    +0.019 A 
BRANCH  28  31
ATOM      9  N   UNL     1     -14.362   4.680  34.505  0.00  0.00    -0.191 NA
ATOM     31  C   UNL     1     -14.477   3.935  33.620  0.00  0.00    +0.099 C 
ENDBRANCH  28  31
ENDBRANCH   8  25
ENDBRANCH  13   5
TORSDOF 5
ENDMDL
MODEL 2
REMARK VINA RESULT:      -7.4     32.428     35.638
REMARK  Name = 11941642
REMARK  8 active torsions:
REMARK  status: ('A' for Active; 'I' for Inactive)
REMARK    1  A    between atoms: N_4  and  C_12
REMARK    2  A    between atoms: N_5  and  C_13
REMARK    3  A    between atoms: N_8  and  C_25
REMARK    4  A    between atoms: C_18  and  C_19
REMARK    5  A    between atoms: C_18  and  C_22
REMARK    6  A    between atoms: C_18  and  C_23
REMARK    7  A    between atoms: C_18  and  C_24
REMARK    8  A    between atoms: C_28  and  C_31
REMARK                            x       y       z     vdW  Elec       q    Type
REMARK                         _______ _______ _______ _____ _____    ______ ____
ROOT
ATOM      1  O   UNL     1      21.922   7.442  20.696  0.00  0.00    -0.370 OA
ATOM      2  O   UNL     1      20.324   6.083  23.006  0.00  0.00    -0.370 OA
ATOM     10  C   UNL     1      20.971   5.577  21.826  0.00  0.00    +0.171 C 
ATOM     11  C   UNL     1      20.760   6.596  20.725  0.00  0.00    +0.171 C 
ATOM     12  C   UNL     1      22.468   5.548  22.021  0.00  0.00    +0.130 C 
ATOM     13  C   UNL     1      19.550   7.381  21.177  0.00  0.00    +0.131 C 
ATOM     14  C   UNL     1      22.880   6.961  21.651  0.00  0.00    +0.185 C 
ATOM     15  C   UNL     1      19.669   7.320  22.689  0.00  0.00    +0.185 C 
ENDROOT
BRANCH  12   4
ATOM      4  N   UNL     1      23.069   4.597  21.111  0.00  0.00    -0.306 N 
ATOM      6  N   UNL     1      23.393   3.010  22.808  0.00  0.00    -0.219 NA
ATOM      7  N   UNL     1      24.065   2.551  20.540  0.00  0.00    -0.223 NA
ATOM     16  C   UNL     1      23.522   3.349  21.497  0.00  0.00    +0.216 A 
ATOM     19  C   UNL     1      23.845   1.786  23.150  0.00  0.00    +0.052 A 
ATOM     20  C   UNL     1      24.412   0.900  22.256  0.00  0.00    +0.043 A 
ATOM     21  C   UNL     1      24.496   1.341  20.952  0.00  0.00    +0.116 A 
ATOM     32  H   UNL     1      23.122   4.819  20.123  0.00  0.00    +0.149 HD
BRANCH  19  18
ATOM     18  C   UNL     1      23.711   1.398  24.584  0.00  0.00    +0.005 C 
ATOM     22  C   UNL     1      24.444   2.412  25.516  0.00  0.00    +0.017 C 
ATOM     23  C   UNL     1      22.215   1.354  25.021  0.00  0.00    +0.017 C 
ATOM     24  C   UNL     1      24.296  -0.006  24.957  0.00  0.00    +0.017 C 
ENDBRANCH  19  18
ENDBRANCH  12   4
BRANCH  13   5
ATOM      3  O   UNL     1      17.096   8.710  20.532  0.00  0.00    -0.252 OA
ATOM      5  N   UNL     1      18.327   6.763  20.724  0.00  0.00    -0.292 N 
ATOM      8  N   UNL     1      16.147   6.627  20.015  0.00  0.00    -0.269 N 
ATOM     17  C   UNL     1      17.166   7.489  20.428  0.00  0.00    +0.304 C 
ATOM     33  H   UNL     1      18.327   5.763  20.549  0.00  0.00    +0.151 HD
ATOM     34  H   UNL     1      16.372   5.636  19.986  0.00  0.00    +0.156 HD
BRANCH   8  25
ATOM     25  C   UNL     1      14.828   6.965  19.629  0.00  0.00    +0.036 A 
ATOM     26  C   UNL     1      13.801   6.850  20.552  0.00  0.00    +0.042 A 
ATOM     27  C   UNL     1      14.591   7.403  18.337  0.00  0.00    +0.023 A 
ATOM     28  C   UNL     1      12.501   7.182  20.170  0.00  0.00    +0.054 A 
ATOM     29  C   UNL     1      13.291   7.734  17.955  0.00  0.00    +0.003 A 
ATOM     30  C   UNL     1      12.245   7.624  18.872  0.00  0.00    +0.019 A 
BRANCH  28  31
ATOM      9  N   UNL     1      10.558   6.979  21.873  0.00  0.00    -0.191 NA
ATOM     31  C   UNL     1      11.430   7.070  21.110  0.00  0.00    +0.099 C 
ENDBRANCH  28  31
ENDBRANCH   8  25
ENDBRANCH  13   5
TORSDOF 5
ENDMDL
MODEL 3
REMARK VINA RESULT:      -7.2     16.791     18.897
REMARK  Name = 11941642
REMARK  8 active torsions:
REMARK  status: ('A' for Active; 'I' for Inactive)
REMARK    1  A    between atoms: N_4  and  C_12
REMARK    2  A    between atoms: N_5  and  C_13
REMARK    3  A    between atoms: N_8  and  C_25
REMARK    4  A    between atoms: C_18  and  C_19
REMARK    5  A    between atoms: C_18  and  C_22
REMARK    6  A    between atoms: C_18  and  C_23
REMARK    7  A    between atoms: C_18  and  C_24
REMARK    8  A    between atoms: C_28  and  C_31
REMARK                            x       y       z     vdW  Elec       q    Type
REMARK                         _______ _______ _______ _____ _____    ______ ____
ROOT
ATOM      1  O   UNL     1     -12.424  -9.348  15.476  0.00  0.00    -0.370 OA
ATOM      2  O   UNL     1     -11.324  -6.429  15.496  0.00  0.00    -0.370 OA
ATOM     10  C   UNL     1     -11.343  -7.467  14.502  0.00  0.00    +0.171 C 
ATOM     11  C   UNL     1     -11.127  -8.783  15.222  0.00  0.00    +0.171 C 
ATOM     12  C   UNL     1     -12.723  -7.594  13.903  0.00  0.00    +0.130 C 
ATOM     13  C   UNL     1     -10.462  -8.388  16.520  0.00  0.00    +0.131 C 
ATOM     14  C   UNL     1     -13.429  -8.511  14.885  0.00  0.00    +0.185 C 
ATOM     15  C   UNL     1     -11.046  -7.010  16.778  0.00  0.00    +0.185 C 
ENDROOT
BRANCH  12   4
ATOM      4  N   UNL     1     -12.643  -8.221  12.602  0.00  0.00    -0.306 N 
ATOM      6  N   UNL     1     -12.517  -6.158  11.492  0.00  0.00    -0.219 NA
ATOM      7  N   UNL     1     -12.472  -8.229  10.262  0.00  0.00    -0.223 NA
ATOM     16  C   UNL     1     -12.540  -7.516  11.416  0.00  0.00    +0.216 A 
ATOM     19  C   UNL     1     -12.416  -5.502  10.318  0.00  0.00    +0.052 A 
ATOM     20  C   UNL     1     -12.339  -6.130   9.092  0.00  0.00    +0.043 A 
ATOM     21  C   UNL     1     -12.372  -7.509   9.125  0.00  0.00    +0.116 A 
ATOM     32  H   UNL     1     -12.608  -9.233  12.538  0.00  0.00    +0.149 HD
BRANCH  19  18
ATOM     18  C   UNL     1     -12.389  -4.012  10.382  0.00  0.00    +0.005 C 
ATOM     22  C   UNL     1     -12.191  -3.513  11.847  0.00  0.00    +0.017 C 
ATOM     23  C   UNL     1     -11.222  -3.430   9.526  0.00  0.00    +0.017 C 
ATOM     24  C   UNL     1     -13.681  -3.294   9.868  0.00  0.00    +0.017 C 
ENDBRANCH  19  18
ENDBRANCH  12   4
BRANCH  13   5
ATOM      3  O   UNL     1      -8.626 -10.574  16.758  0.00  0.00    -0.252 OA
ATOM      5  N   UNL     1      -9.028  -8.329  16.375  0.00  0.00    -0.292 N 
ATOM      8  N   UNL     1      -6.862  -9.091  16.316  0.00  0.00    -0.269 N 
ATOM     17  C   UNL     1      -8.199  -9.450  16.508  0.00  0.00    +0.304 C 
ATOM     33  H   UNL     1      -8.605  -7.448  16.101  0.00  0.00    +0.151 HD
ATOM     34  H   UNL     1      -6.678  -8.111  16.117  0.00  0.00    +0.156 HD
BRANCH   8  25
ATOM     25  C   UNL     1      -5.723  -9.928  16.366  0.00  0.00    +0.036 A 
ATOM     26  C   UNL     1      -5.324 -10.460  17.582  0.00  0.00    +0.042 A 
ATOM     27  C   UNL     1      -5.028 -10.199  15.198  0.00  0.00    +0.023 A 
ATOM     28  C   UNL     1      -4.200 -11.284  17.631  0.00  0.00    +0.054 A 
ATOM     29  C   UNL     1      -3.904 -11.022  15.248  0.00  0.00    +0.003 A 
ATOM     30  C   UNL     1      -3.489 -11.566  16.464  0.00  0.00    +0.019 A 
BRANCH  28  31
ATOM      9  N   UNL     1      -3.431 -12.294  19.890  0.00  0.00    -0.191 NA
ATOM     31  C   UNL     1      -3.776 -11.841  18.876  0.00  0.00    +0.099 C 
ENDBRANCH  28  31
ENDBRANCH   8  25
ENDBRANCH  13   5
TORSDOF 5
ENDMDL
MODEL 4
REMARK VINA RESULT:      -7.0     16.551     18.766
REMARK  Name = 11941642
REMARK  8 active torsions:
REMARK  status: ('A' for Active; 'I' for Inactive)
REMARK    1  A    between atoms: N_4  and  C_12
REMARK    2  A    between atoms: N_5  and  C_13
REMARK    3  A    between atoms: N_8  and  C_25
REMARK    4  A    between atoms: C_18  and  C_19
REMARK    5  A    between atoms: C_18  and  C_22
REMARK    6  A    between atoms: C_18  and  C_23
REMARK    7  A    between atoms: C_18  and  C_24
REMARK    8  A    between atoms: C_28  and  C_31
REMARK                            x       y       z     vdW  Elec       q    Type
REMARK                         _______ _______ _______ _____ _____    ______ ____
ROOT
ATOM      1  O   UNL     1     -12.864  -8.665  15.691  0.00  0.00    -0.370 OA
ATOM      2  O   UNL     1     -11.298  -5.998  15.274  0.00  0.00    -0.370 OA
ATOM     10  C   UNL     1     -11.543  -7.138  14.433  0.00  0.00    +0.171 C 
ATOM     11  C   UNL     1     -11.508  -8.367  15.319  0.00  0.00    +0.171 C 
ATOM     12  C   UNL     1     -12.956  -7.103  13.902  0.00  0.00    +0.130 C 
ATOM     13  C   UNL     1     -10.716  -7.927  16.528  0.00  0.00    +0.131 C 
ATOM     14  C   UNL     1     -13.748  -7.751  15.023  0.00  0.00    +0.185 C 
ATOM     15  C   UNL     1     -11.050  -6.448  16.614  0.00  0.00    +0.185 C 
ENDROOT
BRANCH  12   4
ATOM      4  N   UNL     1     -13.053  -7.898  12.698  0.00  0.00    -0.306 N 
ATOM      6  N   UNL     1     -12.627  -6.052  11.313  0.00  0.00    -0.219 NA
ATOM      7  N   UNL     1     -13.004  -8.240  10.377  0.00  0.00    -0.223 NA
ATOM     16  C   UNL     1     -12.889  -7.382  11.424  0.00  0.00    +0.216 A 
ATOM     19  C   UNL     1     -12.474  -5.583  10.058  0.00  0.00    +0.052 A 
ATOM     20  C   UNL     1     -12.570  -6.368   8.928  0.00  0.00    +0.043 A 
ATOM     21  C   UNL     1     -12.839  -7.703   9.150  0.00  0.00    +0.116 A 
ATOM     32  H   UNL     1     -13.196  -8.900  12.771  0.00  0.00    +0.149 HD
BRANCH  19  18
ATOM     18  C   UNL     1     -12.185  -4.126   9.918  0.00  0.00    +0.005 C 
ATOM     22  C   UNL     1     -13.285  -3.411   9.073  0.00  0.00    +0.017 C 
ATOM     23  C   UNL     1     -12.129  -3.423  11.309  0.00  0.00    +0.017 C 
ATOM     24  C   UNL     1     -10.830  -3.775   9.218  0.00  0.00    +0.017 C 
ENDBRANCH  19  18
ENDBRANCH  12   4
BRANCH  13   5
ATOM      3  O   UNL     1      -9.057  -9.829  17.884  0.00  0.00    -0.252 OA
ATOM      5  N   UNL     1      -9.302  -8.133  16.331  0.00  0.00    -0.292 N 
ATOM      8  N   UNL     1      -7.223  -9.061  16.636  0.00  0.00    -0.269 N 
ATOM     17  C   UNL     1      -8.562  -9.089  17.037  0.00  0.00    +0.304 C 
ATOM     33  H   UNL     1      -8.834  -7.606  15.600  0.00  0.00    +0.151 HD
ATOM     34  H   UNL     1      -6.977  -8.382  15.920  0.00  0.00    +0.156 HD
BRANCH   8  25
ATOM     25  C   UNL     1      -6.159  -9.865  17.107  0.00  0.00    +0.036 A 
ATOM     26  C   UNL     1      -5.031 -10.027  16.319  0.00  0.00    +0.042 A 
ATOM     27  C   UNL     1      -6.267 -10.476  18.346  0.00  0.00    +0.023 A 
ATOM     28  C   UNL     1      -3.983 -10.822  16.783  0.00  0.00    +0.054 A 
ATOM     29  C   UNL     1      -5.219 -11.271  18.809  0.00  0.00    +0.003 A 
ATOM     30  C   UNL     1      -4.076 -11.444  18.028  0.00  0.00    +0.019 A 
BRANCH  28  31
ATOM      9  N   UNL     1      -1.860 -11.143  15.332  0.00  0.00    -0.191 NA
ATOM     31  C   UNL     1      -2.812 -10.999  15.984  0.00  0.00    +0.099 C 
ENDBRANCH  28  31
ENDBRANCH   8  25
ENDBRANCH  13   5
TORSDOF 5
ENDMDL
MODEL 5
REMARK VINA RESULT:      -6.9     31.769     36.471
REMARK  Name = 11941642
REMARK  8 active torsions:
REMARK  status: ('A' for Active; 'I' for Inactive)
REMARK    1  A    between atoms: N_4  and  C_12
REMARK    2  A    between atoms: N_5  and  C_13
REMARK    3  A    between atoms: N_8  and  C_25
REMARK    4  A    between atoms: C_18  and  C_19
REMARK    5  A    between atoms: C_18  and  C_22
REMARK    6  A    between atoms: C_18  and  C_23
REMARK    7  A    between atoms: C_18  and  C_24
REMARK    8  A    between atoms: C_28  and  C_31
REMARK                            x       y       z     vdW  Elec       q    Type
REMARK                         _______ _______ _______ _____ _____    ______ ____
ROOT
ATOM      1  O   UNL     1      12.134   5.732  -0.518  0.00  0.00    -0.370 OA
ATOM      2  O   UNL     1      13.340   3.196   0.842  0.00  0.00    -0.370 OA
ATOM     10  C   UNL     1      12.075   3.470   0.216  0.00  0.00    +0.171 C 
ATOM     11  C   UNL     1      11.699   4.895   0.567  0.00  0.00    +0.171 C 
ATOM     12  C   UNL     1      12.227   3.486  -1.286  0.00  0.00    +0.130 C 
ATOM     13  C   UNL     1      12.501   5.192   1.813  0.00  0.00    +0.131 C 
ATOM     14  C   UNL     1      12.679   4.909  -1.560  0.00  0.00    +0.185 C 
ATOM     15  C   UNL     1      13.741   4.338   1.612  0.00  0.00    +0.185 C 
ENDROOT
BRANCH  12   4
ATOM      4  N   UNL     1      10.948   3.238  -1.916  0.00  0.00    -0.306 N 
ATOM      6  N   UNL     1      11.880   3.264  -4.069  0.00  0.00    -0.219 NA
ATOM      7  N   UNL     1       9.522   2.891  -3.746  0.00  0.00    -0.223 NA
ATOM     16  C   UNL     1      10.778   3.127  -3.284  0.00  0.00    +0.216 A 
ATOM     19  C   UNL     1      11.678   3.150  -5.398  0.00  0.00    +0.052 A 
ATOM     20  C   UNL     1      10.444   2.910  -5.968  0.00  0.00    +0.043 A 
ATOM     21  C   UNL     1       9.392   2.789  -5.085  0.00  0.00    +0.116 A 
ATOM     32  H   UNL     1      10.130   3.083  -1.338  0.00  0.00    +0.149 HD
BRANCH  19  18
ATOM     18  C   UNL     1      12.876   3.298  -6.274  0.00  0.00    +0.005 C 
ATOM     22  C   UNL     1      12.508   3.989  -7.623  0.00  0.00    +0.017 C 
ATOM     23  C   UNL     1      13.977   4.163  -5.587  0.00  0.00    +0.017 C 
ATOM     24  C   UNL     1      13.585   1.960  -6.672  0.00  0.00    +0.017 C 
ENDBRANCH  19  18
ENDBRANCH  12   4
BRANCH  13   5
ATOM      3  O   UNL     1      11.435   6.932   3.824  0.00  0.00    -0.252 OA
ATOM      5  N   UNL     1      11.784   4.799   3.002  0.00  0.00    -0.292 N 
ATOM      8  N   UNL     1      10.645   5.049   4.981  0.00  0.00    -0.269 N 
ATOM     17  C   UNL     1      11.293   5.717   3.939  0.00  0.00    +0.304 C 
ATOM     33  H   UNL     1      11.568   3.816   3.134  0.00  0.00    +0.151 HD
ATOM     34  H   UNL     1      10.618   4.034   4.924  0.00  0.00    +0.156 HD
BRANCH   8  25
ATOM     25  C   UNL     1      10.017   5.614   6.115  0.00  0.00    +0.036 A 
ATOM     26  C   UNL     1      10.205   5.027   7.357  0.00  0.00    +0.042 A 
ATOM     27  C   UNL     1       9.226   6.741   5.962  0.00  0.00    +0.023 A 
ATOM     28  C   UNL     1       9.583   5.584   8.475  0.00  0.00    +0.054 A 
ATOM     29  C   UNL     1       8.604   7.296   7.081  0.00  0.00    +0.003 A 
ATOM     30  C   UNL     1       8.784   6.718   8.338  0.00  0.00    +0.019 A 
BRANCH  28  31
ATOM      9  N   UNL     1       9.917   4.510  10.810  0.00  0.00    -0.191 NA
ATOM     31  C   UNL     1       9.767   4.992   9.763  0.00  0.00    +0.099 C 
ENDBRANCH  28  31
ENDBRANCH   8  25
ENDBRANCH  13   5
TORSDOF 5
ENDMDL
MODEL 6
REMARK VINA RESULT:      -6.7     40.411     43.821
REMARK  Name = 11941642
REMARK  8 active torsions:
REMARK  status: ('A' for Active; 'I' for Inactive)
REMARK    1  A    between atoms: N_4  and  C_12
REMARK    2  A    between atoms: N_5  and  C_13
REMARK    3  A    between atoms: N_8  and  C_25
REMARK    4  A    between atoms: C_18  and  C_19
REMARK    5  A    between atoms: C_18  and  C_22
REMARK    6  A    between atoms: C_18  and  C_23
REMARK    7  A    between atoms: C_18  and  C_24
REMARK    8  A    between atoms: C_28  and  C_31
REMARK                            x       y       z     vdW  Elec       q    Type
REMARK                         _______ _______ _______ _____ _____    ______ ____
ROOT
ATOM      1  O   UNL     1      21.295  -7.504  -0.516  0.00  0.00    -0.370 OA
ATOM      2  O   UNL     1      19.186  -8.731  -2.461  0.00  0.00    -0.370 OA
ATOM     10  C   UNL     1      19.250  -7.494  -1.731  0.00  0.00    +0.171 C 
ATOM     11  C   UNL     1      19.893  -7.794  -0.391  0.00  0.00    +0.171 C 
ATOM     12  C   UNL     1      20.212  -6.541  -2.398  0.00  0.00    +0.130 C 
ATOM     13  C   UNL     1      19.679  -9.279  -0.205  0.00  0.00    +0.131 C 
ATOM     14  C   UNL     1      21.551  -6.960  -1.820  0.00  0.00    +0.185 C 
ATOM     15  C   UNL     1      19.690  -9.791  -1.635  0.00  0.00    +0.185 C 
ENDROOT
BRANCH  12   4
ATOM      4  N   UNL     1      19.907  -5.179  -2.016  0.00  0.00    -0.306 N 
ATOM      6  N   UNL     1      17.799  -5.247  -3.044  0.00  0.00    -0.219 NA
ATOM      7  N   UNL     1      18.559  -3.262  -1.910  0.00  0.00    -0.223 NA
ATOM     16  C   UNL     1      18.719  -4.544  -2.332  0.00  0.00    +0.216 A 
ATOM     19  C   UNL     1      16.654  -4.597  -3.335  0.00  0.00    +0.052 A 
ATOM     20  C   UNL     1      16.391  -3.297  -2.954  0.00  0.00    +0.043 A 
ATOM     21  C   UNL     1      17.390  -2.672  -2.236  0.00  0.00    +0.116 A 
ATOM     32  H   UNL     1      20.564  -4.664  -1.441  0.00  0.00    +0.149 HD
BRANCH  19  18
ATOM     18  C   UNL     1      15.632  -5.353  -4.116  0.00  0.00    +0.005 C 
ATOM     22  C   UNL     1      15.971  -6.875  -4.164  0.00  0.00    +0.017 C 
ATOM     23  C   UNL     1      14.213  -5.206  -3.484  0.00  0.00    +0.017 C 
ATOM     24  C   UNL     1      15.470  -4.916  -5.610  0.00  0.00    +0.017 C 
ENDBRANCH  19  18
ENDBRANCH  12   4
BRANCH  13   5
ATOM      3  O   UNL     1      19.080 -11.462   1.550  0.00  0.00    -0.252 OA
ATOM      5  N   UNL     1      18.415  -9.547   0.437  0.00  0.00    -0.292 N 
ATOM      8  N   UNL     1      16.890 -10.645   1.758  0.00  0.00    -0.269 N 
ATOM     17  C   UNL     1      18.204 -10.642   1.285  0.00  0.00    +0.304 C 
ATOM     33  H   UNL     1      17.661  -8.877   0.321  0.00  0.00    +0.151 HD
ATOM     34  H   UNL     1      16.289  -9.889   1.437  0.00  0.00    +0.156 HD
BRANCH   8  25
ATOM     25  C   UNL     1      16.284 -11.577   2.633  0.00  0.00    +0.036 A 
ATOM     26  C   UNL     1      16.067 -11.223   3.955  0.00  0.00    +0.042 A 
ATOM     27  C   UNL     1      15.921 -12.823   2.150  0.00  0.00    +0.023 A 
ATOM     28  C   UNL     1      15.471 -12.143   4.818  0.00  0.00    +0.054 A 
ATOM     29  C   UNL     1      15.326 -13.743   3.014  0.00  0.00    +0.003 A 
ATOM     30  C   UNL     1      15.100 -13.403   4.348  0.00  0.00    +0.019 A 
BRANCH  28  31
ATOM      9  N   UNL     1      15.053 -11.512   7.296  0.00  0.00    -0.191 NA
ATOM     31  C   UNL     1      15.240 -11.795   6.185  0.00  0.00    +0.099 C 
ENDBRANCH  28  31
ENDBRANCH   8  25
ENDBRANCH  13   5
TORSDOF 5
ENDMDL
MODEL 7
REMARK VINA RESULT:      -6.6     20.665     24.839
REMARK  Name = 11941642
REMARK  8 active torsions:
REMARK  status: ('A' for Active; 'I' for Inactive)
REMARK    1  A    between atoms: N_4  and  C_12
REMARK    2  A    between atoms: N_5  and  C_13
REMARK    3  A    between atoms: N_8  and  C_25
REMARK    4  A    between atoms: C_18  and  C_19
REMARK    5  A    between atoms: C_18  and  C_22
REMARK    6  A    between atoms: C_18  and  C_23
REMARK    7  A    between atoms: C_18  and  C_24
REMARK    8  A    between atoms: C_28  and  C_31
REMARK                            x       y       z     vdW  Elec       q    Type
REMARK                         _______ _______ _______ _____ _____    ______ ____
ROOT
ATOM      1  O   UNL     1      -6.233 -11.495  11.203  0.00  0.00    -0.370 OA
ATOM      2  O   UNL     1      -4.219  -9.114  11.087  0.00  0.00    -0.370 OA
ATOM     10  C   UNL     1      -5.571  -9.237  11.558  0.00  0.00    +0.171 C 
ATOM     11  C   UNL     1      -6.291 -10.183  10.617  0.00  0.00    +0.171 C 
ATOM     12  C   UNL     1      -5.600  -9.947  12.890  0.00  0.00    +0.130 C 
ATOM     13  C   UNL     1      -5.470 -10.137   9.349  0.00  0.00    +0.131 C 
ATOM     14  C   UNL     1      -5.598 -11.410  12.488  0.00  0.00    +0.185 C 
ATOM     15  C   UNL     1      -4.071  -9.872   9.877  0.00  0.00    +0.185 C 
ENDROOT
BRANCH  12   4
ATOM      4  N   UNL     1      -6.819  -9.624  13.598  0.00  0.00    -0.306 N 
ATOM      6  N   UNL     1      -6.018 -10.521  15.612  0.00  0.00    -0.219 NA
ATOM      7  N   UNL     1      -8.217  -9.547  15.481  0.00  0.00    -0.223 NA
ATOM     16  C   UNL     1      -7.025  -9.905  14.937  0.00  0.00    +0.216 A 
ATOM     19  C   UNL     1      -6.252 -10.780  16.915  0.00  0.00    +0.052 A 
ATOM     20  C   UNL     1      -7.426 -10.457  17.563  0.00  0.00    +0.043 A 
ATOM     21  C   UNL     1      -8.383  -9.835  16.788  0.00  0.00    +0.116 A 
ATOM     32  H   UNL     1      -7.556  -9.118  13.118  0.00  0.00    +0.149 HD
BRANCH  19  18
ATOM     18  C   UNL     1      -5.158 -11.456  17.672  0.00  0.00    +0.005 C 
ATOM     22  C   UNL     1      -3.755 -11.047  17.125  0.00  0.00    +0.017 C 
ATOM     23  C   UNL     1      -5.200 -11.080  19.185  0.00  0.00    +0.017 C 
ATOM     24  C   UNL     1      -5.180 -13.021  17.630  0.00  0.00    +0.017 C 
ENDBRANCH  19  18
ENDBRANCH  12   4
BRANCH  13   5
ATOM      3  O   UNL     1      -7.447 -10.320   7.284  0.00  0.00    -0.252 OA
ATOM      5  N   UNL     1      -5.910  -9.073   8.480  0.00  0.00    -0.292 N 
ATOM      8  N   UNL     1      -7.107  -8.047   6.810  0.00  0.00    -0.269 N 
ATOM     17  C   UNL     1      -6.887  -9.246   7.491  0.00  0.00    +0.304 C 
ATOM     33  H   UNL     1      -5.543  -8.139   8.635  0.00  0.00    +0.151 HD
ATOM     34  H   UNL     1      -6.555  -7.246   7.107  0.00  0.00    +0.156 HD
BRANCH   8  25
ATOM     25  C   UNL     1      -8.010  -7.805   5.748  0.00  0.00    +0.036 A 
ATOM     26  C   UNL     1      -7.627  -8.107   4.450  0.00  0.00    +0.042 A 
ATOM     27  C   UNL     1      -9.258  -7.272   6.026  0.00  0.00    +0.023 A 
ATOM     28  C   UNL     1      -8.517  -7.867   3.404  0.00  0.00    +0.054 A 
ATOM     29  C   UNL     1     -10.147  -7.031   4.979  0.00  0.00    +0.003 A 
ATOM     30  C   UNL     1      -9.777  -7.330   3.667  0.00  0.00    +0.019 A 
BRANCH  28  31
ATOM      9  N   UNL     1      -7.832  -8.421   0.967  0.00  0.00    -0.191 NA
ATOM     31  C   UNL     1      -8.139  -8.172   2.060  0.00  0.00    +0.099 C 
ENDBRANCH  28  31
ENDBRANCH   8  25
ENDBRANCH  13   5
TORSDOF 5
ENDMDL
MODEL 8
REMARK VINA RESULT:      -6.6     18.512     21.992
REMARK  Name = 11941642
REMARK  8 active torsions:
REMARK  status: ('A' for Active; 'I' for Inactive)
REMARK    1  A    between atoms: N_4  and  C_12
REMARK    2  A    between atoms: N_5  and  C_13
REMARK    3  A    between atoms: N_8  and  C_25
REMARK    4  A    between atoms: C_18  and  C_19
REMARK    5  A    between atoms: C_18  and  C_22
REMARK    6  A    between atoms: C_18  and  C_23
REMARK    7  A    between atoms: C_18  and  C_24
REMARK    8  A    between atoms: C_28  and  C_31
REMARK                            x       y       z     vdW  Elec       q    Type
REMARK                         _______ _______ _______ _____ _____    ______ ____
ROOT
ATOM      1  O   UNL     1      -9.323 -10.941  20.148  0.00  0.00    -0.370 OA
ATOM      2  O   UNL     1      -9.646 -12.627  17.542  0.00  0.00    -0.370 OA
ATOM     10  C   UNL     1      -9.184 -12.941  18.866  0.00  0.00    +0.171 C 
ATOM     11  C   UNL     1      -8.413 -11.737  19.371  0.00  0.00    +0.171 C 
ATOM     12  C   UNL     1     -10.352 -13.056  19.816  0.00  0.00    +0.130 C 
ATOM     13  C   UNL     1      -8.014 -11.001  18.112  0.00  0.00    +0.131 C 
ATOM     14  C   UNL     1     -10.588 -11.616  20.231  0.00  0.00    +0.185 C 
ATOM     15  C   UNL     1      -9.157 -11.331  17.167  0.00  0.00    +0.185 C 
ENDROOT
BRANCH  12   4
ATOM      4  N   UNL     1      -9.981 -13.853  20.964  0.00  0.00    -0.306 N 
ATOM      6  N   UNL     1     -12.012 -13.425  22.057  0.00  0.00    -0.219 NA
ATOM      7  N   UNL     1     -10.327 -14.811  23.078  0.00  0.00    -0.223 NA
ATOM     16  C   UNL     1     -10.798 -14.036  22.066  0.00  0.00    +0.216 A 
ATOM     19  C   UNL     1     -12.782 -13.623  23.146  0.00  0.00    +0.052 A 
ATOM     20  C   UNL     1     -12.400 -14.392  24.226  0.00  0.00    +0.043 A 
ATOM     21  C   UNL     1     -11.149 -14.968  24.136  0.00  0.00    +0.116 A 
ATOM     32  H   UNL     1      -9.099 -14.355  20.959  0.00  0.00    +0.149 HD
BRANCH  19  18
ATOM     18  C   UNL     1     -14.119 -12.960  23.153  0.00  0.00    +0.005 C 
ATOM     22  C   UNL     1     -14.174 -11.789  22.124  0.00  0.00    +0.017 C 
ATOM     23  C   UNL     1     -15.252 -13.967  22.782  0.00  0.00    +0.017 C 
ATOM     24  C   UNL     1     -14.550 -12.333  24.521  0.00  0.00    +0.017 C 
ENDBRANCH  19  18
ENDBRANCH  12   4
BRANCH  13   5
ATOM      3  O   UNL     1      -6.131  -9.536  16.527  0.00  0.00    -0.252 OA
ATOM      5  N   UNL     1      -6.756 -11.487  17.600  0.00  0.00    -0.292 N 
ATOM      8  N   UNL     1      -4.753 -11.435  16.477  0.00  0.00    -0.269 N 
ATOM     17  C   UNL     1      -5.889 -10.701  16.829  0.00  0.00    +0.304 C 
ATOM     33  H   UNL     1      -6.454 -12.419  17.863  0.00  0.00    +0.151 HD
ATOM     34  H   UNL     1      -4.709 -12.395  16.809  0.00  0.00    +0.156 HD
BRANCH   8  25
ATOM     25  C   UNL     1      -3.647 -11.005  15.707  0.00  0.00    +0.036 A 
ATOM     26  C   UNL     1      -3.768 -10.926  14.329  0.00  0.00    +0.042 A 
ATOM     27  C   UNL     1      -2.464 -10.671  16.347  0.00  0.00    +0.023 A 
ATOM     28  C   UNL     1      -2.677 -10.504  13.571  0.00  0.00    +0.054 A 
ATOM     29  C   UNL     1      -1.373 -10.249  15.588  0.00  0.00    +0.003 A 
ATOM     30  C   UNL     1      -1.479 -10.164  14.199  0.00  0.00    +0.019 A 
BRANCH  28  31
ATOM      9  N   UNL     1      -2.873 -10.346  10.991  0.00  0.00    -0.191 NA
ATOM     31  C   UNL     1      -2.785 -10.416  12.148  0.00  0.00    +0.099 C 
ENDBRANCH  28  31
ENDBRANCH   8  25
ENDBRANCH  13   5
TORSDOF 5
ENDMDL
MODEL 9
REMARK VINA RESULT:      -6.6     31.557     36.290
REMARK  Name = 11941642
REMARK  8 active torsions:
REMARK  status: ('A' for Active; 'I' for Inactive)
REMARK    1  A    between atoms: N_4  and  C_12
REMARK    2  A    between atoms: N_5  and  C_13
REMARK    3  A    between atoms: N_8  and  C_25
REMARK    4  A    between atoms: C_18  and  C_19
REMARK    5  A    between atoms: C_18  and  C_22
REMARK    6  A    between atoms: C_18  and  C_23
REMARK    7  A    between atoms: C_18  and  C_24
REMARK    8  A    between atoms: C_28  and  C_31
REMARK                            x       y       z     vdW  Elec       q    Type
REMARK                         _______ _______ _______ _____ _____    ______ ____
ROOT
ATOM      1  O   UNL     1      13.315   6.137   0.066  0.00  0.00    -0.370 OA
ATOM      2  O   UNL     1      12.187   3.228   0.133  0.00  0.00    -0.370 OA
ATOM     10  C   UNL     1      11.614   4.498  -0.222  0.00  0.00    +0.171 C 
ATOM     11  C   UNL     1      12.190   5.532   0.725  0.00  0.00    +0.171 C 
ATOM     12  C   UNL     1      12.103   4.931  -1.584  0.00  0.00    +0.130 C 
ATOM     13  C   UNL     1      12.651   4.724   1.916  0.00  0.00    +0.131 C 
ATOM     14  C   UNL     1      13.424   5.607  -1.264  0.00  0.00    +0.185 C 
ATOM     15  C   UNL     1      13.031   3.398   1.281  0.00  0.00    +0.185 C 
ENDROOT
BRANCH  12   4
ATOM      4  N   UNL     1      11.181   5.883  -2.162  0.00  0.00    -0.306 N 
ATOM      6  N   UNL     1      11.183   4.792  -4.239  0.00  0.00    -0.219 NA
ATOM      7  N   UNL     1       9.859   6.774  -3.884  0.00  0.00    -0.223 NA
ATOM     16  C   UNL     1      10.727   5.814  -3.467  0.00  0.00    +0.216 A 
ATOM     19  C   UNL     1      10.720   4.755  -5.505  0.00  0.00    +0.052 A 
ATOM     20  C   UNL     1       9.838   5.679  -6.027  0.00  0.00    +0.043 A 
ATOM     21  C   UNL     1       9.437   6.676  -5.162  0.00  0.00    +0.116 A 
ATOM     32  H   UNL     1      10.794   6.619  -1.580  0.00  0.00    +0.149 HD
BRANCH  19  18
ATOM     18  C   UNL     1      11.210   3.640  -6.366  0.00  0.00    +0.005 C 
ATOM     22  C   UNL     1      12.417   2.904  -5.706  0.00  0.00    +0.017 C 
ATOM     23  C   UNL     1      10.091   2.581  -6.612  0.00  0.00    +0.017 C 
ATOM     24  C   UNL     1      11.707   4.059  -7.790  0.00  0.00    +0.017 C 
ENDBRANCH  19  18
ENDBRANCH  12   4
BRANCH  13   5
ATOM      3  O   UNL     1      12.105   6.403   4.172  0.00  0.00    -0.252 OA
ATOM      5  N   UNL     1      11.589   4.558   2.878  0.00  0.00    -0.292 N 
ATOM      8  N   UNL     1      10.290   5.018   4.715  0.00  0.00    -0.269 N 
ATOM     17  C   UNL     1      11.390   5.428   3.957  0.00  0.00    +0.304 C 
ATOM     33  H   UNL     1      10.915   3.813   2.729  0.00  0.00    +0.151 HD
ATOM     34  H   UNL     1       9.805   4.182   4.399  0.00  0.00    +0.156 HD
BRANCH   8  25
ATOM     25  C   UNL     1       9.764   5.625   5.879  0.00  0.00    +0.036 A 
ATOM     26  C   UNL     1      10.017   5.054   7.117  0.00  0.00    +0.042 A 
ATOM     27  C   UNL     1       9.005   6.778   5.759  0.00  0.00    +0.023 A 
ATOM     28  C   UNL     1       9.496   5.653   8.263  0.00  0.00    +0.054 A 
ATOM     29  C   UNL     1       8.485   7.376   6.906  0.00  0.00    +0.003 A 
ATOM     30  C   UNL     1       8.730   6.814   8.160  0.00  0.00    +0.019 A 
BRANCH  28  31
ATOM      9  N   UNL     1       9.953   4.608  10.591  0.00  0.00    -0.191 NA
ATOM     31  C   UNL     1       9.748   5.077   9.547  0.00  0.00    +0.099 C 
ENDBRANCH  28  31
ENDBRANCH   8  25
ENDBRANCH  13   5
TORSDOF 5
ENDMDL
MODEL 10
REMARK VINA RESULT:      -6.5     21.446     23.506
REMARK  Name = 11941642
REMARK  8 active torsions:
REMARK  status: ('A' for Active; 'I' for Inactive)
REMARK    1  A    between atoms: N_4  and  C_12
REMARK    2  A    between atoms: N_5  and  C_13
REMARK    3  A    between atoms: N_8  and  C_25
REMARK    4  A    between atoms: C_18  and  C_19
REMARK    5  A    between atoms: C_18  and  C_22
REMARK    6  A    between atoms: C_18  and  C_23
REMARK    7  A    between atoms: C_18  and  C_24
REMARK    8  A    between atoms: C_28  and  C_31
REMARK                            x       y       z     vdW  Elec       q    Type
REMARK                         _______ _______ _______ _____ _____    ______ ____
ROOT
ATOM      1  O   UNL     1      -1.558  -9.809  13.110  0.00  0.00    -0.370 OA
ATOM      2  O   UNL     1      -2.326 -12.727  12.313  0.00  0.00    -0.370 OA
ATOM     10  C   UNL     1      -3.054 -11.487  12.329  0.00  0.00    +0.171 C 
ATOM     11  C   UNL     1      -2.591 -10.710  13.546  0.00  0.00    +0.171 C 
ATOM     12  C   UNL     1      -2.644 -10.624  11.160  0.00  0.00    +0.130 C 
ATOM     13  C   UNL     1      -2.016 -11.766  14.461  0.00  0.00    +0.131 C 
ATOM     14  C   UNL     1      -1.409  -9.915  11.686  0.00  0.00    +0.185 C 
ATOM     15  C   UNL     1      -1.490 -12.796  13.477  0.00  0.00    +0.185 C 
ENDROOT
BRANCH  12   4
ATOM      4  N   UNL     1      -3.684  -9.663  10.865  0.00  0.00    -0.306 N 
ATOM      6  N   UNL     1      -4.382 -10.839   8.959  0.00  0.00    -0.219 NA
ATOM      7  N   UNL     1      -5.475  -8.796   9.621  0.00  0.00    -0.223 NA
ATOM     16  C   UNL     1      -4.540  -9.769   9.783  0.00  0.00    +0.216 A 
ATOM     19  C   UNL     1      -5.233 -10.911   7.914  0.00  0.00    +0.052 A 
ATOM     20  C   UNL     1      -6.217  -9.978   7.661  0.00  0.00    +0.043 A 
ATOM     21  C   UNL     1      -6.293  -8.932   8.557  0.00  0.00    +0.116 A 
ATOM     32  H   UNL     1      -3.843  -8.889  11.502  0.00  0.00    +0.149 HD
BRANCH  19  18
ATOM     18  C   UNL     1      -5.074 -12.079   6.999  0.00  0.00    +0.005 C 
ATOM     22  C   UNL     1      -6.445 -12.773   6.726  0.00  0.00    +0.017 C 
ATOM     23  C   UNL     1      -4.485 -11.643   5.622  0.00  0.00    +0.017 C 
ATOM     24  C   UNL     1      -4.129 -13.214   7.517  0.00  0.00    +0.017 C 
ENDBRANCH  19  18
ENDBRANCH  12   4
BRANCH  13   5
ATOM      3  O   UNL     1      -3.563 -10.375  16.430  0.00  0.00    -0.252 OA
ATOM      5  N   UNL     1      -3.034 -12.330  15.313  0.00  0.00    -0.292 N 
ATOM      8  N   UNL     1      -4.664 -12.387  16.930  0.00  0.00    -0.269 N 
ATOM     17  C   UNL     1      -3.748 -11.577  16.254  0.00  0.00    +0.304 C 
ATOM     33  H   UNL     1      -3.292 -13.303  15.180  0.00  0.00    +0.151 HD
ATOM     34  H   UNL     1      -4.689 -13.368  16.663  0.00  0.00    +0.156 HD
BRANCH   8  25
ATOM     25  C   UNL     1      -5.569 -12.009  17.950  0.00  0.00    +0.036 A 
ATOM     26  C   UNL     1      -6.625 -12.849  18.266  0.00  0.00    +0.042 A 
ATOM     27  C   UNL     1      -5.382 -10.806  18.610  0.00  0.00    +0.023 A 
ATOM     28  C   UNL     1      -7.517 -12.475  19.270  0.00  0.00    +0.054 A 
ATOM     29  C   UNL     1      -6.276 -10.432  19.614  0.00  0.00    +0.003 A 
ATOM     30  C   UNL     1      -7.343 -11.267  19.945  0.00  0.00    +0.019 A 
BRANCH  28  31
ATOM      9  N   UNL     1      -9.499 -14.027  19.885  0.00  0.00    -0.191 NA
ATOM     31  C   UNL     1      -8.611 -13.331  19.610  0.00  0.00    +0.099 C 
ENDBRANCH  28  31
ENDBRANCH   8  25
ENDBRANCH  13   5
TORSDOF 5
ENDMDL
