MODEL 1
REMARK VINA RESULT:      -5.9      0.000      0.000
REMARK  Name = 28959666
REMARK  10 active torsions:
REMARK  status: ('A' for Active; 'I' for Inactive)
REMARK    1  A    between atoms: O_2  and  C_23
REMARK    2  A    between atoms: O_5  and  C_29
REMARK    3  A    between atoms: O_5  and  C_30
REMARK    4  A    between atoms: N_6  and  C_14
REMARK    5  A    between atoms: C_9  and  C_11
REMARK    6  A    between atoms: C_10  and  C_17
REMARK    7  A    between atoms: C_11  and  C_14
REMARK    8  A    between atoms: C_16  and  C_22
REMARK    9  A    between atoms: C_17  and  C_23
REMARK   10  A    between atoms: C_21  and  C_24
REMARK                            x       y       z     vdW  Elec       q    Type
REMARK                         _______ _______ _______ _____ _____    ______ ____
ROOT
ATOM      1  O   UNL     1      13.430  14.123  23.179  0.00  0.00    -0.270 OA
ATOM      7  N   UNL     1      13.344  11.788  23.059  0.00  0.00    -0.297 N 
ATOM      9  C   UNL     1      13.310   9.704  21.705  0.00  0.00    +0.011 C 
ATOM     10  C   UNL     1      11.790   9.594  21.985  0.00  0.00    +0.006 C 
ATOM     12  C   UNL     1      13.996  10.490  22.838  0.00  0.00    +0.112 C 
ATOM     13  C   UNL     1      11.162  10.972  22.256  0.00  0.00    +0.023 C 
ATOM     15  C   UNL     1      11.915  11.714  23.357  0.00  0.00    +0.108 C 
ATOM     21  C   UNL     1      13.973  13.033  23.000  0.00  0.00    +0.247 C 
ENDROOT
BRANCH  21  24
ATOM     24  C   UNL     1      15.408  13.068  22.698  0.00  0.00    +0.037 A 
ATOM     25  C   UNL     1      15.840  13.194  21.377  0.00  0.00    +0.016 A 
ATOM     26  C   UNL     1      16.341  12.974  23.730  0.00  0.00    +0.016 A 
ATOM     27  C   UNL     1      17.204  13.225  21.089  0.00  0.00    +0.046 A 
ATOM     28  C   UNL     1      17.705  13.004  23.443  0.00  0.00    +0.046 A 
ATOM     29  C   UNL     1      18.137  13.130  22.122  0.00  0.00    +0.120 A 
BRANCH  29   5
ATOM      5  O   UNL     1      19.469  13.160  21.842  0.00  0.00    -0.495 OA
ATOM     30  C   UNL     1      19.859  12.830  20.509  0.00  0.00    +0.277 C 
ENDBRANCH  29   5
ENDBRANCH  21  24
BRANCH   9  11
ATOM     11  C   UNL     1      13.649  10.327  20.345  0.00  0.00    +0.021 C 
BRANCH  11  14
ATOM     14  C   UNL     1      15.027   9.883  19.873  0.00  0.00    +0.085 C 
BRANCH  14   6
ATOM      6  N   UNL     1      14.893   8.938  18.773  0.00  0.00    -0.291 NA
ATOM     16  C   UNL     1      13.981   7.829  19.073  0.00  0.00    +0.143 C 
ATOM     18  C   UNL     1      14.387   9.575  17.555  0.00  0.00    +0.085 C 
ATOM     19  C   UNL     1      13.358   7.434  17.734  0.00  0.00    +0.029 C 
ATOM     20  C   UNL     1      13.988   8.376  16.718  0.00  0.00    +0.017 C 
BRANCH  16  22
ATOM      3  O   UNL     1      15.756   6.235  19.023  0.00  0.00    -0.274 OA
ATOM      8  N   UNL     1      14.398   6.298  20.879  0.00  0.00    -0.328 N 
ATOM     22  C   UNL     1      14.809   6.721  19.637  0.00  0.00    +0.228 C 
ATOM     31  H   UNL     1      13.610   6.711  21.367  0.00  0.00    +0.145 HD
ATOM     32  H   UNL     1      14.883   5.547  21.359  0.00  0.00    +0.145 HD
ENDBRANCH  16  22
ENDBRANCH  14   6
ENDBRANCH  11  14
ENDBRANCH   9  11
BRANCH  10  17
ATOM     17  C   UNL     1      11.026   8.863  20.879  0.00  0.00    +0.124 C 
BRANCH  17  23
ATOM      4  O   UNL     1      11.362   6.449  20.844  0.00  0.00    -0.251 OA
ATOM     23  C   UNL     1      10.755   7.431  21.245  0.00  0.00    +0.305 C 
BRANCH  23   2
ATOM      2  O   UNL     1       9.713   7.370  22.114  0.00  0.00    -0.481 OA
ATOM     33  H   UNL     1       8.929   6.936  21.714  0.00  0.00    +0.295 HD
ENDBRANCH  23   2
ENDBRANCH  17  23
ENDBRANCH  10  17
TORSDOF 9
ENDMDL
MODEL 2
REMARK VINA RESULT:      -5.8     27.754     30.386
REMARK  Name = 28959666
REMARK  10 active torsions:
REMARK  status: ('A' for Active; 'I' for Inactive)
REMARK    1  A    between atoms: O_2  and  C_23
REMARK    2  A    between atoms: O_5  and  C_29
REMARK    3  A    between atoms: O_5  and  C_30
REMARK    4  A    between atoms: N_6  and  C_14
REMARK    5  A    between atoms: C_9  and  C_11
REMARK    6  A    between atoms: C_10  and  C_17
REMARK    7  A    between atoms: C_11  and  C_14
REMARK    8  A    between atoms: C_16  and  C_22
REMARK    9  A    between atoms: C_17  and  C_23
REMARK   10  A    between atoms: C_21  and  C_24
REMARK                            x       y       z     vdW  Elec       q    Type
REMARK                         _______ _______ _______ _____ _____    ______ ____
ROOT
ATOM      1  O   UNL     1      -1.500 -10.017  12.358  0.00  0.00    -0.270 OA
ATOM      7  N   UNL     1      -2.813 -11.331  13.779  0.00  0.00    -0.297 N 
ATOM      9  C   UNL     1      -4.713 -11.542  15.368  0.00  0.00    +0.011 C 
ATOM     10  C   UNL     1      -3.687 -11.582  16.529  0.00  0.00    +0.006 C 
ATOM     12  C   UNL     1      -4.059 -12.054  14.072  0.00  0.00    +0.112 C 
ATOM     13  C   UNL     1      -2.384 -10.853  16.158  0.00  0.00    +0.023 C 
ATOM     15  C   UNL     1      -1.812 -11.378  14.844  0.00  0.00    +0.108 C 
ATOM     21  C   UNL     1      -2.539 -10.628  12.605  0.00  0.00    +0.247 C 
ENDROOT
BRANCH  21  24
ATOM     24  C   UNL     1      -3.567 -10.603  11.559  0.00  0.00    +0.037 A 
ATOM     25  C   UNL     1      -4.547  -9.610  11.568  0.00  0.00    +0.016 A 
ATOM     26  C   UNL     1      -3.567 -11.573  10.556  0.00  0.00    +0.016 A 
ATOM     27  C   UNL     1      -5.527  -9.587  10.576  0.00  0.00    +0.046 A 
ATOM     28  C   UNL     1      -4.547 -11.550   9.564  0.00  0.00    +0.046 A 
ATOM     29  C   UNL     1      -5.526 -10.557   9.573  0.00  0.00    +0.120 A 
BRANCH  29   5
ATOM      5  O   UNL     1      -6.482 -10.534   8.604  0.00  0.00    -0.495 OA
ATOM     30  C   UNL     1      -6.183  -9.806   7.414  0.00  0.00    +0.277 C 
ENDBRANCH  29   5
ENDBRANCH  21  24
BRANCH   9  11
ATOM     11  C   UNL     1      -5.339 -10.160  15.138  0.00  0.00    +0.021 C 
BRANCH  11  14
ATOM     14  C   UNL     1      -6.738 -10.288  14.554  0.00  0.00    +0.085 C 
BRANCH  14   6
ATOM      6  N   UNL     1      -7.487 -11.307  15.277  0.00  0.00    -0.291 NA
ATOM     16  C   UNL     1      -8.562 -10.754  16.106  0.00  0.00    +0.143 C 
ATOM     18  C   UNL     1      -8.113 -12.277  14.375  0.00  0.00    +0.085 C 
ATOM     19  C   UNL     1      -9.653 -11.825  16.136  0.00  0.00    +0.029 C 
ATOM     20  C   UNL     1      -9.100 -12.967  15.296  0.00  0.00    +0.017 C 
BRANCH  16  22
ATOM      3  O   UNL     1      -7.627 -11.443  18.191  0.00  0.00    -0.274 OA
ATOM      8  N   UNL     1      -7.934  -9.192  17.823  0.00  0.00    -0.328 N 
ATOM     22  C   UNL     1      -7.991 -10.519  17.466  0.00  0.00    +0.228 C 
ATOM     31  H   UNL     1      -8.244  -8.445  17.210  0.00  0.00    +0.145 HD
ATOM     32  H   UNL     1      -7.567  -8.912  18.727  0.00  0.00    +0.145 HD
ENDBRANCH  16  22
ENDBRANCH  14   6
ENDBRANCH  11  14
ENDBRANCH   9  11
BRANCH  10  17
ATOM     17  C   UNL     1      -4.248 -11.044  17.846  0.00  0.00    +0.124 C 
BRANCH  17  23
ATOM      4  O   UNL     1      -3.405 -12.135  19.857  0.00  0.00    -0.251 OA
ATOM     23  C   UNL     1      -4.202 -12.082  18.933  0.00  0.00    +0.305 C 
BRANCH  23   2
ATOM      2  O   UNL     1      -5.200 -12.984  18.745  0.00  0.00    -0.481 OA
ATOM     33  H   UNL     1      -5.187 -13.690  19.426  0.00  0.00    +0.295 HD
ENDBRANCH  23   2
ENDBRANCH  17  23
ENDBRANCH  10  17
TORSDOF 9
ENDMDL
MODEL 3
REMARK VINA RESULT:      -5.8     28.571     30.651
REMARK  Name = 28959666
REMARK  10 active torsions:
REMARK  status: ('A' for Active; 'I' for Inactive)
REMARK    1  A    between atoms: O_2  and  C_23
REMARK    2  A    between atoms: O_5  and  C_29
REMARK    3  A    between atoms: O_5  and  C_30
REMARK    4  A    between atoms: N_6  and  C_14
REMARK    5  A    between atoms: C_9  and  C_11
REMARK    6  A    between atoms: C_10  and  C_17
REMARK    7  A    between atoms: C_11  and  C_14
REMARK    8  A    between atoms: C_16  and  C_22
REMARK    9  A    between atoms: C_17  and  C_23
REMARK   10  A    between atoms: C_21  and  C_24
REMARK                            x       y       z     vdW  Elec       q    Type
REMARK                         _______ _______ _______ _____ _____    ______ ____
ROOT
ATOM      1  O   UNL     1     -10.953 -11.856  17.470  0.00  0.00    -0.270 OA
ATOM      7  N   UNL     1      -8.879 -11.265  18.377  0.00  0.00    -0.297 N 
ATOM      9  C   UNL     1      -6.441 -10.872  18.093  0.00  0.00    +0.011 C 
ATOM     10  C   UNL     1      -6.181 -12.237  18.779  0.00  0.00    +0.006 C 
ATOM     12  C   UNL     1      -7.790 -10.297  18.565  0.00  0.00    +0.112 C 
ATOM     13  C   UNL     1      -7.368 -13.199  18.594  0.00  0.00    +0.023 C 
ATOM     15  C   UNL     1      -8.677 -12.552  19.039  0.00  0.00    +0.108 C 
ATOM     21  C   UNL     1     -10.041 -11.047  17.634  0.00  0.00    +0.247 C 
ENDROOT
BRANCH  21  24
ATOM     24  C   UNL     1     -10.209  -9.743  16.983  0.00  0.00    +0.037 A 
ATOM     25  C   UNL     1      -9.675  -9.523  15.714  0.00  0.00    +0.016 A 
ATOM     26  C   UNL     1     -10.902  -8.721  17.634  0.00  0.00    +0.016 A 
ATOM     27  C   UNL     1      -9.832  -8.283  15.095  0.00  0.00    +0.046 A 
ATOM     28  C   UNL     1     -11.059  -7.482  17.016  0.00  0.00    +0.046 A 
ATOM     29  C   UNL     1     -10.525  -7.262  15.746  0.00  0.00    +0.120 A 
BRANCH  29   5
ATOM      5  O   UNL     1     -10.679  -6.051  15.143  0.00  0.00    -0.495 OA
ATOM     30  C   UNL     1     -12.015  -5.615  14.895  0.00  0.00    +0.277 C 
ENDBRANCH  29   5
ENDBRANCH  21  24
BRANCH   9  11
ATOM     11  C   UNL     1      -6.392 -10.926  16.561  0.00  0.00    +0.021 C 
BRANCH  11  14
ATOM     14  C   UNL     1      -5.425  -9.887  16.012  0.00  0.00    +0.085 C 
BRANCH  14   6
ATOM      6  N   UNL     1      -5.146 -10.162  14.609  0.00  0.00    -0.291 NA
ATOM     16  C   UNL     1      -4.508 -11.465  14.393  0.00  0.00    +0.143 C 
ATOM     18  C   UNL     1      -6.361 -10.152  13.791  0.00  0.00    +0.085 C 
ATOM     19  C   UNL     1      -4.980 -11.932  13.016  0.00  0.00    +0.029 C 
ATOM     20  C   UNL     1      -5.883 -10.814  12.514  0.00  0.00    +0.017 C 
BRANCH  16  22
ATOM      3  O   UNL     1      -2.506 -10.289  13.845  0.00  0.00    -0.274 OA
ATOM      8  N   UNL     1      -2.336 -12.200  15.115  0.00  0.00    -0.328 N 
ATOM     22  C   UNL     1      -3.032 -11.241  14.418  0.00  0.00    +0.228 C 
ATOM     31  H   UNL     1      -2.790 -12.981  15.577  0.00  0.00    +0.145 HD
ATOM     32  H   UNL     1      -1.326 -12.153  15.196  0.00  0.00    +0.145 HD
ENDBRANCH  16  22
ENDBRANCH  14   6
ENDBRANCH  11  14
ENDBRANCH   9  11
BRANCH  10  17
ATOM     17  C   UNL     1      -4.878 -12.898  18.328  0.00  0.00    +0.124 C 
BRANCH  17  23
ATOM      4  O   UNL     1      -3.335 -12.202  20.082  0.00  0.00    -0.251 OA
ATOM     23  C   UNL     1      -3.676 -12.207  18.909  0.00  0.00    +0.305 C 
BRANCH  23   2
ATOM      2  O   UNL     1      -2.995 -11.568  17.922  0.00  0.00    -0.481 OA
ATOM     33  H   UNL     1      -3.436 -11.666  17.051  0.00  0.00    +0.295 HD
ENDBRANCH  23   2
ENDBRANCH  17  23
ENDBRANCH  10  17
TORSDOF 9
ENDMDL
MODEL 4
REMARK VINA RESULT:      -5.8     27.643     30.117
REMARK  Name = 28959666
REMARK  10 active torsions:
REMARK  status: ('A' for Active; 'I' for Inactive)
REMARK    1  A    between atoms: O_2  and  C_23
REMARK    2  A    between atoms: O_5  and  C_29
REMARK    3  A    between atoms: O_5  and  C_30
REMARK    4  A    between atoms: N_6  and  C_14
REMARK    5  A    between atoms: C_9  and  C_11
REMARK    6  A    between atoms: C_10  and  C_17
REMARK    7  A    between atoms: C_11  and  C_14
REMARK    8  A    between atoms: C_16  and  C_22
REMARK    9  A    between atoms: C_17  and  C_23
REMARK   10  A    between atoms: C_21  and  C_24
REMARK                            x       y       z     vdW  Elec       q    Type
REMARK                         _______ _______ _______ _____ _____    ______ ____
ROOT
ATOM      1  O   UNL     1      -8.712 -11.343  18.373  0.00  0.00    -0.270 OA
ATOM      7  N   UNL     1      -6.777 -10.334  17.531  0.00  0.00    -0.297 N 
ATOM      9  C   UNL     1      -5.146 -10.019  15.681  0.00  0.00    +0.011 C 
ATOM     10  C   UNL     1      -4.154 -10.926  16.454  0.00  0.00    +0.006 C 
ATOM     12  C   UNL     1      -6.117  -9.344  16.667  0.00  0.00    +0.112 C 
ATOM     13  C   UNL     1      -4.890 -11.911  17.378  0.00  0.00    +0.023 C 
ATOM     15  C   UNL     1      -5.866 -11.183  18.297  0.00  0.00    +0.108 C 
ATOM     21  C   UNL     1      -8.156 -10.512  17.656  0.00  0.00    +0.247 C 
ENDROOT
BRANCH  21  24
ATOM     24  C   UNL     1      -9.038  -9.642  16.871  0.00  0.00    +0.037 A 
ATOM     25  C   UNL     1      -9.489  -8.437  17.410  0.00  0.00    +0.016 A 
ATOM     26  C   UNL     1      -9.428 -10.020  15.586  0.00  0.00    +0.016 A 
ATOM     27  C   UNL     1     -10.329  -7.611  16.665  0.00  0.00    +0.046 A 
ATOM     28  C   UNL     1     -10.268  -9.194  14.841  0.00  0.00    +0.046 A 
ATOM     29  C   UNL     1     -10.719  -7.989  15.380  0.00  0.00    +0.120 A 
BRANCH  29   5
ATOM      5  O   UNL     1     -11.540  -7.182  14.652  0.00  0.00    -0.495 OA
ATOM     30  C   UNL     1     -11.684  -5.833  15.096  0.00  0.00    +0.277 C 
ENDBRANCH  29   5
ENDBRANCH  21  24
BRANCH   9  11
ATOM     11  C   UNL     1      -5.927 -10.748  14.581  0.00  0.00    +0.021 C 
BRANCH  11  14
ATOM     14  C   UNL     1      -5.970  -9.920  13.305  0.00  0.00    +0.085 C 
BRANCH  14   6
ATOM      6  N   UNL     1      -5.330 -10.649  12.219  0.00  0.00    -0.291 NA
ATOM     16  C   UNL     1      -4.039 -10.076  11.821  0.00  0.00    +0.143 C 
ATOM     18  C   UNL     1      -5.074 -12.048  12.567  0.00  0.00    +0.085 C 
ATOM     19  C   UNL     1      -3.197 -11.255  11.333  0.00  0.00    +0.029 C 
ATOM     20  C   UNL     1      -4.103 -12.469  11.482  0.00  0.00    +0.017 C 
BRANCH  16  22
ATOM      3  O   UNL     1      -5.143  -8.208  10.829  0.00  0.00    -0.274 OA
ATOM      8  N   UNL     1      -3.563  -9.329   9.587  0.00  0.00    -0.328 N 
ATOM     22  C   UNL     1      -4.310  -9.106  10.718  0.00  0.00    +0.228 C 
ATOM     31  H   UNL     1      -2.883 -10.078   9.516  0.00  0.00    +0.145 HD
ATOM     32  H   UNL     1      -3.665  -8.733   8.771  0.00  0.00    +0.145 HD
ENDBRANCH  16  22
ENDBRANCH  14   6
ENDBRANCH  11  14
ENDBRANCH   9  11
BRANCH  10  17
ATOM     17  C   UNL     1      -3.181 -11.670  15.538  0.00  0.00    +0.124 C 
BRANCH  17  23
ATOM      4  O   UNL     1      -1.575 -10.275  14.347  0.00  0.00    -0.251 OA
ATOM     23  C   UNL     1      -1.904 -10.900  15.344  0.00  0.00    +0.305 C 
BRANCH  23   2
ATOM      2  O   UNL     1      -1.140 -10.993  16.463  0.00  0.00    -0.481 OA
ATOM     33  H   UNL     1      -1.688 -11.041  17.276  0.00  0.00    +0.295 HD
ENDBRANCH  23   2
ENDBRANCH  17  23
ENDBRANCH  10  17
TORSDOF 9
ENDMDL
MODEL 5
REMARK VINA RESULT:      -5.5     15.831     19.672
REMARK  Name = 28959666
REMARK  10 active torsions:
REMARK  status: ('A' for Active; 'I' for Inactive)
REMARK    1  A    between atoms: O_2  and  C_23
REMARK    2  A    between atoms: O_5  and  C_29
REMARK    3  A    between atoms: O_5  and  C_30
REMARK    4  A    between atoms: N_6  and  C_14
REMARK    5  A    between atoms: C_9  and  C_11
REMARK    6  A    between atoms: C_10  and  C_17
REMARK    7  A    between atoms: C_11  and  C_14
REMARK    8  A    between atoms: C_16  and  C_22
REMARK    9  A    between atoms: C_17  and  C_23
REMARK   10  A    between atoms: C_21  and  C_24
REMARK                            x       y       z     vdW  Elec       q    Type
REMARK                         _______ _______ _______ _____ _____    ______ ____
ROOT
ATOM      1  O   UNL     1       7.391   8.858   2.551  0.00  0.00    -0.270 OA
ATOM      7  N   UNL     1       9.129   8.002   3.861  0.00  0.00    -0.297 N 
ATOM      9  C   UNL     1      10.594   6.104   4.517  0.00  0.00    +0.011 C 
ATOM     10  C   UNL     1       9.749   5.949   5.807  0.00  0.00    +0.006 C 
ATOM     12  C   UNL     1      10.522   7.558   4.015  0.00  0.00    +0.112 C 
ATOM     13  C   UNL     1       8.315   6.470   5.611  0.00  0.00    +0.023 C 
ATOM     15  C   UNL     1       8.315   7.897   5.071  0.00  0.00    +0.108 C 
ATOM     21  C   UNL     1       8.557   8.490   2.685  0.00  0.00    +0.247 C 
ENDROOT
BRANCH  21  24
ATOM     24  C   UNL     1       9.404   8.580   1.491  0.00  0.00    +0.037 A 
ATOM     25  C   UNL     1      10.112   9.753   1.225  0.00  0.00    +0.016 A 
ATOM     26  C   UNL     1       9.503   7.495   0.621  0.00  0.00    +0.016 A 
ATOM     27  C   UNL     1      10.916   9.840   0.089  0.00  0.00    +0.046 A 
ATOM     28  C   UNL     1      10.306   7.582  -0.515  0.00  0.00    +0.046 A 
ATOM     29  C   UNL     1      11.013   8.754  -0.781  0.00  0.00    +0.120 A 
BRANCH  29   5
ATOM      5  O   UNL     1      11.799   8.839  -1.890  0.00  0.00    -0.495 OA
ATOM     30  C   UNL     1      12.226   7.610  -2.478  0.00  0.00    +0.277 C 
ENDBRANCH  29   5
ENDBRANCH  21  24
BRANCH   9  11
ATOM     11  C   UNL     1      10.201   5.134   3.396  0.00  0.00    +0.021 C 
BRANCH  11  14
ATOM     14  C   UNL     1      11.330   4.155   3.104  0.00  0.00    +0.085 C 
BRANCH  14   6
ATOM      6  N   UNL     1      11.848   4.381   1.762  0.00  0.00    -0.291 NA
ATOM     16  C   UNL     1      12.991   3.523   1.432  0.00  0.00    +0.143 C 
ATOM     18  C   UNL     1      10.835   4.139   0.732  0.00  0.00    +0.085 C 
ATOM     19  C   UNL     1      12.908   3.287  -0.076  0.00  0.00    +0.029 C 
ATOM     20  C   UNL     1      11.680   4.065  -0.525  0.00  0.00    +0.017 C 
BRANCH  16  22
ATOM      3  O   UNL     1      14.286   5.504   1.735  0.00  0.00    -0.274 OA
ATOM      8  N   UNL     1      15.272   3.475   2.190  0.00  0.00    -0.328 N 
ATOM     22  C   UNL     1      14.227   4.278   1.800  0.00  0.00    +0.228 C 
ATOM     31  H   UNL     1      15.202   2.464   2.233  0.00  0.00    +0.145 HD
ATOM     32  H   UNL     1      16.164   3.878   2.460  0.00  0.00    +0.145 HD
ENDBRANCH  16  22
ENDBRANCH  14   6
ENDBRANCH  11  14
ENDBRANCH   9  11
BRANCH  10  17
ATOM     17  C   UNL     1       9.732   4.518   6.347  0.00  0.00    +0.124 C 
BRANCH  17  23
ATOM      4  O   UNL     1       9.480   3.843   8.675  0.00  0.00    -0.251 OA
ATOM     23  C   UNL     1      10.069   4.473   7.811  0.00  0.00    +0.305 C 
BRANCH  23   2
ATOM      2  O   UNL     1      11.155   5.253   8.054  0.00  0.00    -0.481 OA
ATOM     33  H   UNL     1      10.928   6.208   8.046  0.00  0.00    +0.295 HD
ENDBRANCH  23   2
ENDBRANCH  17  23
ENDBRANCH  10  17
TORSDOF 9
ENDMDL
MODEL 6
REMARK VINA RESULT:      -5.4      1.558      2.071
REMARK  Name = 28959666
REMARK  10 active torsions:
REMARK  status: ('A' for Active; 'I' for Inactive)
REMARK    1  A    between atoms: O_2  and  C_23
REMARK    2  A    between atoms: O_5  and  C_29
REMARK    3  A    between atoms: O_5  and  C_30
REMARK    4  A    between atoms: N_6  and  C_14
REMARK    5  A    between atoms: C_9  and  C_11
REMARK    6  A    between atoms: C_10  and  C_17
REMARK    7  A    between atoms: C_11  and  C_14
REMARK    8  A    between atoms: C_16  and  C_22
REMARK    9  A    between atoms: C_17  and  C_23
REMARK   10  A    between atoms: C_21  and  C_24
REMARK                            x       y       z     vdW  Elec       q    Type
REMARK                         _______ _______ _______ _____ _____    ______ ____
ROOT
ATOM      1  O   UNL     1      11.852  13.558  23.094  0.00  0.00    -0.270 OA
ATOM      7  N   UNL     1      12.519  11.319  22.986  0.00  0.00    -0.297 N 
ATOM      9  C   UNL     1      12.991   9.277  21.648  0.00  0.00    +0.011 C 
ATOM     10  C   UNL     1      11.640   8.694  22.134  0.00  0.00    +0.006 C 
ATOM     12  C   UNL     1      13.525  10.292  22.676  0.00  0.00    +0.112 C 
ATOM     13  C   UNL     1      10.638   9.805  22.491  0.00  0.00    +0.023 C 
ATOM     15  C   UNL     1      11.244  10.799  23.478  0.00  0.00    +0.108 C 
ATOM     21  C   UNL     1      12.693  12.696  22.841  0.00  0.00    +0.247 C 
ENDROOT
BRANCH  21  24
ATOM     24  C   UNL     1      13.986  13.180  22.344  0.00  0.00    +0.037 A 
ATOM     25  C   UNL     1      15.041  13.388  23.232  0.00  0.00    +0.016 A 
ATOM     26  C   UNL     1      14.160  13.434  20.983  0.00  0.00    +0.016 A 
ATOM     27  C   UNL     1      16.269  13.849  22.761  0.00  0.00    +0.046 A 
ATOM     28  C   UNL     1      15.388  13.896  20.512  0.00  0.00    +0.046 A 
ATOM     29  C   UNL     1      16.443  14.104  21.400  0.00  0.00    +0.120 A 
BRANCH  29   5
ATOM      5  O   UNL     1      17.642  14.555  20.939  0.00  0.00    -0.495 OA
ATOM     30  C   UNL     1      18.805  14.167  21.669  0.00  0.00    +0.277 C 
ENDBRANCH  29   5
ENDBRANCH  21  24
BRANCH   9  11
ATOM     11  C   UNL     1      12.927   9.915  20.255  0.00  0.00    +0.021 C 
BRANCH  11  14
ATOM     14  C   UNL     1      14.320  10.058  19.658  0.00  0.00    +0.085 C 
BRANCH  14   6
ATOM      6  N   UNL     1      14.268   9.838  18.219  0.00  0.00    -0.291 NA
ATOM     16  C   UNL     1      13.030   9.187  17.779  0.00  0.00    +0.143 C 
ATOM     18  C   UNL     1      14.372  11.089  17.465  0.00  0.00    +0.085 C 
ATOM     19  C   UNL     1      12.767   9.712  16.368  0.00  0.00    +0.029 C 
ATOM     20  C   UNL     1      13.924  10.658  16.082  0.00  0.00    +0.017 C 
BRANCH  16  22
ATOM      3  O   UNL     1      14.418   7.249  17.672  0.00  0.00    -0.274 OA
ATOM      8  N   UNL     1      12.145   6.953  17.876  0.00  0.00    -0.328 N 
ATOM     22  C   UNL     1      13.285   7.715  17.775  0.00  0.00    +0.228 C 
ATOM     31  H   UNL     1      11.219   7.359  17.957  0.00  0.00    +0.145 HD
ATOM     32  H   UNL     1      12.196   5.940  17.880  0.00  0.00    +0.145 HD
ENDBRANCH  16  22
ENDBRANCH  14   6
ENDBRANCH  11  14
ENDBRANCH   9  11
BRANCH  10  17
ATOM     17  C   UNL     1      11.020   7.707  21.144  0.00  0.00    +0.124 C 
BRANCH  17  23
ATOM      4  O   UNL     1      10.920   5.387  21.886  0.00  0.00    -0.251 OA
ATOM     23  C   UNL     1      11.527   6.309  21.363  0.00  0.00    +0.305 C 
BRANCH  23   2
ATOM      2  O   UNL     1      12.794   6.203  20.883  0.00  0.00    -0.481 OA
ATOM     33  H   UNL     1      13.419   5.888  21.571  0.00  0.00    +0.295 HD
ENDBRANCH  23   2
ENDBRANCH  17  23
ENDBRANCH  10  17
TORSDOF 9
ENDMDL
MODEL 7
REMARK VINA RESULT:      -5.2     14.849     18.567
REMARK  Name = 28959666
REMARK  10 active torsions:
REMARK  status: ('A' for Active; 'I' for Inactive)
REMARK    1  A    between atoms: O_2  and  C_23
REMARK    2  A    between atoms: O_5  and  C_29
REMARK    3  A    between atoms: O_5  and  C_30
REMARK    4  A    between atoms: N_6  and  C_14
REMARK    5  A    between atoms: C_9  and  C_11
REMARK    6  A    between atoms: C_10  and  C_17
REMARK    7  A    between atoms: C_11  and  C_14
REMARK    8  A    between atoms: C_16  and  C_22
REMARK    9  A    between atoms: C_17  and  C_23
REMARK   10  A    between atoms: C_21  and  C_24
REMARK                            x       y       z     vdW  Elec       q    Type
REMARK                         _______ _______ _______ _____ _____    ______ ____
ROOT
ATOM      1  O   UNL     1      10.397   7.773   7.725  0.00  0.00    -0.270 OA
ATOM      7  N   UNL     1      11.969   8.591   6.198  0.00  0.00    -0.297 N 
ATOM      9  C   UNL     1      13.265   8.324   4.094  0.00  0.00    +0.011 C 
ATOM     10  C   UNL     1      14.507   7.968   4.950  0.00  0.00    +0.006 C 
ATOM     12  C   UNL     1      12.303   9.210   4.908  0.00  0.00    +0.112 C 
ATOM     13  C   UNL     1      14.105   7.368   6.308  0.00  0.00    +0.023 C 
ATOM     15  C   UNL     1      13.119   8.273   7.042  0.00  0.00    +0.108 C 
ATOM     21  C   UNL     1      10.681   8.295   6.648  0.00  0.00    +0.247 C 
ENDROOT
BRANCH  21  24
ATOM     24  C   UNL     1       9.551   8.629   5.773  0.00  0.00    +0.037 A 
ATOM     25  C   UNL     1       8.918   9.866   5.893  0.00  0.00    +0.016 A 
ATOM     26  C   UNL     1       9.109   7.709   4.822  0.00  0.00    +0.016 A 
ATOM     27  C   UNL     1       7.843  10.183   5.064  0.00  0.00    +0.046 A 
ATOM     28  C   UNL     1       8.034   8.025   3.993  0.00  0.00    +0.046 A 
ATOM     29  C   UNL     1       7.401   9.262   4.113  0.00  0.00    +0.120 A 
BRANCH  29   5
ATOM      5  O   UNL     1       6.351   9.571   3.303  0.00  0.00    -0.495 OA
ATOM     30  C   UNL     1       5.420  10.539   3.787  0.00  0.00    +0.277 C 
ENDBRANCH  29   5
ENDBRANCH  21  24
BRANCH   9  11
ATOM     11  C   UNL     1      12.521   7.103   3.538  0.00  0.00    +0.021 C 
BRANCH  11  14
ATOM     14  C   UNL     1      12.497   7.128   2.016  0.00  0.00    +0.085 C 
BRANCH  14   6
ATOM      6  N   UNL     1      12.047   5.840   1.507  0.00  0.00    -0.291 NA
ATOM     16  C   UNL     1      12.667   4.700   2.190  0.00  0.00    +0.143 C 
ATOM     18  C   UNL     1      10.599   5.668   1.642  0.00  0.00    +0.085 C 
ATOM     19  C   UNL     1      11.626   3.581   2.153  0.00  0.00    +0.029 C 
ATOM     20  C   UNL     1      10.437   4.178   1.413  0.00  0.00    +0.017 C 
BRANCH  16  22
ATOM      3  O   UNL     1      13.902   4.322   0.183  0.00  0.00    -0.274 OA
ATOM      8  N   UNL     1      14.967   4.001   2.197  0.00  0.00    -0.328 N 
ATOM     22  C   UNL     1      13.889   4.334   1.412  0.00  0.00    +0.228 C 
ATOM     31  H   UNL     1      14.933   4.014   3.211  0.00  0.00    +0.145 HD
ATOM     32  H   UNL     1      15.851   3.731   1.778  0.00  0.00    +0.145 HD
ENDBRANCH  16  22
ENDBRANCH  14   6
ENDBRANCH  11  14
ENDBRANCH   9  11
BRANCH  10  17
ATOM     17  C   UNL     1      15.493   7.049   4.226  0.00  0.00    +0.124 C 
BRANCH  17  23
ATOM      4  O   UNL     1      16.617   8.868   3.057  0.00  0.00    -0.251 OA
ATOM     23  C   UNL     1      16.143   7.743   3.062  0.00  0.00    +0.305 C 
BRANCH  23   2
ATOM      2  O   UNL     1      16.137   6.922   1.979  0.00  0.00    -0.481 OA
ATOM     33  H   UNL     1      15.782   7.371   1.183  0.00  0.00    +0.295 HD
ENDBRANCH  23   2
ENDBRANCH  17  23
ENDBRANCH  10  17
TORSDOF 9
ENDMDL
MODEL 8
REMARK VINA RESULT:      -5.2     28.032     30.299
REMARK  Name = 28959666
REMARK  10 active torsions:
REMARK  status: ('A' for Active; 'I' for Inactive)
REMARK    1  A    between atoms: O_2  and  C_23
REMARK    2  A    between atoms: O_5  and  C_29
REMARK    3  A    between atoms: O_5  and  C_30
REMARK    4  A    between atoms: N_6  and  C_14
REMARK    5  A    between atoms: C_9  and  C_11
REMARK    6  A    between atoms: C_10  and  C_17
REMARK    7  A    between atoms: C_11  and  C_14
REMARK    8  A    between atoms: C_16  and  C_22
REMARK    9  A    between atoms: C_17  and  C_23
REMARK   10  A    between atoms: C_21  and  C_24
REMARK                            x       y       z     vdW  Elec       q    Type
REMARK                         _______ _______ _______ _____ _____    ______ ____
ROOT
ATOM      1  O   UNL     1      -7.805 -11.541  18.259  0.00  0.00    -0.270 OA
ATOM      7  N   UNL     1      -6.067 -10.530  17.065  0.00  0.00    -0.297 N 
ATOM      9  C   UNL     1      -4.807 -10.226  14.944  0.00  0.00    +0.011 C 
ATOM     10  C   UNL     1      -3.682 -11.116  15.531  0.00  0.00    +0.006 C 
ATOM     12  C   UNL     1      -5.586  -9.545  16.085  0.00  0.00    +0.112 C 
ATOM     13  C   UNL     1      -4.226 -12.096  16.585  0.00  0.00    +0.023 C 
ATOM     15  C   UNL     1      -5.024 -11.363  17.660  0.00  0.00    +0.108 C 
ATOM     21  C   UNL     1      -7.398 -10.716  17.443  0.00  0.00    +0.247 C 
ENDROOT
BRANCH  21  24
ATOM     24  C   UNL     1      -8.417  -9.861  16.824  0.00  0.00    +0.037 A 
ATOM     25  C   UNL     1      -8.998 -10.234  15.612  0.00  0.00    +0.016 A 
ATOM     26  C   UNL     1      -8.805  -8.674  17.447  0.00  0.00    +0.016 A 
ATOM     27  C   UNL     1      -9.965  -9.422  15.022  0.00  0.00    +0.046 A 
ATOM     28  C   UNL     1      -9.772  -7.861  16.857  0.00  0.00    +0.046 A 
ATOM     29  C   UNL     1     -10.352  -8.235  15.645  0.00  0.00    +0.120 A 
BRANCH  29   5
ATOM      5  O   UNL     1     -11.297  -7.441  15.069  0.00  0.00    -0.495 OA
ATOM     30  C   UNL     1     -11.592  -6.206  15.721  0.00  0.00    +0.277 C 
ENDBRANCH  29   5
ENDBRANCH  21  24
BRANCH   9  11
ATOM     11  C   UNL     1      -5.770 -10.974  14.014  0.00  0.00    +0.021 C 
BRANCH  11  14
ATOM     14  C   UNL     1      -6.028 -10.176  12.744  0.00  0.00    +0.085 C 
BRANCH  14   6
ATOM      6  N   UNL     1      -4.957 -10.410  11.785  0.00  0.00    -0.291 NA
ATOM     16  C   UNL     1      -5.345 -11.314  10.696  0.00  0.00    +0.143 C 
ATOM     18  C   UNL     1      -4.499  -9.171  11.153  0.00  0.00    +0.085 C 
ATOM     19  C   UNL     1      -4.535 -10.866   9.480  0.00  0.00    +0.029 C 
ATOM     20  C   UNL     1      -3.698  -9.696   9.978  0.00  0.00    +0.017 C 
BRANCH  16  22
ATOM      3  O   UNL     1      -3.803 -13.062  11.205  0.00  0.00    -0.274 OA
ATOM      8  N   UNL     1      -6.054 -13.507  11.380  0.00  0.00    -0.328 N 
ATOM     22  C   UNL     1      -4.974 -12.697  11.120  0.00  0.00    +0.228 C 
ATOM     31  H   UNL     1      -7.013 -13.186  11.300  0.00  0.00    +0.145 HD
ATOM     32  H   UNL     1      -5.922 -14.470  11.673  0.00  0.00    +0.145 HD
ENDBRANCH  16  22
ENDBRANCH  14   6
ENDBRANCH  11  14
ENDBRANCH   9  11
BRANCH  10  17
ATOM     17  C   UNL     1      -2.887 -11.865  14.460  0.00  0.00    +0.124 C 
BRANCH  17  23
ATOM      4  O   UNL     1      -1.459  -9.925  14.085  0.00  0.00    -0.251 OA
ATOM     23  C   UNL     1      -2.008 -10.935  13.671  0.00  0.00    +0.305 C 
BRANCH  23   2
ATOM      2  O   UNL     1      -1.899 -11.383  12.393  0.00  0.00    -0.481 OA
ATOM     33  H   UNL     1      -1.881 -10.644  11.748  0.00  0.00    +0.295 HD
ENDBRANCH  23   2
ENDBRANCH  17  23
ENDBRANCH  10  17
TORSDOF 9
ENDMDL
MODEL 9
REMARK VINA RESULT:      -5.2     14.954     18.846
REMARK  Name = 28959666
REMARK  10 active torsions:
REMARK  status: ('A' for Active; 'I' for Inactive)
REMARK    1  A    between atoms: O_2  and  C_23
REMARK    2  A    between atoms: O_5  and  C_29
REMARK    3  A    between atoms: O_5  and  C_30
REMARK    4  A    between atoms: N_6  and  C_14
REMARK    5  A    between atoms: C_9  and  C_11
REMARK    6  A    between atoms: C_10  and  C_17
REMARK    7  A    between atoms: C_11  and  C_14
REMARK    8  A    between atoms: C_16  and  C_22
REMARK    9  A    between atoms: C_17  and  C_23
REMARK   10  A    between atoms: C_21  and  C_24
REMARK                            x       y       z     vdW  Elec       q    Type
REMARK                         _______ _______ _______ _____ _____    ______ ____
ROOT
ATOM      1  O   UNL     1       9.865  10.125   6.128  0.00  0.00    -0.270 OA
ATOM      7  N   UNL     1       9.183   8.685   4.416  0.00  0.00    -0.297 N 
ATOM      9  C   UNL     1       9.737   6.998   2.676  0.00  0.00    +0.011 C 
ATOM     10  C   UNL     1       9.568   8.105   1.605  0.00  0.00    +0.006 C 
ATOM     12  C   UNL     1       8.888   7.334   3.917  0.00  0.00    +0.112 C 
ATOM     13  C   UNL     1       9.841   9.503   2.187  0.00  0.00    +0.023 C 
ATOM     15  C   UNL     1       9.002   9.754   3.436  0.00  0.00    +0.108 C 
ATOM     21  C   UNL     1       9.612   8.997   5.707  0.00  0.00    +0.247 C 
ENDROOT
BRANCH  21  24
ATOM     24  C   UNL     1       9.784   7.897   6.663  0.00  0.00    +0.037 A 
ATOM     25  C   UNL     1       8.730   7.531   7.500  0.00  0.00    +0.016 A 
ATOM     26  C   UNL     1      11.000   7.219   6.736  0.00  0.00    +0.016 A 
ATOM     27  C   UNL     1       8.892   6.487   8.410  0.00  0.00    +0.046 A 
ATOM     28  C   UNL     1      11.163   6.175   7.646  0.00  0.00    +0.046 A 
ATOM     29  C   UNL     1      10.109   5.809   8.483  0.00  0.00    +0.120 A 
BRANCH  29   5
ATOM      5  O   UNL     1      10.269   4.789   9.372  0.00  0.00    -0.495 OA
ATOM     30  C   UNL     1       9.186   4.533  10.266  0.00  0.00    +0.277 C 
ENDBRANCH  29   5
ENDBRANCH  21  24
BRANCH   9  11
ATOM     11  C   UNL     1      11.193   6.742   3.082  0.00  0.00    +0.021 C 
BRANCH  11  14
ATOM     14  C   UNL     1      11.599   5.307   2.776  0.00  0.00    +0.085 C 
BRANCH  14   6
ATOM      6  N   UNL     1      12.950   5.278   2.233  0.00  0.00    -0.291 NA
ATOM     16  C   UNL     1      12.982   5.147   0.772  0.00  0.00    +0.143 C 
ATOM     18  C   UNL     1      13.702   6.492   2.558  0.00  0.00    +0.085 C 
ATOM     19  C   UNL     1      14.243   5.883   0.320  0.00  0.00    +0.029 C 
ATOM     20  C   UNL     1      14.876   6.397   1.604  0.00  0.00    +0.017 C 
BRANCH  16  22
ATOM      3  O   UNL     1      13.678   2.901   1.182  0.00  0.00    -0.274 OA
ATOM      8  N   UNL     1      12.405   3.326  -0.688  0.00  0.00    -0.328 N 
ATOM     22  C   UNL     1      13.061   3.687   0.465  0.00  0.00    +0.228 C 
ATOM     31  H   UNL     1      11.906   3.992  -1.267  0.00  0.00    +0.145 HD
ATOM     32  H   UNL     1      12.395   2.360  -0.999  0.00  0.00    +0.145 HD
ENDBRANCH  16  22
ENDBRANCH  14   6
ENDBRANCH  11  14
ENDBRANCH   9  11
BRANCH  10  17
ATOM     17  C   UNL     1      10.417   7.867   0.355  0.00  0.00    +0.124 C 
BRANCH  17  23
ATOM      4  O   UNL     1      10.020   5.656  -0.592  0.00  0.00    -0.251 OA
ATOM     23  C   UNL     1       9.785   6.854  -0.559  0.00  0.00    +0.305 C 
BRANCH  23   2
ATOM      2  O   UNL     1       8.886   7.469  -1.371  0.00  0.00    -0.481 OA
ATOM     33  H   UNL     1       9.220   7.550  -2.290  0.00  0.00    +0.295 HD
ENDBRANCH  23   2
ENDBRANCH  17  23
ENDBRANCH  10  17
TORSDOF 9
ENDMDL
MODEL 10
REMARK VINA RESULT:      -5.2     15.110     18.887
REMARK  Name = 28959666
REMARK  10 active torsions:
REMARK  status: ('A' for Active; 'I' for Inactive)
REMARK    1  A    between atoms: O_2  and  C_23
REMARK    2  A    between atoms: O_5  and  C_29
REMARK    3  A    between atoms: O_5  and  C_30
REMARK    4  A    between atoms: N_6  and  C_14
REMARK    5  A    between atoms: C_9  and  C_11
REMARK    6  A    between atoms: C_10  and  C_17
REMARK    7  A    between atoms: C_11  and  C_14
REMARK    8  A    between atoms: C_16  and  C_22
REMARK    9  A    between atoms: C_17  and  C_23
REMARK   10  A    between atoms: C_21  and  C_24
REMARK                            x       y       z     vdW  Elec       q    Type
REMARK                         _______ _______ _______ _____ _____    ______ ____
ROOT
ATOM      1  O   UNL     1      10.242  10.278   6.373  0.00  0.00    -0.270 OA
ATOM      7  N   UNL     1       9.079   9.150   4.686  0.00  0.00    -0.297 N 
ATOM      9  C   UNL     1       9.072   7.582   2.757  0.00  0.00    +0.011 C 
ATOM     10  C   UNL     1       8.948   8.806   1.814  0.00  0.00    +0.006 C 
ATOM     12  C   UNL     1       8.482   7.923   4.139  0.00  0.00    +0.112 C 
ATOM     13  C   UNL     1       9.543  10.074   2.450  0.00  0.00    +0.023 C 
ATOM     15  C   UNL     1       8.949  10.329   3.832  0.00  0.00    +0.108 C 
ATOM     21  C   UNL     1       9.737   9.255   5.913  0.00  0.00    +0.247 C 
ENDROOT
BRANCH  21  24
ATOM     24  C   UNL     1       9.848   8.050   6.743  0.00  0.00    +0.037 A 
ATOM     25  C   UNL     1       8.838   7.734   7.651  0.00  0.00    +0.016 A 
ATOM     26  C   UNL     1      10.964   7.221   6.624  0.00  0.00    +0.016 A 
ATOM     27  C   UNL     1       8.944   6.590   8.442  0.00  0.00    +0.046 A 
ATOM     28  C   UNL     1      11.070   6.078   7.415  0.00  0.00    +0.046 A 
ATOM     29  C   UNL     1      10.060   5.762   8.323  0.00  0.00    +0.120 A 
BRANCH  29   5
ATOM      5  O   UNL     1      10.164   4.645   9.095  0.00  0.00    -0.495 OA
ATOM     30  C   UNL     1       9.203   4.485  10.138  0.00  0.00    +0.277 C 
ENDBRANCH  29   5
ENDBRANCH  21  24
BRANCH   9  11
ATOM     11  C   UNL     1      10.504   7.054   2.906  0.00  0.00    +0.021 C 
BRANCH  11  14
ATOM     14  C   UNL     1      10.566   5.562   2.608  0.00  0.00    +0.085 C 
BRANCH  14   6
ATOM      6  N   UNL     1      11.195   5.341   1.313  0.00  0.00    -0.291 NA
ATOM     16  C   UNL     1      12.179   4.253   1.328  0.00  0.00    +0.143 C 
ATOM     18  C   UNL     1      10.219   5.006   0.274  0.00  0.00    +0.085 C 
ATOM     19  C   UNL     1      12.144   3.647  -0.076  0.00  0.00    +0.029 C 
ATOM     20  C   UNL     1      11.109   4.469  -0.830  0.00  0.00    +0.017 C 
BRANCH  16  22
ATOM      3  O   UNL     1      13.733   6.060   1.435  0.00  0.00    -0.274 OA
ATOM      8  N   UNL     1      14.437   3.972   2.102  0.00  0.00    -0.328 N 
ATOM     22  C   UNL     1      13.508   4.866   1.625  0.00  0.00    +0.228 C 
ATOM     31  H   UNL     1      14.231   2.990   2.247  0.00  0.00    +0.145 HD
ATOM     32  H   UNL     1      15.377   4.276   2.335  0.00  0.00    +0.145 HD
ENDBRANCH  16  22
ENDBRANCH  14   6
ENDBRANCH  11  14
ENDBRANCH   9  11
BRANCH  10  17
ATOM     17  C   UNL     1       9.553   8.562   0.431  0.00  0.00    +0.124 C 
BRANCH  17  23
ATOM      4  O   UNL     1       8.578   8.039  -1.742  0.00  0.00    -0.251 OA
ATOM     23  C   UNL     1       8.501   8.568  -0.644  0.00  0.00    +0.305 C 
BRANCH  23   2
ATOM      2  O   UNL     1       7.415   9.263  -0.215  0.00  0.00    -0.481 OA
ATOM     33  H   UNL     1       7.669  10.038   0.330  0.00  0.00    +0.295 HD
ENDBRANCH  23   2
ENDBRANCH  17  23
ENDBRANCH  10  17
TORSDOF 9
ENDMDL
