MODEL 1
REMARK VINA RESULT:      -7.8      0.000      0.000
REMARK  Name = 45360665
REMARK  11 active torsions:
REMARK  status: ('A' for Active; 'I' for Inactive)
REMARK    1  A    between atoms: O_3  and  C_35
REMARK    2  A    between atoms: O_3  and  C_36
REMARK    3  A    between atoms: N_5  and  C_10
REMARK    4  A    between atoms: N_5  and  C_18
REMARK    5  A    between atoms: N_7  and  C_27
REMARK    6  A    between atoms: N_8  and  C_26
REMARK    7  A    between atoms: C_12  and  C_16
REMARK    8  A    between atoms: C_16  and  C_17
REMARK    9  A    between atoms: C_17  and  C_20
REMARK   10  A    between atoms: C_18  and  C_19
REMARK   11  A    between atoms: C_26  and  C_30
REMARK                            x       y       z     vdW  Elec       q    Type
REMARK                         _______ _______ _______ _____ _____    ______ ____
ROOT
ATOM      1  O   UNL     1      11.421   7.835  17.798  0.00  0.00    -0.274 OA
ATOM      4  N   UNL     1      13.501   6.874  20.639  0.00  0.00    -0.286 NA
ATOM      6  N   UNL     1      13.683   7.886  18.028  0.00  0.00    -0.313 N 
ATOM      9  C   UNL     1      12.284   6.866  19.818  0.00  0.00    +0.145 C 
ATOM     10  C   UNL     1      11.967   7.942  21.971  0.00  0.00    +0.070 C 
ATOM     11  C   UNL     1      11.222   7.549  20.695  0.00  0.00    +0.048 C 
ATOM     12  C   UNL     1      14.735   6.679  19.886  0.00  0.00    +0.075 C 
ATOM     13  C   UNL     1      13.418   8.036  21.521  0.00  0.00    +0.104 C 
ATOM     14  C   UNL     1      14.888   7.744  18.812  0.00  0.00    +0.123 C 
ATOM     15  C   UNL     1      12.420   7.587  18.480  0.00  0.00    +0.230 C 
ATOM     38  H   UNL     1      13.761   8.347  17.127  0.00  0.00    +0.149 HD
ENDROOT
BRANCH  10   5
ATOM      5  N   UNL     1      11.465   9.168  22.570  0.00  0.00    -0.308 NA
ATOM     37  H   UNL     1      10.658   9.492  22.038  0.00  0.00    +0.123 HD
BRANCH   5  18
ATOM     18  C   UNL     1      12.485  10.209  22.566  0.00  0.00    +0.118 C 
BRANCH  18  19
ATOM      7  N   UNL     1      10.707  13.422  22.400  0.00  0.00    -0.349 N 
ATOM     19  C   UNL     1      11.907  11.560  22.257  0.00  0.00    -0.008 A 
ATOM     21  C   UNL     1      12.220  12.377  21.135  0.00  0.00    +0.004 A 
ATOM     22  C   UNL     1      10.975  12.228  23.016  0.00  0.00    +0.091 A 
ATOM     23  C   UNL     1      11.454  13.540  21.249  0.00  0.00    +0.049 A 
ATOM     24  C   UNL     1      13.084  12.241  20.031  0.00  0.00    +0.010 A 
ATOM     25  C   UNL     1      11.509  14.575  20.309  0.00  0.00    +0.026 A 
ATOM     27  C   UNL     1       9.770  14.405  22.899  0.00  0.00    +0.149 C 
ATOM     28  C   UNL     1      13.149  13.268  19.083  0.00  0.00    +0.001 A 
ATOM     29  C   UNL     1      12.373  14.417  19.223  0.00  0.00    +0.002 A 
ENDBRANCH  18  19
ENDBRANCH   5  18
ENDBRANCH  10   5
BRANCH  12  16
ATOM     16  C   UNL     1      15.973   6.620  20.781  0.00  0.00    +0.029 C 
BRANCH  16  17
ATOM     17  C   UNL     1      17.241   6.441  19.957  0.00  0.00    +0.097 C 
BRANCH  17  20
ATOM      2  O   UNL     1      18.448   7.709  21.630  0.00  0.00    -0.276 OA
ATOM      8  N   UNL     1      19.628   6.298  20.213  0.00  0.00    -0.311 N 
ATOM     20  C   UNL     1      18.479   6.900  20.705  0.00  0.00    +0.213 C 
ATOM     39  H   UNL     1      19.568   5.659  19.426  0.00  0.00    +0.149 HD
BRANCH   8  26
ATOM     26  C   UNL     1      20.936   6.572  20.758  0.00  0.00    +0.139 C 
BRANCH  26  30
ATOM     30  C   UNL     1      21.492   5.395  21.506  0.00  0.00    -0.030 A 
ATOM     31  C   UNL     1      22.007   5.565  22.791  0.00  0.00    +0.009 A 
ATOM     32  C   UNL     1      21.489   4.130  20.917  0.00  0.00    +0.009 A 
ATOM     33  C   UNL     1      22.523   4.471  23.486  0.00  0.00    +0.046 A 
ATOM     34  C   UNL     1      22.005   3.037  21.613  0.00  0.00    +0.046 A 
ATOM     35  C   UNL     1      22.522   3.207  22.897  0.00  0.00    +0.120 A 
BRANCH  35   3
ATOM      3  O   UNL     1      23.024   2.140  23.576  0.00  0.00    -0.495 OA
ATOM     36  C   UNL     1      22.645   2.005  24.945  0.00  0.00    +0.277 C 
ENDBRANCH  35   3
ENDBRANCH  26  30
ENDBRANCH   8  26
ENDBRANCH  17  20
ENDBRANCH  16  17
ENDBRANCH  12  16
TORSDOF 9
ENDMDL
MODEL 2
REMARK VINA RESULT:      -7.6     26.960     30.173
REMARK  Name = 45360665
REMARK  11 active torsions:
REMARK  status: ('A' for Active; 'I' for Inactive)
REMARK    1  A    between atoms: O_3  and  C_35
REMARK    2  A    between atoms: O_3  and  C_36
REMARK    3  A    between atoms: N_5  and  C_10
REMARK    4  A    between atoms: N_5  and  C_18
REMARK    5  A    between atoms: N_7  and  C_27
REMARK    6  A    between atoms: N_8  and  C_26
REMARK    7  A    between atoms: C_12  and  C_16
REMARK    8  A    between atoms: C_16  and  C_17
REMARK    9  A    between atoms: C_17  and  C_20
REMARK   10  A    between atoms: C_18  and  C_19
REMARK   11  A    between atoms: C_26  and  C_30
REMARK                            x       y       z     vdW  Elec       q    Type
REMARK                         _______ _______ _______ _____ _____    ______ ____
ROOT
ATOM      1  O   UNL     1      -7.453 -12.549  19.672  0.00  0.00    -0.274 OA
ATOM      4  N   UNL     1      -5.274 -10.868  17.275  0.00  0.00    -0.286 NA
ATOM      6  N   UNL     1      -6.098 -13.429  18.072  0.00  0.00    -0.313 N 
ATOM      9  C   UNL     1      -6.055 -10.979  18.513  0.00  0.00    +0.145 C 
ATOM     10  C   UNL     1      -6.985  -9.375  16.946  0.00  0.00    +0.070 C 
ATOM     11  C   UNL     1      -7.197  -9.965  18.340  0.00  0.00    +0.048 C 
ATOM     12  C   UNL     1      -4.404 -12.008  17.010  0.00  0.00    +0.075 C 
ATOM     13  C   UNL     1      -6.195 -10.454  16.220  0.00  0.00    +0.104 C 
ATOM     14  C   UNL     1      -5.207 -13.298  16.943  0.00  0.00    +0.123 C 
ATOM     15  C   UNL     1      -6.611 -12.374  18.787  0.00  0.00    +0.230 C 
ATOM     38  H   UNL     1      -6.460 -14.355  18.279  0.00  0.00    +0.149 HD
ENDROOT
BRANCH  10   5
ATOM      5  N   UNL     1      -8.229  -9.020  16.282  0.00  0.00    -0.308 NA
ATOM     37  H   UNL     1      -8.079  -8.180  15.723  0.00  0.00    +0.123 HD
BRANCH   5  18
ATOM     18  C   UNL     1      -9.286  -8.760  17.252  0.00  0.00    +0.118 C 
BRANCH  18  19
ATOM      7  N   UNL     1     -11.656  -6.636  15.413  0.00  0.00    -0.349 N 
ATOM     19  C   UNL     1     -10.454  -8.049  16.633  0.00  0.00    -0.008 A 
ATOM     21  C   UNL     1     -11.831  -8.328  16.859  0.00  0.00    +0.004 A 
ATOM     22  C   UNL     1     -10.378  -7.005  15.740  0.00  0.00    +0.091 A 
ATOM     23  C   UNL     1     -12.564  -7.427  16.082  0.00  0.00    +0.049 A 
ATOM     24  C   UNL     1     -12.527  -9.262  17.651  0.00  0.00    +0.010 A 
ATOM     25  C   UNL     1     -13.963  -7.415  16.058  0.00  0.00    +0.026 A 
ATOM     27  C   UNL     1     -11.987  -5.566  14.498  0.00  0.00    +0.149 C 
ATOM     28  C   UNL     1     -13.926  -9.260  17.638  0.00  0.00    +0.001 A 
ATOM     29  C   UNL     1     -14.631  -8.350  16.853  0.00  0.00    +0.002 A 
ENDBRANCH  18  19
ENDBRANCH   5  18
ENDBRANCH  10   5
BRANCH  12  16
ATOM     16  C   UNL     1      -3.553 -11.826  15.752  0.00  0.00    +0.029 C 
BRANCH  16  17
ATOM     17  C   UNL     1      -2.503 -10.741  15.950  0.00  0.00    +0.097 C 
BRANCH  17  20
ATOM      2  O   UNL     1      -1.005  -9.442  14.560  0.00  0.00    -0.276 OA
ATOM      8  N   UNL     1      -2.303 -11.100  13.581  0.00  0.00    -0.311 N 
ATOM     20  C   UNL     1      -1.843 -10.339  14.644  0.00  0.00    +0.213 C 
ATOM     39  H   UNL     1      -3.019 -11.805  13.734  0.00  0.00    +0.149 HD
BRANCH   8  26
ATOM     26  C   UNL     1      -1.828 -10.908  12.232  0.00  0.00    +0.139 C 
BRANCH  26  30
ATOM     30  C   UNL     1      -2.931 -10.496  11.300  0.00  0.00    -0.030 A 
ATOM     31  C   UNL     1      -4.126 -11.214  11.273  0.00  0.00    +0.009 A 
ATOM     32  C   UNL     1      -2.761  -9.393  10.463  0.00  0.00    +0.009 A 
ATOM     33  C   UNL     1      -5.151 -10.831  10.407  0.00  0.00    +0.046 A 
ATOM     34  C   UNL     1      -3.785  -9.010   9.598  0.00  0.00    +0.046 A 
ATOM     35  C   UNL     1      -4.980  -9.729   9.570  0.00  0.00    +0.120 A 
BRANCH  35   3
ATOM      3  O   UNL     1      -5.981  -9.354   8.726  0.00  0.00    -0.495 OA
ATOM     36  C   UNL     1      -7.179  -8.859   9.321  0.00  0.00    +0.277 C 
ENDBRANCH  35   3
ENDBRANCH  26  30
ENDBRANCH   8  26
ENDBRANCH  17  20
ENDBRANCH  16  17
ENDBRANCH  12  16
TORSDOF 9
ENDMDL
MODEL 3
REMARK VINA RESULT:      -7.6      1.582      2.558
REMARK  Name = 45360665
REMARK  11 active torsions:
REMARK  status: ('A' for Active; 'I' for Inactive)
REMARK    1  A    between atoms: O_3  and  C_35
REMARK    2  A    between atoms: O_3  and  C_36
REMARK    3  A    between atoms: N_5  and  C_10
REMARK    4  A    between atoms: N_5  and  C_18
REMARK    5  A    between atoms: N_7  and  C_27
REMARK    6  A    between atoms: N_8  and  C_26
REMARK    7  A    between atoms: C_12  and  C_16
REMARK    8  A    between atoms: C_16  and  C_17
REMARK    9  A    between atoms: C_17  and  C_20
REMARK   10  A    between atoms: C_18  and  C_19
REMARK   11  A    between atoms: C_26  and  C_30
REMARK                            x       y       z     vdW  Elec       q    Type
REMARK                         _______ _______ _______ _____ _____    ______ ____
ROOT
ATOM      1  O   UNL     1      11.509   7.693  17.564  0.00  0.00    -0.274 OA
ATOM      4  N   UNL     1      13.500   7.022  20.548  0.00  0.00    -0.286 NA
ATOM      6  N   UNL     1      13.767   7.618  17.819  0.00  0.00    -0.313 N 
ATOM      9  C   UNL     1      12.290   6.977  19.718  0.00  0.00    +0.145 C 
ATOM     10  C   UNL     1      12.041   8.382  21.683  0.00  0.00    +0.070 C 
ATOM     11  C   UNL     1      11.276   7.856  20.468  0.00  0.00    +0.048 C 
ATOM     12  C   UNL     1      14.721   6.629  19.852  0.00  0.00    +0.075 C 
ATOM     13  C   UNL     1      13.497   8.305  21.246  0.00  0.00    +0.104 C 
ATOM     14  C   UNL     1      14.955   7.508  18.633  0.00  0.00    +0.123 C 
ATOM     15  C   UNL     1      12.484   7.479  18.290  0.00  0.00    +0.230 C 
ATOM     38  H   UNL     1      13.883   7.931  16.860  0.00  0.00    +0.149 HD
ENDROOT
BRANCH  10   5
ATOM      5  N   UNL     1      11.626   9.716  22.085  0.00  0.00    -0.308 NA
ATOM     37  H   UNL     1      10.883  10.035  21.464  0.00  0.00    +0.123 HD
BRANCH   5  18
ATOM     18  C   UNL     1      12.739  10.655  22.013  0.00  0.00    +0.118 C 
BRANCH  18  19
ATOM      7  N   UNL     1      13.606  12.380  25.141  0.00  0.00    -0.349 N 
ATOM     19  C   UNL     1      12.845  11.496  23.253  0.00  0.00    -0.008 A 
ATOM     21  C   UNL     1      11.899  12.458  23.706  0.00  0.00    +0.004 A 
ATOM     22  C   UNL     1      13.883  11.471  24.155  0.00  0.00    +0.091 A 
ATOM     23  C   UNL     1      12.401  12.998  24.892  0.00  0.00    +0.049 A 
ATOM     24  C   UNL     1      10.661  12.924  23.219  0.00  0.00    +0.010 A 
ATOM     25  C   UNL     1      11.723  13.983  25.619  0.00  0.00    +0.026 A 
ATOM     27  C   UNL     1      14.466  12.639  26.276  0.00  0.00    +0.149 C 
ATOM     28  C   UNL     1       9.973  13.908  23.937  0.00  0.00    +0.001 A 
ATOM     29  C   UNL     1      10.498  14.429  25.118  0.00  0.00    +0.002 A 
ENDBRANCH  18  19
ENDBRANCH   5  18
ENDBRANCH  10   5
BRANCH  12  16
ATOM     16  C   UNL     1      15.947   6.617  20.764  0.00  0.00    +0.029 C 
BRANCH  16  17
ATOM     17  C   UNL     1      17.216   6.320  19.978  0.00  0.00    +0.097 C 
BRANCH  17  20
ATOM      2  O   UNL     1      18.434   7.589  21.642  0.00  0.00    -0.276 OA
ATOM      8  N   UNL     1      19.613   6.246  20.160  0.00  0.00    -0.311 N 
ATOM     20  C   UNL     1      18.462   6.801  20.699  0.00  0.00    +0.213 C 
ATOM     39  H   UNL     1      19.549   5.623  19.360  0.00  0.00    +0.149 HD
BRANCH   8  26
ATOM     26  C   UNL     1      20.928   6.549  20.672  0.00  0.00    +0.139 C 
BRANCH  26  30
ATOM     30  C   UNL     1      21.488   5.421  21.489  0.00  0.00    -0.030 A 
ATOM     31  C   UNL     1      21.511   4.127  20.968  0.00  0.00    +0.009 A 
ATOM     32  C   UNL     1      21.988   5.668  22.768  0.00  0.00    +0.009 A 
ATOM     33  C   UNL     1      22.032   3.080  21.728  0.00  0.00    +0.046 A 
ATOM     34  C   UNL     1      22.508   4.620  23.526  0.00  0.00    +0.046 A 
ATOM     35  C   UNL     1      22.530   3.325  23.007  0.00  0.00    +0.120 A 
BRANCH  35   3
ATOM      3  O   UNL     1      23.040   2.303  23.747  0.00  0.00    -0.495 OA
ATOM     36  C   UNL     1      24.078   1.526  23.152  0.00  0.00    +0.277 C 
ENDBRANCH  35   3
ENDBRANCH  26  30
ENDBRANCH   8  26
ENDBRANCH  17  20
ENDBRANCH  16  17
ENDBRANCH  12  16
TORSDOF 9
ENDMDL
MODEL 4
REMARK VINA RESULT:      -7.5     27.244     29.960
REMARK  Name = 45360665
REMARK  11 active torsions:
REMARK  status: ('A' for Active; 'I' for Inactive)
REMARK    1  A    between atoms: O_3  and  C_35
REMARK    2  A    between atoms: O_3  and  C_36
REMARK    3  A    between atoms: N_5  and  C_10
REMARK    4  A    between atoms: N_5  and  C_18
REMARK    5  A    between atoms: N_7  and  C_27
REMARK    6  A    between atoms: N_8  and  C_26
REMARK    7  A    between atoms: C_12  and  C_16
REMARK    8  A    between atoms: C_16  and  C_17
REMARK    9  A    between atoms: C_17  and  C_20
REMARK   10  A    between atoms: C_18  and  C_19
REMARK   11  A    between atoms: C_26  and  C_30
REMARK                            x       y       z     vdW  Elec       q    Type
REMARK                         _______ _______ _______ _____ _____    ______ ____
ROOT
ATOM      1  O   UNL     1      -6.901 -14.386  17.099  0.00  0.00    -0.274 OA
ATOM      4  N   UNL     1      -4.521 -11.663  17.591  0.00  0.00    -0.286 NA
ATOM      6  N   UNL     1      -5.610 -13.291  15.581  0.00  0.00    -0.313 N 
ATOM      9  C   UNL     1      -5.332 -12.813  18.009  0.00  0.00    +0.145 C 
ATOM     10  C   UNL     1      -6.069 -10.722  18.999  0.00  0.00    +0.070 C 
ATOM     11  C   UNL     1      -6.365 -12.222  18.982  0.00  0.00    +0.048 C 
ATOM     12  C   UNL     1      -3.763 -11.877  16.362  0.00  0.00    +0.075 C 
ATOM     13  C   UNL     1      -5.376 -10.482  17.665  0.00  0.00    +0.104 C 
ATOM     14  C   UNL     1      -4.689 -12.241  15.212  0.00  0.00    +0.123 C 
ATOM     15  C   UNL     1      -6.029 -13.544  16.865  0.00  0.00    +0.230 C 
ATOM     38  H   UNL     1      -6.066 -13.800  14.830  0.00  0.00    +0.149 HD
ENDROOT
BRANCH  10   5
ATOM      5  N   UNL     1      -7.258  -9.908  19.191  0.00  0.00    -0.308 NA
ATOM     37  H   UNL     1      -7.436  -9.808  20.190  0.00  0.00    +0.123 HD
BRANCH   5  18
ATOM     18  C   UNL     1      -8.421 -10.523  18.562  0.00  0.00    +0.118 C 
BRANCH  18  19
ATOM      7  N   UNL     1      -9.738  -8.106  16.126  0.00  0.00    -0.349 N 
ATOM     19  C   UNL     1      -8.898  -9.738  17.374  0.00  0.00    -0.008 A 
ATOM     21  C   UNL     1      -8.885 -10.165  16.017  0.00  0.00    +0.004 A 
ATOM     22  C   UNL     1      -9.426  -8.468  17.409  0.00  0.00    +0.091 A 
ATOM     23  C   UNL     1      -9.418  -9.123  15.254  0.00  0.00    +0.049 A 
ATOM     24  C   UNL     1      -8.471 -11.342  15.361  0.00  0.00    +0.010 A 
ATOM     25  C   UNL     1      -9.557  -9.199  13.864  0.00  0.00    +0.026 A 
ATOM     27  C   UNL     1     -10.321  -6.834  15.757  0.00  0.00    +0.149 C 
ATOM     28  C   UNL     1      -8.605 -11.432  13.971  0.00  0.00    +0.001 A 
ATOM     29  C   UNL     1      -9.140 -10.376  13.236  0.00  0.00    +0.002 A 
ENDBRANCH  18  19
ENDBRANCH   5  18
ENDBRANCH  10   5
BRANCH  12  16
ATOM     16  C   UNL     1      -2.875 -10.688  15.997  0.00  0.00    +0.029 C 
BRANCH  16  17
ATOM     17  C   UNL     1      -1.540 -11.150  15.429  0.00  0.00    +0.097 C 
BRANCH  17  20
ATOM      2  O   UNL     1      -1.443 -12.618  13.506  0.00  0.00    -0.276 OA
ATOM      8  N   UNL     1      -1.954 -10.375  13.190  0.00  0.00    -0.311 N 
ATOM     20  C   UNL     1      -1.634 -11.489  13.952  0.00  0.00    +0.213 C 
ATOM     39  H   UNL     1      -2.069  -9.470  13.637  0.00  0.00    +0.149 HD
BRANCH   8  26
ATOM     26  C   UNL     1      -2.099 -10.439  11.756  0.00  0.00    +0.139 C 
BRANCH  26  30
ATOM     30  C   UNL     1      -3.446  -9.953  11.304  0.00  0.00    -0.030 A 
ATOM     31  C   UNL     1      -4.555 -10.097  12.138  0.00  0.00    +0.009 A 
ATOM     32  C   UNL     1      -3.588  -9.355  10.052  0.00  0.00    +0.009 A 
ATOM     33  C   UNL     1      -5.806  -9.645  11.718  0.00  0.00    +0.046 A 
ATOM     34  C   UNL     1      -4.839  -8.903   9.633  0.00  0.00    +0.046 A 
ATOM     35  C   UNL     1      -5.949  -9.048  10.466  0.00  0.00    +0.120 A 
BRANCH  35   3
ATOM      3  O   UNL     1      -7.169  -8.606  10.057  0.00  0.00    -0.495 OA
ATOM     36  C   UNL     1      -7.230  -7.941   8.796  0.00  0.00    +0.277 C 
ENDBRANCH  35   3
ENDBRANCH  26  30
ENDBRANCH   8  26
ENDBRANCH  17  20
ENDBRANCH  16  17
ENDBRANCH  12  16
TORSDOF 9
ENDMDL
MODEL 5
REMARK VINA RESULT:      -7.5     27.081     30.318
REMARK  Name = 45360665
REMARK  11 active torsions:
REMARK  status: ('A' for Active; 'I' for Inactive)
REMARK    1  A    between atoms: O_3  and  C_35
REMARK    2  A    between atoms: O_3  and  C_36
REMARK    3  A    between atoms: N_5  and  C_10
REMARK    4  A    between atoms: N_5  and  C_18
REMARK    5  A    between atoms: N_7  and  C_27
REMARK    6  A    between atoms: N_8  and  C_26
REMARK    7  A    between atoms: C_12  and  C_16
REMARK    8  A    between atoms: C_16  and  C_17
REMARK    9  A    between atoms: C_17  and  C_20
REMARK   10  A    between atoms: C_18  and  C_19
REMARK   11  A    between atoms: C_26  and  C_30
REMARK                            x       y       z     vdW  Elec       q    Type
REMARK                         _______ _______ _______ _____ _____    ______ ____
ROOT
ATOM      1  O   UNL     1      -7.328 -14.466  17.079  0.00  0.00    -0.274 OA
ATOM      4  N   UNL     1      -5.104 -11.679  17.856  0.00  0.00    -0.286 NA
ATOM      6  N   UNL     1      -6.153 -13.110  15.683  0.00  0.00    -0.313 N 
ATOM      9  C   UNL     1      -5.831 -12.921  18.144  0.00  0.00    +0.145 C 
ATOM     10  C   UNL     1      -6.662 -11.022  19.408  0.00  0.00    +0.070 C 
ATOM     11  C   UNL     1      -6.866 -12.524  19.208  0.00  0.00    +0.048 C 
ATOM     12  C   UNL     1      -4.372 -11.690  16.594  0.00  0.00    +0.075 C 
ATOM     13  C   UNL     1      -6.027 -10.573  18.099  0.00  0.00    +0.104 C 
ATOM     14  C   UNL     1      -5.310 -11.965  15.428  0.00  0.00    +0.123 C 
ATOM     15  C   UNL     1      -6.516 -13.548  16.934  0.00  0.00    +0.230 C 
ATOM     38  H   UNL     1      -6.601 -13.550  14.884  0.00  0.00    +0.149 HD
ENDROOT
BRANCH  10   5
ATOM      5  N   UNL     1      -7.892 -10.316  19.728  0.00  0.00    -0.308 NA
ATOM     37  H   UNL     1      -8.035 -10.339  20.737  0.00  0.00    +0.123 HD
BRANCH   5  18
ATOM     18  C   UNL     1      -9.037 -10.936  19.072  0.00  0.00    +0.118 C 
BRANCH  18  19
ATOM      7  N   UNL     1     -10.266  -8.300  16.824  0.00  0.00    -0.349 N 
ATOM     19  C   UNL     1      -9.798  -9.956  18.227  0.00  0.00    -0.008 A 
ATOM     21  C   UNL     1     -11.213  -9.864  18.104  0.00  0.00    +0.004 A 
ATOM     22  C   UNL     1      -9.243  -8.982  17.429  0.00  0.00    +0.091 A 
ATOM     23  C   UNL     1     -11.480  -8.817  17.219  0.00  0.00    +0.049 A 
ATOM     24  C   UNL     1     -12.295 -10.572  18.662  0.00  0.00    +0.010 A 
ATOM     25  C   UNL     1     -12.780  -8.442  16.862  0.00  0.00    +0.026 A 
ATOM     27  C   UNL     1     -10.079  -7.195  15.909  0.00  0.00    +0.149 C 
ATOM     28  C   UNL     1     -13.601 -10.208  18.315  0.00  0.00    +0.001 A 
ATOM     29  C   UNL     1     -13.837  -9.159  17.429  0.00  0.00    +0.002 A 
ENDBRANCH  18  19
ENDBRANCH   5  18
ENDBRANCH  10   5
BRANCH  12  16
ATOM     16  C   UNL     1      -3.570 -10.409  16.362  0.00  0.00    +0.029 C 
BRANCH  16  17
ATOM     17  C   UNL     1      -2.093 -10.714  16.156  0.00  0.00    +0.097 C 
BRANCH  17  20
ATOM      2  O   UNL     1      -1.441 -12.301  14.447  0.00  0.00    -0.276 OA
ATOM      8  N   UNL     1      -1.963 -10.125  13.827  0.00  0.00    -0.311 N 
ATOM     20  C   UNL     1      -1.793 -11.159  14.736  0.00  0.00    +0.213 C 
ATOM     39  H   UNL     1      -2.231  -9.202  14.155  0.00  0.00    +0.149 HD
BRANCH   8  26
ATOM     26  C   UNL     1      -1.738 -10.297  12.412  0.00  0.00    +0.139 C 
BRANCH  26  30
ATOM     30  C   UNL     1      -2.980 -10.039  11.609  0.00  0.00    -0.030 A 
ATOM     31  C   UNL     1      -2.892  -9.387  10.380  0.00  0.00    +0.009 A 
ATOM     32  C   UNL     1      -4.221 -10.454  12.092  0.00  0.00    +0.009 A 
ATOM     33  C   UNL     1      -4.047  -9.148   9.633  0.00  0.00    +0.046 A 
ATOM     34  C   UNL     1      -5.374 -10.215  11.346  0.00  0.00    +0.046 A 
ATOM     35  C   UNL     1      -5.288  -9.562  10.116  0.00  0.00    +0.120 A 
BRANCH  35   3
ATOM      3  O   UNL     1      -6.413  -9.330   9.387  0.00  0.00    -0.495 OA
ATOM     36  C   UNL     1      -7.545  -8.814  10.087  0.00  0.00    +0.277 C 
ENDBRANCH  35   3
ENDBRANCH  26  30
ENDBRANCH   8  26
ENDBRANCH  17  20
ENDBRANCH  16  17
ENDBRANCH  12  16
TORSDOF 9
ENDMDL
MODEL 6
REMARK VINA RESULT:      -7.4     26.943     30.217
REMARK  Name = 45360665
REMARK  11 active torsions:
REMARK  status: ('A' for Active; 'I' for Inactive)
REMARK    1  A    between atoms: O_3  and  C_35
REMARK    2  A    between atoms: O_3  and  C_36
REMARK    3  A    between atoms: N_5  and  C_10
REMARK    4  A    between atoms: N_5  and  C_18
REMARK    5  A    between atoms: N_7  and  C_27
REMARK    6  A    between atoms: N_8  and  C_26
REMARK    7  A    between atoms: C_12  and  C_16
REMARK    8  A    between atoms: C_16  and  C_17
REMARK    9  A    between atoms: C_17  and  C_20
REMARK   10  A    between atoms: C_18  and  C_19
REMARK   11  A    between atoms: C_26  and  C_30
REMARK                            x       y       z     vdW  Elec       q    Type
REMARK                         _______ _______ _______ _____ _____    ______ ____
ROOT
ATOM      1  O   UNL     1      -7.346 -11.947  11.309  0.00  0.00    -0.274 OA
ATOM      4  N   UNL     1      -4.372  -9.899  11.838  0.00  0.00    -0.286 NA
ATOM      6  N   UNL     1      -5.150 -12.536  11.281  0.00  0.00    -0.313 N 
ATOM      9  C   UNL     1      -5.798 -10.227  11.950  0.00  0.00    +0.145 C 
ATOM     10  C   UNL     1      -5.377  -8.310  10.522  0.00  0.00    +0.070 C 
ATOM     11  C   UNL     1      -6.508  -9.159  11.102  0.00  0.00    +0.048 C 
ATOM     12  C   UNL     1      -3.473 -10.993  12.190  0.00  0.00    +0.075 C 
ATOM     13  C   UNL     1      -4.180  -9.249  10.544  0.00  0.00    +0.104 C 
ATOM     14  C   UNL     1      -3.742 -12.213  11.324  0.00  0.00    +0.123 C 
ATOM     15  C   UNL     1      -6.164 -11.628  11.467  0.00  0.00    +0.230 C 
ATOM     38  H   UNL     1      -5.408 -13.471  10.981  0.00  0.00    +0.149 HD
ENDROOT
BRANCH  10   5
ATOM      5  N   UNL     1      -5.678  -7.785   9.200  0.00  0.00    -0.308 NA
ATOM     37  H   UNL     1      -6.188  -6.907   9.299  0.00  0.00    +0.123 HD
BRANCH   5  18
ATOM     18  C   UNL     1      -6.493  -8.722   8.437  0.00  0.00    +0.118 C 
BRANCH  18  19
ATOM      7  N   UNL     1      -9.493  -6.864   7.407  0.00  0.00    -0.349 N 
ATOM     19  C   UNL     1      -7.641  -8.040   7.752  0.00  0.00    -0.008 A 
ATOM     21  C   UNL     1      -7.895  -8.011   6.352  0.00  0.00    +0.004 A 
ATOM     22  C   UNL     1      -8.640  -7.327   8.374  0.00  0.00    +0.091 A 
ATOM     23  C   UNL     1      -9.062  -7.267   6.162  0.00  0.00    +0.049 A 
ATOM     24  C   UNL     1      -7.243  -8.547   5.224  0.00  0.00    +0.010 A 
ATOM     25  C   UNL     1      -9.611  -7.033   4.897  0.00  0.00    +0.026 A 
ATOM     27  C   UNL     1     -10.673  -6.071   7.672  0.00  0.00    +0.149 C 
ATOM     28  C   UNL     1      -7.781  -8.320   3.952  0.00  0.00    +0.001 A 
ATOM     29  C   UNL     1      -8.947  -7.575   3.794  0.00  0.00    +0.002 A 
ENDBRANCH  18  19
ENDBRANCH   5  18
ENDBRANCH  10   5
BRANCH  12  16
ATOM     16  C   UNL     1      -1.999 -10.592  12.132  0.00  0.00    +0.029 C 
BRANCH  16  17
ATOM     17  C   UNL     1      -1.521 -10.055  13.474  0.00  0.00    +0.097 C 
BRANCH  17  20
ATOM      2  O   UNL     1      -1.644 -12.150  14.683  0.00  0.00    -0.276 OA
ATOM      8  N   UNL     1      -2.645 -10.261  15.590  0.00  0.00    -0.311 N 
ATOM     20  C   UNL     1      -1.926 -10.954  14.628  0.00  0.00    +0.213 C 
ATOM     39  H   UNL     1      -2.859  -9.277  15.452  0.00  0.00    +0.149 HD
BRANCH   8  26
ATOM     26  C   UNL     1      -3.145 -10.896  16.785  0.00  0.00    +0.139 C 
BRANCH  26  30
ATOM     30  C   UNL     1      -4.576 -10.533  17.059  0.00  0.00    -0.030 A 
ATOM     31  C   UNL     1      -5.356  -9.963  16.053  0.00  0.00    +0.009 A 
ATOM     32  C   UNL     1      -5.126 -10.768  18.320  0.00  0.00    +0.009 A 
ATOM     33  C   UNL     1      -6.686  -9.627  16.308  0.00  0.00    +0.046 A 
ATOM     34  C   UNL     1      -6.455 -10.431  18.574  0.00  0.00    +0.046 A 
ATOM     35  C   UNL     1      -7.235  -9.860  17.568  0.00  0.00    +0.120 A 
BRANCH  35   3
ATOM      3  O   UNL     1      -8.533  -9.533  17.817  0.00  0.00    -0.495 OA
ATOM     36  C   UNL     1      -9.131  -8.559  16.962  0.00  0.00    +0.277 C 
ENDBRANCH  35   3
ENDBRANCH  26  30
ENDBRANCH   8  26
ENDBRANCH  17  20
ENDBRANCH  16  17
ENDBRANCH  12  16
TORSDOF 9
ENDMDL
MODEL 7
REMARK VINA RESULT:      -7.4      4.717      8.072
REMARK  Name = 45360665
REMARK  11 active torsions:
REMARK  status: ('A' for Active; 'I' for Inactive)
REMARK    1  A    between atoms: O_3  and  C_35
REMARK    2  A    between atoms: O_3  and  C_36
REMARK    3  A    between atoms: N_5  and  C_10
REMARK    4  A    between atoms: N_5  and  C_18
REMARK    5  A    between atoms: N_7  and  C_27
REMARK    6  A    between atoms: N_8  and  C_26
REMARK    7  A    between atoms: C_12  and  C_16
REMARK    8  A    between atoms: C_16  and  C_17
REMARK    9  A    between atoms: C_17  and  C_20
REMARK   10  A    between atoms: C_18  and  C_19
REMARK   11  A    between atoms: C_26  and  C_30
REMARK                            x       y       z     vdW  Elec       q    Type
REMARK                         _______ _______ _______ _____ _____    ______ ____
ROOT
ATOM      1  O   UNL     1      14.270  11.838  12.813  0.00  0.00    -0.274 OA
ATOM      4  N   UNL     1      15.436  11.880  16.271  0.00  0.00    -0.286 NA
ATOM      6  N   UNL     1      14.838  13.599  14.135  0.00  0.00    -0.313 N 
ATOM      9  C   UNL     1      15.195  11.275  14.956  0.00  0.00    +0.145 C 
ATOM     10  C   UNL     1      13.824  10.306  16.709  0.00  0.00    +0.070 C 
ATOM     11  C   UNL     1      14.139  10.190  15.218  0.00  0.00    +0.048 C 
ATOM     12  C   UNL     1      16.064  13.196  16.222  0.00  0.00    +0.075 C 
ATOM     13  C   UNL     1      14.202  11.743  17.041  0.00  0.00    +0.104 C 
ATOM     14  C   UNL     1      15.223  14.166  15.407  0.00  0.00    +0.123 C 
ATOM     15  C   UNL     1      14.709  12.253  13.890  0.00  0.00    +0.230 C 
ATOM     38  H   UNL     1      14.531  14.239  13.410  0.00  0.00    +0.149 HD
ENDROOT
BRANCH  10   5
ATOM      5  N   UNL     1      12.443   9.981  17.028  0.00  0.00    -0.308 NA
ATOM     37  H   UNL     1      12.149  10.532  17.833  0.00  0.00    +0.123 HD
BRANCH   5  18
ATOM     18  C   UNL     1      12.299   8.565  17.345  0.00  0.00    +0.118 C 
BRANCH  18  19
ATOM      7  N   UNL     1      11.855   8.072  20.961  0.00  0.00    -0.349 N 
ATOM     19  C   UNL     1      12.398   8.307  18.821  0.00  0.00    -0.008 A 
ATOM     21  C   UNL     1      13.573   7.954  19.541  0.00  0.00    +0.004 A 
ATOM     22  C   UNL     1      11.358   8.372  19.720  0.00  0.00    +0.091 A 
ATOM     23  C   UNL     1      13.205   7.812  20.881  0.00  0.00    +0.049 A 
ATOM     24  C   UNL     1      14.918   7.740  19.182  0.00  0.00    +0.010 A 
ATOM     25  C   UNL     1      14.118   7.466  21.883  0.00  0.00    +0.026 A 
ATOM     27  C   UNL     1      11.061   8.039  22.170  0.00  0.00    +0.149 C 
ATOM     28  C   UNL     1      15.843   7.394  20.173  0.00  0.00    +0.001 A 
ATOM     29  C   UNL     1      15.447   7.260  21.502  0.00  0.00    +0.002 A 
ENDBRANCH  18  19
ENDBRANCH   5  18
ENDBRANCH  10   5
BRANCH  12  16
ATOM     16  C   UNL     1      16.365  13.762  17.610  0.00  0.00    +0.029 C 
BRANCH  16  17
ATOM     17  C   UNL     1      17.763  13.376  18.071  0.00  0.00    +0.097 C 
BRANCH  17  20
ATOM      2  O   UNL     1      18.593  12.814  20.276  0.00  0.00    -0.276 OA
ATOM      8  N   UNL     1      16.667  11.779  19.496  0.00  0.00    -0.311 N 
ATOM     20  C   UNL     1      17.745  12.645  19.402  0.00  0.00    +0.213 C 
ATOM     39  H   UNL     1      16.026  11.679  18.714  0.00  0.00    +0.149 HD
BRANCH   8  26
ATOM     26  C   UNL     1      16.429  10.967  20.666  0.00  0.00    +0.139 C 
BRANCH  26  30
ATOM     30  C   UNL     1      15.032  11.131  21.191  0.00  0.00    -0.030 A 
ATOM     31  C   UNL     1      14.767  10.927  22.544  0.00  0.00    +0.009 A 
ATOM     32  C   UNL     1      14.000  11.490  20.324  0.00  0.00    +0.009 A 
ATOM     33  C   UNL     1      13.469  11.080  23.031  0.00  0.00    +0.046 A 
ATOM     34  C   UNL     1      12.702  11.642  20.811  0.00  0.00    +0.046 A 
ATOM     35  C   UNL     1      12.436  11.437  22.165  0.00  0.00    +0.120 A 
BRANCH  35   3
ATOM      3  O   UNL     1      11.170  11.587  22.640  0.00  0.00    -0.495 OA
ATOM     36  C   UNL     1      10.966  11.345  24.032  0.00  0.00    +0.277 C 
ENDBRANCH  35   3
ENDBRANCH  26  30
ENDBRANCH   8  26
ENDBRANCH  17  20
ENDBRANCH  16  17
ENDBRANCH  12  16
TORSDOF 9
ENDMDL
MODEL 8
REMARK VINA RESULT:      -7.4     27.634     31.084
REMARK  Name = 45360665
REMARK  11 active torsions:
REMARK  status: ('A' for Active; 'I' for Inactive)
REMARK    1  A    between atoms: O_3  and  C_35
REMARK    2  A    between atoms: O_3  and  C_36
REMARK    3  A    between atoms: N_5  and  C_10
REMARK    4  A    between atoms: N_5  and  C_18
REMARK    5  A    between atoms: N_7  and  C_27
REMARK    6  A    between atoms: N_8  and  C_26
REMARK    7  A    between atoms: C_12  and  C_16
REMARK    8  A    between atoms: C_16  and  C_17
REMARK    9  A    between atoms: C_17  and  C_20
REMARK   10  A    between atoms: C_18  and  C_19
REMARK   11  A    between atoms: C_26  and  C_30
REMARK                            x       y       z     vdW  Elec       q    Type
REMARK                         _______ _______ _______ _____ _____    ______ ____
ROOT
ATOM      1  O   UNL     1     -11.002  -9.370  12.122  0.00  0.00    -0.274 OA
ATOM      4  N   UNL     1     -11.375  -8.159  15.545  0.00  0.00    -0.286 NA
ATOM      6  N   UNL     1      -9.584  -9.548  13.891  0.00  0.00    -0.313 N 
ATOM      9  C   UNL     1     -11.855  -8.583  14.224  0.00  0.00    +0.145 C 
ATOM     10  C   UNL     1     -12.196  -6.216  14.642  0.00  0.00    +0.070 C 
ATOM     11  C   UNL     1     -12.442  -7.307  13.600  0.00  0.00    +0.048 C 
ATOM     12  C   UNL     1     -10.406  -9.066  16.152  0.00  0.00    +0.075 C 
ATOM     13  C   UNL     1     -11.014  -6.748  15.441  0.00  0.00    +0.104 C 
ATOM     14  C   UNL     1      -9.195  -9.246  15.249  0.00  0.00    +0.123 C 
ATOM     15  C   UNL     1     -10.777  -9.176  13.320  0.00  0.00    +0.230 C 
ATOM     38  H   UNL     1      -8.883  -9.961  13.284  0.00  0.00    +0.149 HD
ENDROOT
BRANCH  10   5
ATOM      5  N   UNL     1     -11.957  -4.908  14.054  0.00  0.00    -0.308 NA
ATOM     37  H   UNL     1     -11.620  -4.274  14.777  0.00  0.00    +0.123 HD
BRANCH   5  18
ATOM     18  C   UNL     1     -13.180  -4.362  13.477  0.00  0.00    +0.118 C 
BRANCH  18  19
ATOM      7  N   UNL     1     -12.203  -4.005   9.951  0.00  0.00    -0.349 N 
ATOM     19  C   UNL     1     -13.032  -4.082  12.009  0.00  0.00    -0.008 A 
ATOM     21  C   UNL     1     -13.968  -3.406  11.178  0.00  0.00    +0.004 A 
ATOM     22  C   UNL     1     -11.958  -4.438  11.227  0.00  0.00    +0.091 A 
ATOM     23  C   UNL     1     -13.424  -3.371   9.892  0.00  0.00    +0.049 A 
ATOM     24  C   UNL     1     -15.230  -2.819  11.396  0.00  0.00    +0.010 A 
ATOM     25  C   UNL     1     -14.081  -2.776   8.810  0.00  0.00    +0.026 A 
ATOM     27  C   UNL     1     -11.298  -4.192   8.838  0.00  0.00    +0.149 C 
ATOM     28  C   UNL     1     -15.899  -2.219  10.323  0.00  0.00    +0.001 A 
ATOM     29  C   UNL     1     -15.332  -2.200   9.050  0.00  0.00    +0.002 A 
ENDBRANCH  18  19
ENDBRANCH   5  18
ENDBRANCH  10   5
BRANCH  12  16
ATOM     16  C   UNL     1      -9.984  -8.631  17.555  0.00  0.00    +0.029 C 
BRANCH  16  17
ATOM     17  C   UNL     1     -10.379  -9.670  18.596  0.00  0.00    +0.097 C 
BRANCH  17  20
ATOM      2  O   UNL     1      -9.537 -11.930  18.377  0.00  0.00    -0.276 OA
ATOM      8  N   UNL     1      -8.166 -10.297  19.296  0.00  0.00    -0.311 N 
ATOM     20  C   UNL     1      -9.341 -10.769  18.731  0.00  0.00    +0.213 C 
ATOM     39  H   UNL     1      -8.097  -9.326  19.586  0.00  0.00    +0.149 HD
BRANCH   8  26
ATOM     26  C   UNL     1      -7.026 -11.150  19.531  0.00  0.00    +0.139 C 
BRANCH  26  30
ATOM     30  C   UNL     1      -5.972 -10.984  18.475  0.00  0.00    -0.030 A 
ATOM     31  C   UNL     1      -4.756 -11.658  18.590  0.00  0.00    +0.009 A 
ATOM     32  C   UNL     1      -6.210 -10.157  17.377  0.00  0.00    +0.009 A 
ATOM     33  C   UNL     1      -3.778 -11.503  17.608  0.00  0.00    +0.046 A 
ATOM     34  C   UNL     1      -5.231 -10.002  16.396  0.00  0.00    +0.046 A 
ATOM     35  C   UNL     1      -4.014 -10.675  16.511  0.00  0.00    +0.120 A 
BRANCH  35   3
ATOM      3  O   UNL     1      -3.060 -10.526  15.553  0.00  0.00    -0.495 OA
ATOM     36  C   UNL     1      -1.700 -10.664  15.964  0.00  0.00    +0.277 C 
ENDBRANCH  35   3
ENDBRANCH  26  30
ENDBRANCH   8  26
ENDBRANCH  17  20
ENDBRANCH  16  17
ENDBRANCH  12  16
TORSDOF 9
ENDMDL
MODEL 9
REMARK VINA RESULT:      -7.3     16.307     20.219
REMARK  Name = 45360665
REMARK  11 active torsions:
REMARK  status: ('A' for Active; 'I' for Inactive)
REMARK    1  A    between atoms: O_3  and  C_35
REMARK    2  A    between atoms: O_3  and  C_36
REMARK    3  A    between atoms: N_5  and  C_10
REMARK    4  A    between atoms: N_5  and  C_18
REMARK    5  A    between atoms: N_7  and  C_27
REMARK    6  A    between atoms: N_8  and  C_26
REMARK    7  A    between atoms: C_12  and  C_16
REMARK    8  A    between atoms: C_16  and  C_17
REMARK    9  A    between atoms: C_17  and  C_20
REMARK   10  A    between atoms: C_18  and  C_19
REMARK   11  A    between atoms: C_26  and  C_30
REMARK                            x       y       z     vdW  Elec       q    Type
REMARK                         _______ _______ _______ _____ _____    ______ ____
ROOT
ATOM      1  O   UNL     1       7.203   8.853   3.473  0.00  0.00    -0.274 OA
ATOM      4  N   UNL     1      10.244   6.967   4.190  0.00  0.00    -0.286 NA
ATOM      6  N   UNL     1       7.737   7.589   5.286  0.00  0.00    -0.313 N 
ATOM      9  C   UNL     1       9.450   8.009   3.528  0.00  0.00    +0.145 C 
ATOM     10  C   UNL     1      10.183   6.265   2.006  0.00  0.00    +0.070 C 
ATOM     11  C   UNL     1       9.414   7.586   2.051  0.00  0.00    +0.048 C 
ATOM     12  C   UNL     1      10.067   6.903   5.637  0.00  0.00    +0.075 C 
ATOM     13  C   UNL     1      10.060   5.735   3.427  0.00  0.00    +0.104 C 
ATOM     14  C   UNL     1       8.606   6.676   5.993  0.00  0.00    +0.123 C 
ATOM     15  C   UNL     1       8.035   8.168   4.076  0.00  0.00    +0.230 C 
ATOM     38  H   UNL     1       6.799   7.720   5.651  0.00  0.00    +0.149 HD
ENDROOT
BRANCH  10   5
ATOM      5  N   UNL     1       9.679   5.346   0.998  0.00  0.00    -0.308 NA
ATOM     37  H   UNL     1       8.714   5.106   1.219  0.00  0.00    +0.123 HD
BRANCH   5  18
ATOM     18  C   UNL     1      10.474   4.125   0.959  0.00  0.00    +0.118 C 
BRANCH  18  19
ATOM      7  N   UNL     1      12.966   4.648  -1.692  0.00  0.00    -0.349 N 
ATOM     19  C   UNL     1      11.682   4.268   0.078  0.00  0.00    -0.008 A 
ATOM     21  C   UNL     1      13.037   4.058   0.459  0.00  0.00    +0.004 A 
ATOM     22  C   UNL     1      11.670   4.630  -1.249  0.00  0.00    +0.091 A 
ATOM     23  C   UNL     1      13.822   4.303  -0.670  0.00  0.00    +0.049 A 
ATOM     24  C   UNL     1      13.673   3.683   1.659  0.00  0.00    +0.010 A 
ATOM     25  C   UNL     1      15.216   4.190  -0.659  0.00  0.00    +0.026 A 
ATOM     27  C   UNL     1      13.361   4.981  -3.044  0.00  0.00    +0.149 C 
ATOM     28  C   UNL     1      15.067   3.566   1.684  0.00  0.00    +0.001 A 
ATOM     29  C   UNL     1      15.825   3.816   0.542  0.00  0.00    +0.002 A 
ENDBRANCH  18  19
ENDBRANCH   5  18
ENDBRANCH  10   5
BRANCH  12  16
ATOM     16  C   UNL     1      10.962   5.857   6.300  0.00  0.00    +0.029 C 
BRANCH  16  17
ATOM     17  C   UNL     1      11.777   6.466   7.433  0.00  0.00    +0.097 C 
BRANCH  17  20
ATOM      2  O   UNL     1      12.890   8.584   7.064  0.00  0.00    -0.276 OA
ATOM      8  N   UNL     1      13.880   6.636   6.280  0.00  0.00    -0.311 N 
ATOM     20  C   UNL     1      12.888   7.363   6.920  0.00  0.00    +0.213 C 
ATOM     39  H   UNL     1      13.787   5.629   6.181  0.00  0.00    +0.149 HD
BRANCH   8  26
ATOM     26  C   UNL     1      15.045   7.262   5.703  0.00  0.00    +0.139 C 
BRANCH  26  30
ATOM     30  C   UNL     1      14.956   7.347   4.207  0.00  0.00    -0.030 A 
ATOM     31  C   UNL     1      13.750   7.073   3.563  0.00  0.00    +0.009 A 
ATOM     32  C   UNL     1      16.081   7.702   3.461  0.00  0.00    +0.009 A 
ATOM     33  C   UNL     1      13.668   7.153   2.173  0.00  0.00    +0.046 A 
ATOM     34  C   UNL     1      15.997   7.781   2.071  0.00  0.00    +0.046 A 
ATOM     35  C   UNL     1      14.791   7.507   1.426  0.00  0.00    +0.120 A 
BRANCH  35   3
ATOM      3  O   UNL     1      14.710   7.586   0.070  0.00  0.00    -0.495 OA
ATOM     36  C   UNL     1      13.577   8.261  -0.474  0.00  0.00    +0.277 C 
ENDBRANCH  35   3
ENDBRANCH  26  30
ENDBRANCH   8  26
ENDBRANCH  17  20
ENDBRANCH  16  17
ENDBRANCH  12  16
TORSDOF 9
ENDMDL
MODEL 10
REMARK VINA RESULT:      -7.2     27.266     30.205
REMARK  Name = 45360665
REMARK  11 active torsions:
REMARK  status: ('A' for Active; 'I' for Inactive)
REMARK    1  A    between atoms: O_3  and  C_35
REMARK    2  A    between atoms: O_3  and  C_36
REMARK    3  A    between atoms: N_5  and  C_10
REMARK    4  A    between atoms: N_5  and  C_18
REMARK    5  A    between atoms: N_7  and  C_27
REMARK    6  A    between atoms: N_8  and  C_26
REMARK    7  A    between atoms: C_12  and  C_16
REMARK    8  A    between atoms: C_16  and  C_17
REMARK    9  A    between atoms: C_17  and  C_20
REMARK   10  A    between atoms: C_18  and  C_19
REMARK   11  A    between atoms: C_26  and  C_30
REMARK                            x       y       z     vdW  Elec       q    Type
REMARK                         _______ _______ _______ _____ _____    ______ ____
ROOT
ATOM      1  O   UNL     1      -7.352 -14.324  17.448  0.00  0.00    -0.274 OA
ATOM      4  N   UNL     1      -5.313 -11.307  17.680  0.00  0.00    -0.286 NA
ATOM      6  N   UNL     1      -5.870 -13.452  15.960  0.00  0.00    -0.313 N 
ATOM      9  C   UNL     1      -6.106 -12.420  18.213  0.00  0.00    +0.145 C 
ATOM     10  C   UNL     1      -7.169 -10.261  18.533  0.00  0.00    +0.070 C 
ATOM     11  C   UNL     1      -7.348 -11.751  18.823  0.00  0.00    +0.048 C 
ATOM     12  C   UNL     1      -4.316 -11.699  16.689  0.00  0.00    +0.075 C 
ATOM     13  C   UNL     1      -6.248 -10.244  17.321  0.00  0.00    +0.104 C 
ATOM     14  C   UNL     1      -4.972 -12.411  15.516  0.00  0.00    +0.123 C 
ATOM     15  C   UNL     1      -6.513 -13.462  17.174  0.00  0.00    +0.230 C 
ATOM     38  H   UNL     1      -6.134 -14.164  15.285  0.00  0.00    +0.149 HD
ENDROOT
BRANCH  10   5
ATOM      5  N   UNL     1      -8.427  -9.566  18.316  0.00  0.00    -0.308 NA
ATOM     37  H   UNL     1      -8.897  -9.440  19.212  0.00  0.00    +0.123 HD
BRANCH   5  18
ATOM     18  C   UNL     1      -9.298 -10.326  17.427  0.00  0.00    +0.118 C 
BRANCH  18  19
ATOM      7  N   UNL     1     -12.802  -9.232  17.225  0.00  0.00    -0.349 N 
ATOM     19  C   UNL     1     -10.620  -9.645  17.220  0.00  0.00    -0.008 A 
ATOM     21  C   UNL     1     -10.832  -8.372  16.621  0.00  0.00    +0.004 A 
ATOM     22  C   UNL     1     -11.849 -10.149  17.581  0.00  0.00    +0.091 A 
ATOM     23  C   UNL     1     -12.209  -8.137  16.636  0.00  0.00    +0.049 A 
ATOM     24  C   UNL     1      -9.984  -7.394  16.067  0.00  0.00    +0.010 A 
ATOM     25  C   UNL     1     -12.781  -6.968  16.122  0.00  0.00    +0.026 A 
ATOM     27  C   UNL     1     -14.222  -9.406  17.440  0.00  0.00    +0.149 C 
ATOM     28  C   UNL     1     -10.542  -6.220  15.548  0.00  0.00    +0.001 A 
ATOM     29  C   UNL     1     -11.920  -6.013  15.577  0.00  0.00    +0.002 A 
ENDBRANCH  18  19
ENDBRANCH   5  18
ENDBRANCH  10   5
BRANCH  12  16
ATOM     16  C   UNL     1      -3.461 -10.526  16.210  0.00  0.00    +0.029 C 
BRANCH  16  17
ATOM     17  C   UNL     1      -2.028 -10.963  15.940  0.00  0.00    +0.097 C 
BRANCH  17  20
ATOM      2  O   UNL     1      -1.582 -12.539  14.157  0.00  0.00    -0.276 OA
ATOM      8  N   UNL     1      -1.927 -10.304  13.629  0.00  0.00    -0.311 N 
ATOM     20  C   UNL     1      -1.819 -11.381  14.496  0.00  0.00    +0.213 C 
ATOM     39  H   UNL     1      -2.098  -9.372  13.997  0.00  0.00    +0.149 HD
BRANCH   8  26
ATOM     26  C   UNL     1      -1.767 -10.444  12.202  0.00  0.00    +0.139 C 
BRANCH  26  30
ATOM     30  C   UNL     1      -3.006 -10.043  11.455  0.00  0.00    -0.030 A 
ATOM     31  C   UNL     1      -4.261 -10.419  11.933  0.00  0.00    +0.009 A 
ATOM     32  C   UNL     1      -2.902  -9.291  10.284  0.00  0.00    +0.009 A 
ATOM     33  C   UNL     1      -5.412 -10.046  11.239  0.00  0.00    +0.046 A 
ATOM     34  C   UNL     1      -4.053  -8.919   9.591  0.00  0.00    +0.046 A 
ATOM     35  C   UNL     1      -5.308  -9.296  10.068  0.00  0.00    +0.120 A 
BRANCH  35   3
ATOM      3  O   UNL     1      -6.432  -8.931   9.391  0.00  0.00    -0.495 OA
ATOM     36  C   UNL     1      -6.685  -9.589   8.151  0.00  0.00    +0.277 C 
ENDBRANCH  35   3
ENDBRANCH  26  30
ENDBRANCH   8  26
ENDBRANCH  17  20
ENDBRANCH  16  17
ENDBRANCH  12  16
TORSDOF 9
ENDMDL
