MODEL 1
REMARK VINA RESULT:      -6.7      0.000      0.000
REMARK  Name = 51137057
REMARK  4 active torsions:
REMARK  status: ('A' for Active; 'I' for Inactive)
REMARK    1  A    between atoms: N_2  and  C_9
REMARK    2  A    between atoms: C_5  and  C_10
REMARK    3  A    between atoms: C_9  and  C_11
REMARK    4  A    between atoms: C_18  and  C_23
REMARK                            x       y       z     vdW  Elec       q    Type
REMARK                         _______ _______ _______ _____ _____    ______ ____
ROOT
ATOM      2  N   UNL     1      11.846   4.279   1.986  0.00  0.00    -0.297 NA
ATOM      5  C   UNL     1      10.349   5.346   3.441  0.00  0.00    +0.090 C 
ATOM      6  C   UNL     1      11.336   6.379   2.870  0.00  0.00    +0.029 C 
ATOM      7  C   UNL     1      10.991   3.986   3.138  0.00  0.00    +0.097 C 
ATOM      8  C   UNL     1      12.486   5.555   2.306  0.00  0.00    +0.085 C 
ENDROOT
BRANCH   5  10
ATOM      1  O   UNL     1      10.175   4.428   5.693  0.00  0.00    -0.439 OA
ATOM      3  N   UNL     1       9.591   6.611   5.517  0.00  0.00    -0.213 NA
ATOM     10  C   UNL     1      10.016   5.528   4.905  0.00  0.00    +0.201 A 
ATOM     12  C   UNL     1       9.812   4.867   6.933  0.00  0.00    +0.155 A 
ATOM     13  C   UNL     1       9.456   6.203   6.821  0.00  0.00    +0.110 A 
ATOM     16  C   UNL     1       9.791   4.139   8.116  0.00  0.00    +0.048 A 
ATOM     17  C   UNL     1       9.041   6.892   7.971  0.00  0.00    +0.031 A 
ATOM     21  C   UNL     1       9.374   4.841   9.252  0.00  0.00    +0.004 A 
ATOM     22  C   UNL     1       9.006   6.190   9.183  0.00  0.00    +0.002 A 
ENDBRANCH   5  10
BRANCH   2   9
ATOM      9  C   UNL     1      12.814   3.222   1.730  0.00  0.00    +0.119 C 
BRANCH   9  11
ATOM     11  C   UNL     1      13.792   3.607   0.651  0.00  0.00    -0.032 A 
ATOM     14  C   UNL     1      13.355   3.760  -0.665  0.00  0.00    +0.023 A 
ATOM     15  C   UNL     1      15.135   3.810   0.969  0.00  0.00    +0.005 A 
ATOM     18  C   UNL     1      14.263   4.116  -1.663  0.00  0.00    +0.052 A 
ATOM     19  C   UNL     1      16.042   4.167  -0.029  0.00  0.00    +0.002 A 
ATOM     20  C   UNL     1      15.606   4.320  -1.345  0.00  0.00    +0.019 A 
BRANCH  18  23
ATOM      4  N   UNL     1      13.455   4.403  -4.106  0.00  0.00    -0.191 NA
ATOM     23  C   UNL     1      13.817   4.275  -3.011  0.00  0.00    +0.099 C 
ENDBRANCH  18  23
ENDBRANCH   9  11
ENDBRANCH   2   9
TORSDOF 4
ENDMDL
MODEL 2
REMARK VINA RESULT:      -6.6     17.471     20.275
REMARK  Name = 51137057
REMARK  4 active torsions:
REMARK  status: ('A' for Active; 'I' for Inactive)
REMARK    1  A    between atoms: N_2  and  C_9
REMARK    2  A    between atoms: C_5  and  C_10
REMARK    3  A    between atoms: C_9  and  C_11
REMARK    4  A    between atoms: C_18  and  C_23
REMARK                            x       y       z     vdW  Elec       q    Type
REMARK                         _______ _______ _______ _____ _____    ______ ____
ROOT
ATOM      2  N   UNL     1      11.595   8.636  21.407  0.00  0.00    -0.297 NA
ATOM      5  C   UNL     1      13.512   8.133  20.155  0.00  0.00    +0.090 C 
ATOM      6  C   UNL     1      12.451   7.040  19.934  0.00  0.00    +0.029 C 
ATOM      7  C   UNL     1      13.037   8.889  21.403  0.00  0.00    +0.097 C 
ATOM      8  C   UNL     1      11.459   7.218  21.076  0.00  0.00    +0.085 C 
ENDROOT
BRANCH   5  10
ATOM      1  O   UNL     1      15.328   6.734  19.327  0.00  0.00    -0.439 OA
ATOM      3  N   UNL     1      15.832   7.933  21.183  0.00  0.00    -0.213 NA
ATOM     10  C   UNL     1      14.931   7.625  20.277  0.00  0.00    +0.201 A 
ATOM     12  C   UNL     1      16.618   6.451  19.673  0.00  0.00    +0.155 A 
ATOM     13  C   UNL     1      16.923   7.187  20.809  0.00  0.00    +0.110 A 
ATOM     16  C   UNL     1      17.497   5.589  19.029  0.00  0.00    +0.048 A 
ATOM     17  C   UNL     1      18.204   7.071  21.368  0.00  0.00    +0.031 A 
ATOM     21  C   UNL     1      18.770   5.484  19.599  0.00  0.00    +0.004 A 
ATOM     22  C   UNL     1      19.119   6.209  20.745  0.00  0.00    +0.002 A 
ENDBRANCH   5  10
BRANCH   2   9
ATOM      9  C   UNL     1      10.977   8.969  22.683  0.00  0.00    +0.119 C 
BRANCH   9  11
ATOM     11  C   UNL     1      11.027  10.447  22.962  0.00  0.00    -0.032 A 
ATOM     14  C   UNL     1      11.107  11.355  21.905  0.00  0.00    +0.023 A 
ATOM     15  C   UNL     1      10.995  10.910  24.278  0.00  0.00    +0.005 A 
ATOM     18  C   UNL     1      11.153  12.725  22.165  0.00  0.00    +0.052 A 
ATOM     19  C   UNL     1      11.040  12.280  24.536  0.00  0.00    +0.002 A 
ATOM     20  C   UNL     1      11.119  13.187  23.480  0.00  0.00    +0.019 A 
BRANCH  18  23
ATOM      4  N   UNL     1      11.297  14.411  20.205  0.00  0.00    -0.191 NA
ATOM     23  C   UNL     1      11.233  13.655  21.084  0.00  0.00    +0.099 C 
ENDBRANCH  18  23
ENDBRANCH   9  11
ENDBRANCH   2   9
TORSDOF 4
ENDMDL
MODEL 3
REMARK VINA RESULT:      -6.6      2.086      9.014
REMARK  Name = 51137057
REMARK  4 active torsions:
REMARK  status: ('A' for Active; 'I' for Inactive)
REMARK    1  A    between atoms: N_2  and  C_9
REMARK    2  A    between atoms: C_5  and  C_10
REMARK    3  A    between atoms: C_9  and  C_11
REMARK    4  A    between atoms: C_18  and  C_23
REMARK                            x       y       z     vdW  Elec       q    Type
REMARK                         _______ _______ _______ _____ _____    ______ ____
ROOT
ATOM      2  N   UNL     1      10.877   5.168   3.969  0.00  0.00    -0.297 NA
ATOM      5  C   UNL     1      12.487   4.827   2.299  0.00  0.00    +0.090 C 
ATOM      6  C   UNL     1      12.388   6.329   2.621  0.00  0.00    +0.029 C 
ATOM      7  C   UNL     1      11.220   4.215   2.912  0.00  0.00    +0.097 C 
ATOM      8  C   UNL     1      11.070   6.486   3.366  0.00  0.00    +0.085 C 
ENDROOT
BRANCH   5  10
ATOM      1  O   UNL     1      11.693   3.693   0.292  0.00  0.00    -0.439 OA
ATOM      3  N   UNL     1      13.592   4.897   0.007  0.00  0.00    -0.213 NA
ATOM     10  C   UNL     1      12.649   4.501   0.832  0.00  0.00    +0.201 A 
ATOM     12  C   UNL     1      12.079   3.568  -1.012  0.00  0.00    +0.155 A 
ATOM     13  C   UNL     1      13.241   4.306  -1.182  0.00  0.00    +0.110 A 
ATOM     16  C   UNL     1      11.448   2.843  -2.014  0.00  0.00    +0.048 A 
ATOM     17  C   UNL     1      13.843   4.339  -2.449  0.00  0.00    +0.031 A 
ATOM     21  C   UNL     1      12.061   2.886  -3.271  0.00  0.00    +0.004 A 
ATOM     22  C   UNL     1      13.235   3.619  -3.486  0.00  0.00    +0.002 A 
ENDBRANCH   5  10
BRANCH   2   9
ATOM      9  C   UNL     1       9.522   4.979   4.468  0.00  0.00    +0.119 C 
BRANCH   9  11
ATOM     11  C   UNL     1       9.302   5.689   5.778  0.00  0.00    -0.032 A 
ATOM     14  C   UNL     1       9.684   5.080   6.973  0.00  0.00    +0.023 A 
ATOM     15  C   UNL     1       8.717   6.955   5.795  0.00  0.00    +0.005 A 
ATOM     18  C   UNL     1       9.480   5.738   8.187  0.00  0.00    +0.052 A 
ATOM     19  C   UNL     1       8.515   7.613   7.008  0.00  0.00    +0.002 A 
ATOM     20  C   UNL     1       8.896   7.005   8.204  0.00  0.00    +0.019 A 
BRANCH  18  23
ATOM      4  N   UNL     1      10.189   4.612  10.407  0.00  0.00    -0.191 NA
ATOM     23  C   UNL     1       9.871   5.117   9.412  0.00  0.00    +0.099 C 
ENDBRANCH  18  23
ENDBRANCH   9  11
ENDBRANCH   2   9
TORSDOF 4
ENDMDL
MODEL 4
REMARK VINA RESULT:      -6.5     24.181     27.711
REMARK  Name = 51137057
REMARK  4 active torsions:
REMARK  status: ('A' for Active; 'I' for Inactive)
REMARK    1  A    between atoms: N_2  and  C_9
REMARK    2  A    between atoms: C_5  and  C_10
REMARK    3  A    between atoms: C_9  and  C_11
REMARK    4  A    between atoms: C_18  and  C_23
REMARK                            x       y       z     vdW  Elec       q    Type
REMARK                         _______ _______ _______ _____ _____    ______ ____
ROOT
ATOM      2  N   UNL     1      -4.746 -11.582  17.510  0.00  0.00    -0.297 NA
ATOM      5  C   UNL     1      -6.439 -10.573  18.779  0.00  0.00    +0.090 C 
ATOM      6  C   UNL     1      -5.774 -11.689  19.603  0.00  0.00    +0.029 C 
ATOM      7  C   UNL     1      -5.996 -10.839  17.334  0.00  0.00    +0.097 C 
ATOM      8  C   UNL     1      -5.021 -12.534  18.585  0.00  0.00    +0.085 C 
ENDROOT
BRANCH   5  10
ATOM      1  O   UNL     1      -8.592  -9.758  17.975  0.00  0.00    -0.439 OA
ATOM      3  N   UNL     1      -8.703 -11.016  19.857  0.00  0.00    -0.213 NA
ATOM     10  C   UNL     1      -7.941 -10.483  18.927  0.00  0.00    +0.201 A 
ATOM     12  C   UNL     1      -9.903  -9.844  18.347  0.00  0.00    +0.155 A 
ATOM     13  C   UNL     1      -9.966 -10.614  19.499  0.00  0.00    +0.110 A 
ATOM     16  C   UNL     1     -11.001  -9.276  17.712  0.00  0.00    +0.048 A 
ATOM     17  C   UNL     1     -11.218 -10.854  20.085  0.00  0.00    +0.031 A 
ATOM     21  C   UNL     1     -12.241  -9.524  18.311  0.00  0.00    +0.004 A 
ATOM     22  C   UNL     1     -12.349 -10.297  19.473  0.00  0.00    +0.002 A 
ENDBRANCH   5  10
BRANCH   2   9
ATOM      9  C   UNL     1      -4.314 -12.238  16.284  0.00  0.00    +0.119 C 
BRANCH   9  11
ATOM     11  C   UNL     1      -3.275 -11.431  15.552  0.00  0.00    -0.032 A 
ATOM     14  C   UNL     1      -3.378 -11.249  14.172  0.00  0.00    +0.023 A 
ATOM     15  C   UNL     1      -2.210 -10.865  16.253  0.00  0.00    +0.005 A 
ATOM     18  C   UNL     1      -2.415 -10.501  13.494  0.00  0.00    +0.052 A 
ATOM     19  C   UNL     1      -1.248 -10.116  15.574  0.00  0.00    +0.002 A 
ATOM     20  C   UNL     1      -1.351  -9.934  14.196  0.00  0.00    +0.019 A 
BRANCH  18  23
ATOM      4  N   UNL     1      -2.605 -10.160  10.935  0.00  0.00    -0.191 NA
ATOM     23  C   UNL     1      -2.519 -10.313  12.082  0.00  0.00    +0.099 C 
ENDBRANCH  18  23
ENDBRANCH   9  11
ENDBRANCH   2   9
TORSDOF 4
ENDMDL
MODEL 5
REMARK VINA RESULT:      -6.5     22.572     25.253
REMARK  Name = 51137057
REMARK  4 active torsions:
REMARK  status: ('A' for Active; 'I' for Inactive)
REMARK    1  A    between atoms: N_2  and  C_9
REMARK    2  A    between atoms: C_5  and  C_10
REMARK    3  A    between atoms: C_9  and  C_11
REMARK    4  A    between atoms: C_18  and  C_23
REMARK                            x       y       z     vdW  Elec       q    Type
REMARK                         _______ _______ _______ _____ _____    ______ ____
ROOT
ATOM      2  N   UNL     1      -2.192 -11.129  13.442  0.00  0.00    -0.297 NA
ATOM      5  C   UNL     1      -3.018 -10.333  15.487  0.00  0.00    +0.090 C 
ATOM      6  C   UNL     1      -1.644 -10.992  15.707  0.00  0.00    +0.029 C 
ATOM      7  C   UNL     1      -3.463 -10.817  14.100  0.00  0.00    +0.097 C 
ATOM      8  C   UNL     1      -1.403 -11.826  14.457  0.00  0.00    +0.085 C 
ENDROOT
BRANCH   5  10
ATOM      1  O   UNL     1      -5.266 -10.055  16.387  0.00  0.00    -0.439 OA
ATOM      3  N   UNL     1      -3.895 -11.338  17.656  0.00  0.00    -0.213 NA
ATOM     10  C   UNL     1      -4.038 -10.617  16.566  0.00  0.00    +0.201 A 
ATOM     12  C   UNL     1      -5.970 -10.467  17.482  0.00  0.00    +0.155 A 
ATOM     13  C   UNL     1      -5.127 -11.251  18.256  0.00  0.00    +0.110 A 
ATOM     16  C   UNL     1      -7.290 -10.174  17.798  0.00  0.00    +0.048 A 
ATOM     17  C   UNL     1      -5.619 -11.801  19.449  0.00  0.00    +0.031 A 
ATOM     21  C   UNL     1      -7.765 -10.729  18.991  0.00  0.00    +0.004 A 
ATOM     22  C   UNL     1      -6.948 -11.527  19.801  0.00  0.00    +0.002 A 
ENDBRANCH   5  10
BRANCH   2   9
ATOM      9  C   UNL     1      -2.373 -11.925  12.236  0.00  0.00    +0.119 C 
BRANCH   9  11
ATOM     11  C   UNL     1      -3.023 -11.133  11.133  0.00  0.00    -0.032 A 
ATOM     14  C   UNL     1      -3.976 -11.735  10.310  0.00  0.00    +0.023 A 
ATOM     15  C   UNL     1      -2.672  -9.798  10.934  0.00  0.00    +0.005 A 
ATOM     18  C   UNL     1      -4.578 -10.999   9.288  0.00  0.00    +0.052 A 
ATOM     19  C   UNL     1      -3.275  -9.063   9.913  0.00  0.00    +0.002 A 
ATOM     20  C   UNL     1      -4.227  -9.664   9.090  0.00  0.00    +0.019 A 
BRANCH  18  23
ATOM      4  N   UNL     1      -6.348 -12.113   7.762  0.00  0.00    -0.191 NA
ATOM     23  C   UNL     1      -5.554 -11.613   8.446  0.00  0.00    +0.099 C 
ENDBRANCH  18  23
ENDBRANCH   9  11
ENDBRANCH   2   9
TORSDOF 4
ENDMDL
MODEL 6
REMARK VINA RESULT:      -6.5     15.547     19.555
REMARK  Name = 51137057
REMARK  4 active torsions:
REMARK  status: ('A' for Active; 'I' for Inactive)
REMARK    1  A    between atoms: N_2  and  C_9
REMARK    2  A    between atoms: C_5  and  C_10
REMARK    3  A    between atoms: C_9  and  C_11
REMARK    4  A    between atoms: C_18  and  C_23
REMARK                            x       y       z     vdW  Elec       q    Type
REMARK                         _______ _______ _______ _____ _____    ______ ____
ROOT
ATOM      2  N   UNL     1      15.848   7.704  20.511  0.00  0.00    -0.297 NA
ATOM      5  C   UNL     1      18.039   6.961  20.131  0.00  0.00    +0.090 C 
ATOM      6  C   UNL     1      17.044   5.992  19.467  0.00  0.00    +0.029 C 
ATOM      7  C   UNL     1      17.186   7.790  21.100  0.00  0.00    +0.097 C 
ATOM      8  C   UNL     1      15.701   6.305  20.112  0.00  0.00    +0.085 C 
ENDROOT
BRANCH   5  10
ATOM      1  O   UNL     1      19.629   5.118  20.259  0.00  0.00    -0.439 OA
ATOM      3  N   UNL     1      19.900   6.709  21.849  0.00  0.00    -0.213 NA
ATOM     10  C   UNL     1      19.218   6.297  20.804  0.00  0.00    +0.201 A 
ATOM     12  C   UNL     1      20.683   4.750  21.046  0.00  0.00    +0.155 A 
ATOM     13  C   UNL     1      20.845   5.727  22.018  0.00  0.00    +0.110 A 
ATOM     16  C   UNL     1      21.472   3.614  20.926  0.00  0.00    +0.048 A 
ATOM     17  C   UNL     1      21.874   5.580  22.960  0.00  0.00    +0.031 A 
ATOM     21  C   UNL     1      22.492   3.482  21.874  0.00  0.00    +0.004 A 
ATOM     22  C   UNL     1      22.691   4.445  22.871  0.00  0.00    +0.002 A 
ENDBRANCH   5  10
BRANCH   2   9
ATOM      9  C   UNL     1      14.806   8.130  21.434  0.00  0.00    +0.119 C 
BRANCH   9  11
ATOM     11  C   UNL     1      13.474   8.275  20.749  0.00  0.00    -0.032 A 
ATOM     14  C   UNL     1      13.417   8.484  19.370  0.00  0.00    +0.023 A 
ATOM     15  C   UNL     1      12.296   8.201  21.492  0.00  0.00    +0.005 A 
ATOM     18  C   UNL     1      12.181   8.618  18.736  0.00  0.00    +0.052 A 
ATOM     19  C   UNL     1      11.061   8.335  20.857  0.00  0.00    +0.002 A 
ATOM     20  C   UNL     1      11.004   8.543  19.480  0.00  0.00    +0.019 A 
BRANCH  18  23
ATOM      4  N   UNL     1      12.073   9.002  16.178  0.00  0.00    -0.191 NA
ATOM     23  C   UNL     1      12.122   8.830  17.325  0.00  0.00    +0.099 C 
ENDBRANCH  18  23
ENDBRANCH   9  11
ENDBRANCH   2   9
TORSDOF 4
ENDMDL
MODEL 7
REMARK VINA RESULT:      -6.4     22.935     26.150
REMARK  Name = 51137057
REMARK  4 active torsions:
REMARK  status: ('A' for Active; 'I' for Inactive)
REMARK    1  A    between atoms: N_2  and  C_9
REMARK    2  A    between atoms: C_5  and  C_10
REMARK    3  A    between atoms: C_9  and  C_11
REMARK    4  A    between atoms: C_18  and  C_23
REMARK                            x       y       z     vdW  Elec       q    Type
REMARK                         _______ _______ _______ _____ _____    ______ ____
ROOT
ATOM      2  N   UNL     1      -4.178 -10.675  14.638  0.00  0.00    -0.297 NA
ATOM      5  C   UNL     1      -5.421  -9.787  16.417  0.00  0.00    +0.090 C 
ATOM      6  C   UNL     1      -4.232 -10.592  16.970  0.00  0.00    +0.029 C 
ATOM      7  C   UNL     1      -5.536 -10.223  14.950  0.00  0.00    +0.097 C 
ATOM      8  C   UNL     1      -3.762 -11.452  15.804  0.00  0.00    +0.085 C 
ENDROOT
BRANCH   5  10
ATOM      1  O   UNL     1      -7.746  -9.158  16.790  0.00  0.00    -0.439 OA
ATOM      3  N   UNL     1      -6.969 -10.769  18.183  0.00  0.00    -0.213 NA
ATOM     10  C   UNL     1      -6.713  -9.954  17.184  0.00  0.00    +0.201 A 
ATOM     12  C   UNL     1      -8.761  -9.511  17.633  0.00  0.00    +0.155 A 
ATOM     13  C   UNL     1      -8.281 -10.497  18.484  0.00  0.00    +0.110 A 
ATOM     16  C   UNL     1     -10.052  -8.999  17.664  0.00  0.00    +0.048 A 
ATOM     17  C   UNL     1      -9.142 -11.032  19.454  0.00  0.00    +0.031 A 
ATOM     21  C   UNL     1     -10.896  -9.543  18.637  0.00  0.00    +0.004 A 
ATOM     22  C   UNL     1     -10.453 -10.540  19.515  0.00  0.00    +0.002 A 
ENDBRANCH   5  10
BRANCH   2   9
ATOM      9  C   UNL     1      -4.121 -11.449  13.406  0.00  0.00    +0.119 C 
BRANCH   9  11
ATOM     11  C   UNL     1      -3.854 -10.579  12.207  0.00  0.00    -0.032 A 
ATOM     14  C   UNL     1      -4.919 -10.059  11.471  0.00  0.00    +0.023 A 
ATOM     15  C   UNL     1      -2.541 -10.291  11.834  0.00  0.00    +0.005 A 
ATOM     18  C   UNL     1      -4.670  -9.252  10.360  0.00  0.00    +0.052 A 
ATOM     19  C   UNL     1      -2.293  -9.483  10.723  0.00  0.00    +0.002 A 
ATOM     20  C   UNL     1      -3.357  -8.964   9.987  0.00  0.00    +0.019 A 
BRANCH  18  23
ATOM      4  N   UNL     1      -6.644  -8.285   8.993  0.00  0.00    -0.191 NA
ATOM     23  C   UNL     1      -5.759  -8.718   9.606  0.00  0.00    +0.099 C 
ENDBRANCH  18  23
ENDBRANCH   9  11
ENDBRANCH   2   9
TORSDOF 4
ENDMDL
MODEL 8
REMARK VINA RESULT:      -6.4     26.104     28.699
REMARK  Name = 51137057
REMARK  4 active torsions:
REMARK  status: ('A' for Active; 'I' for Inactive)
REMARK    1  A    between atoms: N_2  and  C_9
REMARK    2  A    between atoms: C_5  and  C_10
REMARK    3  A    between atoms: C_9  and  C_11
REMARK    4  A    between atoms: C_18  and  C_23
REMARK                            x       y       z     vdW  Elec       q    Type
REMARK                         _______ _______ _______ _____ _____    ______ ____
ROOT
ATOM      2  N   UNL     1      -9.404  -8.778  16.521  0.00  0.00    -0.297 NA
ATOM      5  C   UNL     1     -11.111  -7.172  16.449  0.00  0.00    +0.090 C 
ATOM      6  C   UNL     1     -11.655  -8.476  17.060  0.00  0.00    +0.029 C 
ATOM      7  C   UNL     1      -9.794  -7.580  15.775  0.00  0.00    +0.097 C 
ATOM      8  C   UNL     1     -10.640  -9.544  16.678  0.00  0.00    +0.085 C 
ENDROOT
BRANCH   5  10
ATOM      1  O   UNL     1     -11.502  -5.539  14.682  0.00  0.00    -0.439 OA
ATOM      3  N   UNL     1     -13.359  -6.634  15.383  0.00  0.00    -0.213 NA
ATOM     10  C   UNL     1     -12.062  -6.467  15.508  0.00  0.00    +0.201 A 
ATOM     12  C   UNL     1     -12.564  -5.072  13.960  0.00  0.00    +0.155 A 
ATOM     13  C   UNL     1     -13.697  -5.745  14.392  0.00  0.00    +0.110 A 
ATOM     16  C   UNL     1     -12.549  -4.102  12.966  0.00  0.00    +0.048 A 
ATOM     17  C   UNL     1     -14.932  -5.442  13.798  0.00  0.00    +0.031 A 
ATOM     21  C   UNL     1     -13.787  -3.812  12.385  0.00  0.00    +0.004 A 
ATOM     22  C   UNL     1     -14.956  -4.467  12.791  0.00  0.00    +0.002 A 
ENDBRANCH   5  10
BRANCH   2   9
ATOM      9  C   UNL     1      -8.362  -9.538  15.845  0.00  0.00    +0.119 C 
BRANCH   9  11
ATOM     11  C   UNL     1      -7.245  -9.914  16.782  0.00  0.00    -0.032 A 
ATOM     14  C   UNL     1      -5.954 -10.104  16.288  0.00  0.00    +0.023 A 
ATOM     15  C   UNL     1      -7.501 -10.074  18.144  0.00  0.00    +0.005 A 
ATOM     18  C   UNL     1      -4.920 -10.453  17.157  0.00  0.00    +0.052 A 
ATOM     19  C   UNL     1      -6.466 -10.422  19.012  0.00  0.00    +0.002 A 
ATOM     20  C   UNL     1      -5.176 -10.611  18.518  0.00  0.00    +0.019 A 
BRANCH  18  23
ATOM      4  N   UNL     1      -2.523 -10.802  16.242  0.00  0.00    -0.191 NA
ATOM     23  C   UNL     1      -3.597 -10.646  16.652  0.00  0.00    +0.099 C 
ENDBRANCH  18  23
ENDBRANCH   9  11
ENDBRANCH   2   9
TORSDOF 4
ENDMDL
MODEL 9
REMARK VINA RESULT:      -6.3     17.710     20.507
REMARK  Name = 51137057
REMARK  4 active torsions:
REMARK  status: ('A' for Active; 'I' for Inactive)
REMARK    1  A    between atoms: N_2  and  C_9
REMARK    2  A    between atoms: C_5  and  C_10
REMARK    3  A    between atoms: C_9  and  C_11
REMARK    4  A    between atoms: C_18  and  C_23
REMARK                            x       y       z     vdW  Elec       q    Type
REMARK                         _______ _______ _______ _____ _____    ______ ____
ROOT
ATOM      2  N   UNL     1      17.479   7.620  20.701  0.00  0.00    -0.297 NA
ATOM      5  C   UNL     1      19.539   6.523  20.477  0.00  0.00    +0.090 C 
ATOM      6  C   UNL     1      18.463   5.766  19.679  0.00  0.00    +0.029 C 
ATOM      7  C   UNL     1      18.750   7.451  21.410  0.00  0.00    +0.097 C 
ATOM      8  C   UNL     1      17.136   6.283  20.218  0.00  0.00    +0.085 C 
ENDROOT
BRANCH   5  10
ATOM      1  O   UNL     1      21.078   4.632  20.489  0.00  0.00    -0.439 OA
ATOM      3  N   UNL     1      20.903   5.718  22.470  0.00  0.00    -0.213 NA
ATOM     10  C   UNL     1      20.519   5.640  21.216  0.00  0.00    +0.201 A 
ATOM     12  C   UNL     1      21.902   4.011  21.383  0.00  0.00    +0.155 A 
ATOM     13  C   UNL     1      21.792   4.679  22.594  0.00  0.00    +0.110 A 
ATOM     16  C   UNL     1      22.716   2.909  21.158  0.00  0.00    +0.048 A 
ATOM     17  C   UNL     1      22.548   4.228  23.687  0.00  0.00    +0.031 A 
ATOM     21  C   UNL     1      23.463   2.473  22.257  0.00  0.00    +0.004 A 
ATOM     22  C   UNL     1      23.382   3.118  23.498  0.00  0.00    +0.002 A 
ENDBRANCH   5  10
BRANCH   2   9
ATOM      9  C   UNL     1      16.441   8.186  21.551  0.00  0.00    +0.119 C 
BRANCH   9  11
ATOM     11  C   UNL     1      15.103   8.209  20.862  0.00  0.00    -0.032 A 
ATOM     14  C   UNL     1      14.084   7.356  21.288  0.00  0.00    +0.023 A 
ATOM     15  C   UNL     1      14.882   9.084  19.797  0.00  0.00    +0.005 A 
ATOM     18  C   UNL     1      12.844   7.379  20.648  0.00  0.00    +0.052 A 
ATOM     19  C   UNL     1      13.641   9.106  19.159  0.00  0.00    +0.002 A 
ATOM     20  C   UNL     1      12.623   8.254  19.585  0.00  0.00    +0.019 A 
BRANCH  18  23
ATOM      4  N   UNL     1      10.951   5.799  21.439  0.00  0.00    -0.191 NA
ATOM     23  C   UNL     1      11.800   6.507  21.084  0.00  0.00    +0.099 C 
ENDBRANCH  18  23
ENDBRANCH   9  11
ENDBRANCH   2   9
TORSDOF 4
ENDMDL
MODEL 10
REMARK VINA RESULT:      -6.2     13.406     15.258
REMARK  Name = 51137057
REMARK  4 active torsions:
REMARK  status: ('A' for Active; 'I' for Inactive)
REMARK    1  A    between atoms: N_2  and  C_9
REMARK    2  A    between atoms: C_5  and  C_10
REMARK    3  A    between atoms: C_9  and  C_11
REMARK    4  A    between atoms: C_18  and  C_23
REMARK                            x       y       z     vdW  Elec       q    Type
REMARK                         _______ _______ _______ _____ _____    ______ ____
ROOT
ATOM      2  N   UNL     1       2.132   4.370  -6.032  0.00  0.00    -0.297 NA
ATOM      5  C   UNL     1       1.174   2.687  -7.352  0.00  0.00    +0.090 C 
ATOM      6  C   UNL     1       0.933   4.057  -8.010  0.00  0.00    +0.029 C 
ATOM      7  C   UNL     1       1.591   3.015  -5.912  0.00  0.00    +0.097 C 
ATOM      8  C   UNL     1       1.197   5.074  -6.908  0.00  0.00    +0.085 C 
ENDROOT
BRANCH   5  10
ATOM      1  O   UNL     1       0.127   0.581  -6.707  0.00  0.00    -0.439 OA
ATOM      3  N   UNL     1      -1.123   1.872  -8.088  0.00  0.00    -0.213 NA
ATOM     10  C   UNL     1       0.002   1.733  -7.424  0.00  0.00    +0.201 A 
ATOM     12  C   UNL     1      -1.046  -0.074  -6.948  0.00  0.00    +0.155 A 
ATOM     13  C   UNL     1      -1.808   0.719  -7.793  0.00  0.00    +0.110 A 
ATOM     16  C   UNL     1      -1.440  -1.311  -6.453  0.00  0.00    +0.048 A 
ATOM     17  C   UNL     1      -3.073   0.262  -8.193  0.00  0.00    +0.031 A 
ATOM     21  C   UNL     1      -2.703  -1.752  -6.862  0.00  0.00    +0.004 A 
ATOM     22  C   UNL     1      -3.505  -0.983  -7.715  0.00  0.00    +0.002 A 
ENDBRANCH   5  10
BRANCH   2   9
ATOM      9  C   UNL     1       2.281   5.024  -4.739  0.00  0.00    +0.119 C 
BRANCH   9  11
ATOM     11  C   UNL     1       3.660   5.599  -4.557  0.00  0.00    -0.032 A 
ATOM     14  C   UNL     1       3.898   6.535  -3.550  0.00  0.00    +0.023 A 
ATOM     15  C   UNL     1       4.700   5.196  -5.395  0.00  0.00    +0.005 A 
ATOM     18  C   UNL     1       5.177   7.068  -3.381  0.00  0.00    +0.052 A 
ATOM     19  C   UNL     1       5.978   5.728  -5.225  0.00  0.00    +0.002 A 
ATOM     20  C   UNL     1       6.217   6.664  -4.219  0.00  0.00    +0.019 A 
BRANCH  18  23
ATOM      4  N   UNL     1       5.621   8.803  -1.512  0.00  0.00    -0.191 NA
ATOM     23  C   UNL     1       5.422   8.025  -2.350  0.00  0.00    +0.099 C 
ENDBRANCH  18  23
ENDBRANCH   9  11
ENDBRANCH   2   9
TORSDOF 4
ENDMDL
