MODEL 1
REMARK VINA RESULT:      -6.9      0.000      0.000
REMARK  Name = 28961540
REMARK  10 active torsions:
REMARK  status: ('A' for Active; 'I' for Inactive)
REMARK    1  A    between atoms: O_2  and  C_10
REMARK    2  A    between atoms: O_3  and  C_17
REMARK    3  A    between atoms: N_5  and  C_8
REMARK    4  A    between atoms: N_6  and  C_16
REMARK    5  A    between atoms: N_7  and  C_24
REMARK    6  A    between atoms: N_7  and  C_25
REMARK    7  A    between atoms: N_7  and  C_26
REMARK    8  A    between atoms: C_9  and  C_16
REMARK    9  A    between atoms: C_11  and  C_17
REMARK   10  A    between atoms: C_18  and  C_19
REMARK                            x       y       z     vdW  Elec       q    Type
REMARK                         _______ _______ _______ _____ _____    ______ ____
ROOT
ATOM      1  O   UNL     1      10.576   7.703  20.305  0.00  0.00    -0.365 OA
ATOM      8  C   UNL     1      12.132   9.258  21.215  0.00  0.00    +0.118 C 
ATOM      9  C   UNL     1      11.451   8.789  19.923  0.00  0.00    +0.155 C 
ATOM     10  C   UNL     1      12.095   8.016  22.092  0.00  0.00    +0.165 C 
ATOM     11  C   UNL     1      10.735   7.443  21.713  0.00  0.00    +0.174 C 
ENDROOT
BRANCH   8   5
ATOM      5  N   UNL     1      13.443   9.874  21.064  0.00  0.00    -0.295 NA
ATOM     12  C   UNL     1      14.136  10.032  22.342  0.00  0.00    +0.085 C 
ATOM     13  C   UNL     1      13.365  11.222  20.504  0.00  0.00    +0.085 C 
ATOM     14  C   UNL     1      15.252  11.010  22.005  0.00  0.00    +0.017 C 
ATOM     15  C   UNL     1      14.744  11.794  20.798  0.00  0.00    +0.017 C 
ENDBRANCH   8   5
BRANCH  10   2
ATOM      2  O   UNL     1      13.130   7.104  21.748  0.00  0.00    -0.388 OA
ATOM     27  H   UNL     1      12.872   6.227  22.080  0.00  0.00    +0.210 HD
ENDBRANCH  10   2
BRANCH   9  16
ATOM     16  C   UNL     1      12.364   8.266  18.819  0.00  0.00    +0.137 C 
BRANCH  16   6
ATOM      4  O   UNL     1      14.627   7.341  17.314  0.00  0.00    -0.270 OA
ATOM      6  N   UNL     1      13.650   7.910  19.340  0.00  0.00    -0.309 N 
ATOM     18  C   UNL     1      14.697   7.470  18.533  0.00  0.00    +0.244 C 
ATOM     28  H   UNL     1      13.752   7.927  20.349  0.00  0.00    +0.149 HD
BRANCH  18  19
ATOM     19  C   UNL     1      15.961   7.117  19.229  0.00  0.00    +0.037 A 
ATOM     20  C   UNL     1      16.387   7.866  20.325  0.00  0.00    +0.015 A 
ATOM     21  C   UNL     1      16.722   6.035  18.785  0.00  0.00    +0.015 A 
ATOM     22  C   UNL     1      17.575   7.535  20.978  0.00  0.00    +0.024 A 
ATOM     23  C   UNL     1      17.910   5.704  19.437  0.00  0.00    +0.024 A 
ATOM     24  C   UNL     1      18.336   6.453  20.533  0.00  0.00    +0.029 A 
BRANCH  24   7
ATOM      7  N   UNL     1      19.537   6.118  21.193  0.00  0.00    -0.336 N 
ATOM     25  C   UNL     1      20.463   5.177  20.596  0.00  0.00    +0.129 C 
ATOM     26  C   UNL     1      19.862   6.715  22.473  0.00  0.00    +0.129 C 
ENDBRANCH  24   7
ENDBRANCH  18  19
ENDBRANCH  16   6
ENDBRANCH   9  16
BRANCH  11  17
ATOM     17  C   UNL     1      10.557   5.959  21.972  0.00  0.00    +0.190 C 
BRANCH  17   3
ATOM      3  O   UNL     1      11.034   5.237  20.847  0.00  0.00    -0.392 OA
ATOM     29  H   UNL     1      11.411   5.886  20.229  0.00  0.00    +0.210 HD
ENDBRANCH  17   3
ENDBRANCH  11  17
TORSDOF 8
ENDMDL
MODEL 2
REMARK VINA RESULT:      -6.9      2.130      3.628
REMARK  Name = 28961540
REMARK  10 active torsions:
REMARK  status: ('A' for Active; 'I' for Inactive)
REMARK    1  A    between atoms: O_2  and  C_10
REMARK    2  A    between atoms: O_3  and  C_17
REMARK    3  A    between atoms: N_5  and  C_8
REMARK    4  A    between atoms: N_6  and  C_16
REMARK    5  A    between atoms: N_7  and  C_24
REMARK    6  A    between atoms: N_7  and  C_25
REMARK    7  A    between atoms: N_7  and  C_26
REMARK    8  A    between atoms: C_9  and  C_16
REMARK    9  A    between atoms: C_11  and  C_17
REMARK   10  A    between atoms: C_18  and  C_19
REMARK                            x       y       z     vdW  Elec       q    Type
REMARK                         _______ _______ _______ _____ _____    ______ ____
ROOT
ATOM      1  O   UNL     1      12.523   7.005  21.439  0.00  0.00    -0.365 OA
ATOM      8  C   UNL     1      12.352   7.656  19.155  0.00  0.00    +0.118 C 
ATOM      9  C   UNL     1      13.322   7.194  20.250  0.00  0.00    +0.155 C 
ATOM     10  C   UNL     1      11.230   8.311  19.947  0.00  0.00    +0.165 C 
ATOM     11  C   UNL     1      11.162   7.387  21.156  0.00  0.00    +0.174 C 
ENDROOT
BRANCH   8   5
ATOM      5  N   UNL     1      12.922   8.473  18.094  0.00  0.00    -0.295 NA
ATOM     12  C   UNL     1      11.914   8.929  17.138  0.00  0.00    +0.085 C 
ATOM     13  C   UNL     1      13.903   7.742  17.292  0.00  0.00    +0.085 C 
ATOM     14  C   UNL     1      12.752   9.403  15.959  0.00  0.00    +0.017 C 
ATOM     15  C   UNL     1      14.058   8.620  16.059  0.00  0.00    +0.017 C 
ENDBRANCH   8   5
BRANCH  10   2
ATOM      2  O   UNL     1      11.577   9.629  20.350  0.00  0.00    -0.388 OA
ATOM     27  H   UNL     1      10.753  10.141  20.423  0.00  0.00    +0.210 HD
ENDBRANCH  10   2
BRANCH   9  16
ATOM     16  C   UNL     1      14.451   8.152  20.613  0.00  0.00    +0.137 C 
BRANCH  16   6
ATOM      4  O   UNL     1      16.905   9.137  21.733  0.00  0.00    -0.270 OA
ATOM      6  N   UNL     1      15.714   7.477  20.633  0.00  0.00    -0.309 N 
ATOM     18  C   UNL     1      16.859   8.031  21.201  0.00  0.00    +0.244 C 
ATOM     28  H   UNL     1      15.761   6.587  20.147  0.00  0.00    +0.149 HD
BRANCH  18  19
ATOM     19  C   UNL     1      18.097   7.214  21.118  0.00  0.00    +0.037 A 
ATOM     20  C   UNL     1      18.182   6.167  20.200  0.00  0.00    +0.015 A 
ATOM     21  C   UNL     1      19.174   7.492  21.959  0.00  0.00    +0.015 A 
ATOM     22  C   UNL     1      19.344   5.399  20.123  0.00  0.00    +0.024 A 
ATOM     23  C   UNL     1      20.336   6.724  21.883  0.00  0.00    +0.024 A 
ATOM     24  C   UNL     1      20.421   5.677  20.964  0.00  0.00    +0.029 A 
BRANCH  24   7
ATOM      7  N   UNL     1      21.596   4.902  20.887  0.00  0.00    -0.336 N 
ATOM     25  C   UNL     1      22.862   5.519  20.549  0.00  0.00    +0.129 C 
ATOM     26  C   UNL     1      21.553   3.477  21.151  0.00  0.00    +0.129 C 
ENDBRANCH  24   7
ENDBRANCH  18  19
ENDBRANCH  16   6
ENDBRANCH   9  16
BRANCH  11  17
ATOM     17  C   UNL     1      10.541   7.988  22.403  0.00  0.00    +0.190 C 
BRANCH  17   3
ATOM      3  O   UNL     1      11.495   8.831  23.030  0.00  0.00    -0.392 OA
ATOM     29  H   UNL     1      11.001   9.462  23.582  0.00  0.00    +0.210 HD
ENDBRANCH  17   3
ENDBRANCH  11  17
TORSDOF 8
ENDMDL
MODEL 3
REMARK VINA RESULT:      -6.7      2.207      4.070
REMARK  Name = 28961540
REMARK  10 active torsions:
REMARK  status: ('A' for Active; 'I' for Inactive)
REMARK    1  A    between atoms: O_2  and  C_10
REMARK    2  A    between atoms: O_3  and  C_17
REMARK    3  A    between atoms: N_5  and  C_8
REMARK    4  A    between atoms: N_6  and  C_16
REMARK    5  A    between atoms: N_7  and  C_24
REMARK    6  A    between atoms: N_7  and  C_25
REMARK    7  A    between atoms: N_7  and  C_26
REMARK    8  A    between atoms: C_9  and  C_16
REMARK    9  A    between atoms: C_11  and  C_17
REMARK   10  A    between atoms: C_18  and  C_19
REMARK                            x       y       z     vdW  Elec       q    Type
REMARK                         _______ _______ _______ _____ _____    ______ ____
ROOT
ATOM      1  O   UNL     1      14.614   9.474  17.461  0.00  0.00    -0.365 OA
ATOM      8  C   UNL     1      12.914   9.175  19.101  0.00  0.00    +0.118 C 
ATOM      9  C   UNL     1      14.396   8.935  18.785  0.00  0.00    +0.155 C 
ATOM     10  C   UNL     1      12.274   9.229  17.722  0.00  0.00    +0.165 C 
ATOM     11  C   UNL     1      13.360   9.953  16.936  0.00  0.00    +0.174 C 
ENDROOT
BRANCH   8   5
ATOM      5  N   UNL     1      12.297   8.244  20.036  0.00  0.00    -0.295 NA
ATOM     12  C   UNL     1      10.855   8.452  20.160  0.00  0.00    +0.085 C 
ATOM     13  C   UNL     1      12.820   8.387  21.393  0.00  0.00    +0.085 C 
ATOM     14  C   UNL     1      10.508   7.676  21.422  0.00  0.00    +0.017 C 
ATOM     15  C   UNL     1      11.799   7.637  22.234  0.00  0.00    +0.017 C 
ENDBRANCH   8   5
BRANCH  10   2
ATOM      2  O   UNL     1      12.064   7.926  17.193  0.00  0.00    -0.388 OA
ATOM     27  H   UNL     1      11.135   7.690  17.354  0.00  0.00    +0.210 HD
ENDBRANCH  10   2
BRANCH   9  16
ATOM     16  C   UNL     1      14.866   7.485  18.765  0.00  0.00    +0.137 C 
BRANCH  16   6
ATOM      4  O   UNL     1      16.836   5.422  18.435  0.00  0.00    -0.270 OA
ATOM      6  N   UNL     1      16.070   7.323  19.524  0.00  0.00    -0.309 N 
ATOM     18  C   UNL     1      16.974   6.288  19.295  0.00  0.00    +0.244 C 
ATOM     28  H   UNL     1      16.210   7.965  20.296  0.00  0.00    +0.149 HD
BRANCH  18  19
ATOM     19  C   UNL     1      18.163   6.244  20.184  0.00  0.00    +0.037 A 
ATOM     20  C   UNL     1      18.241   7.093  21.287  0.00  0.00    +0.015 A 
ATOM     21  C   UNL     1      19.203   5.354  19.915  0.00  0.00    +0.015 A 
ATOM     22  C   UNL     1      19.357   7.053  22.123  0.00  0.00    +0.024 A 
ATOM     23  C   UNL     1      20.320   5.313  20.749  0.00  0.00    +0.024 A 
ATOM     24  C   UNL     1      20.397   6.162  21.853  0.00  0.00    +0.029 A 
BRANCH  24   7
ATOM      7  N   UNL     1      21.526   6.120  22.697  0.00  0.00    -0.336 N 
ATOM     25  C   UNL     1      21.437   6.581  24.068  0.00  0.00    +0.129 C 
ATOM     26  C   UNL     1      22.791   5.609  22.205  0.00  0.00    +0.129 C 
ENDBRANCH  24   7
ENDBRANCH  18  19
ENDBRANCH  16   6
ENDBRANCH   9  16
BRANCH  11  17
ATOM     17  C   UNL     1      13.332   9.738  15.434  0.00  0.00    +0.190 C 
BRANCH  17   3
ATOM      3  O   UNL     1      13.872   8.459  15.143  0.00  0.00    -0.392 OA
ATOM     29  H   UNL     1      13.135   7.896  14.850  0.00  0.00    +0.210 HD
ENDBRANCH  17   3
ENDBRANCH  11  17
TORSDOF 8
ENDMDL
MODEL 4
REMARK VINA RESULT:      -6.4      2.810      7.854
REMARK  Name = 28961540
REMARK  10 active torsions:
REMARK  status: ('A' for Active; 'I' for Inactive)
REMARK    1  A    between atoms: O_2  and  C_10
REMARK    2  A    between atoms: O_3  and  C_17
REMARK    3  A    between atoms: N_5  and  C_8
REMARK    4  A    between atoms: N_6  and  C_16
REMARK    5  A    between atoms: N_7  and  C_24
REMARK    6  A    between atoms: N_7  and  C_25
REMARK    7  A    between atoms: N_7  and  C_26
REMARK    8  A    between atoms: C_9  and  C_16
REMARK    9  A    between atoms: C_11  and  C_17
REMARK   10  A    between atoms: C_18  and  C_19
REMARK                            x       y       z     vdW  Elec       q    Type
REMARK                         _______ _______ _______ _____ _____    ______ ____
ROOT
ATOM      1  O   UNL     1      19.804   7.874  20.744  0.00  0.00    -0.365 OA
ATOM      8  C   UNL     1      21.294   6.296  21.720  0.00  0.00    +0.118 C 
ATOM      9  C   UNL     1      20.388   6.572  20.514  0.00  0.00    +0.155 C 
ATOM     10  C   UNL     1      20.666   7.137  22.821  0.00  0.00    +0.165 C 
ATOM     11  C   UNL     1      20.238   8.365  22.028  0.00  0.00    +0.174 C 
ENDROOT
BRANCH   8   5
ATOM      5  N   UNL     1      21.510   4.895  22.055  0.00  0.00    -0.295 NA
ATOM     12  C   UNL     1      22.303   4.728  23.272  0.00  0.00    +0.085 C 
ATOM     13  C   UNL     1      22.251   4.181  21.017  0.00  0.00    +0.085 C 
ATOM     14  C   UNL     1      22.720   3.266  23.207  0.00  0.00    +0.017 C 
ATOM     15  C   UNL     1      22.690   2.907  21.725  0.00  0.00    +0.017 C 
ENDBRANCH   8   5
BRANCH  10   2
ATOM      2  O   UNL     1      19.532   6.492  23.387  0.00  0.00    -0.388 OA
ATOM     27  H   UNL     1      19.515   6.706  24.335  0.00  0.00    +0.210 HD
ENDBRANCH  10   2
BRANCH   9  16
ATOM     16  C   UNL     1      19.238   5.597  20.284  0.00  0.00    +0.137 C 
BRANCH  16   6
ATOM      4  O   UNL     1      17.003   5.449  18.488  0.00  0.00    -0.270 OA
ATOM      6  N   UNL     1      17.972   6.247  20.440  0.00  0.00    -0.309 N 
ATOM     18  C   UNL     1      16.938   6.120  19.516  0.00  0.00    +0.244 C 
ATOM     28  H   UNL     1      17.876   6.873  21.233  0.00  0.00    +0.149 HD
BRANCH  18  19
ATOM     19  C   UNL     1      15.695   6.878  19.809  0.00  0.00    +0.037 A 
ATOM     20  C   UNL     1      15.141   6.842  21.087  0.00  0.00    +0.015 A 
ATOM     21  C   UNL     1      15.080   7.626  18.803  0.00  0.00    +0.015 A 
ATOM     22  C   UNL     1      13.972   7.553  21.363  0.00  0.00    +0.024 A 
ATOM     23  C   UNL     1      13.912   8.336  19.078  0.00  0.00    +0.024 A 
ATOM     24  C   UNL     1      13.358   8.301  20.358  0.00  0.00    +0.029 A 
BRANCH  24   7
ATOM      7  N   UNL     1      12.178   9.021  20.635  0.00  0.00    -0.336 N 
ATOM     25  C   UNL     1      10.891   8.354  20.621  0.00  0.00    +0.129 C 
ATOM     26  C   UNL     1      12.237  10.436  20.944  0.00  0.00    +0.129 C 
ENDBRANCH  24   7
ENDBRANCH  18  19
ENDBRANCH  16   6
ENDBRANCH   9  16
BRANCH  11  17
ATOM     17  C   UNL     1      19.128   9.190  22.651  0.00  0.00    +0.190 C 
BRANCH  17   3
ATOM      3  O   UNL     1      17.877   8.666  22.233  0.00  0.00    -0.392 OA
ATOM     29  H   UNL     1      17.343   8.526  23.033  0.00  0.00    +0.210 HD
ENDBRANCH  17   3
ENDBRANCH  11  17
TORSDOF 8
ENDMDL
MODEL 5
REMARK VINA RESULT:      -6.2      2.273      4.369
REMARK  Name = 28961540
REMARK  10 active torsions:
REMARK  status: ('A' for Active; 'I' for Inactive)
REMARK    1  A    between atoms: O_2  and  C_10
REMARK    2  A    between atoms: O_3  and  C_17
REMARK    3  A    between atoms: N_5  and  C_8
REMARK    4  A    between atoms: N_6  and  C_16
REMARK    5  A    between atoms: N_7  and  C_24
REMARK    6  A    between atoms: N_7  and  C_25
REMARK    7  A    between atoms: N_7  and  C_26
REMARK    8  A    between atoms: C_9  and  C_16
REMARK    9  A    between atoms: C_11  and  C_17
REMARK   10  A    between atoms: C_18  and  C_19
REMARK                            x       y       z     vdW  Elec       q    Type
REMARK                         _______ _______ _______ _____ _____    ______ ____
ROOT
ATOM      1  O   UNL     1      16.039   8.245  19.531  0.00  0.00    -0.365 OA
ATOM      8  C   UNL     1      13.763   8.084  20.213  0.00  0.00    +0.118 C 
ATOM      9  C   UNL     1      15.030   8.945  20.294  0.00  0.00    +0.155 C 
ATOM     10  C   UNL     1      14.314   6.686  19.975  0.00  0.00    +0.165 C 
ATOM     11  C   UNL     1      15.490   6.999  19.059  0.00  0.00    +0.174 C 
ENDROOT
BRANCH   8   5
ATOM      5  N   UNL     1      12.831   8.204  21.325  0.00  0.00    -0.295 NA
ATOM     12  C   UNL     1      11.755   7.216  21.260  0.00  0.00    +0.085 C 
ATOM     13  C   UNL     1      12.156   9.501  21.350  0.00  0.00    +0.085 C 
ATOM     14  C   UNL     1      10.734   7.761  22.248  0.00  0.00    +0.017 C 
ATOM     15  C   UNL     1      10.995   9.263  22.305  0.00  0.00    +0.017 C 
ENDBRANCH   8   5
BRANCH  10   2
ATOM      2  O   UNL     1      14.771   6.094  21.184  0.00  0.00    -0.388 OA
ATOM     27  H   UNL     1      15.735   6.215  21.224  0.00  0.00    +0.210 HD
ENDBRANCH  10   2
BRANCH   9  16
ATOM     16  C   UNL     1      15.605   9.187  21.686  0.00  0.00    +0.137 C 
BRANCH  16   6
ATOM      4  O   UNL     1      18.362   9.920  21.366  0.00  0.00    -0.270 OA
ATOM      6  N   UNL     1      16.745   8.353  21.924  0.00  0.00    -0.309 N 
ATOM     18  C   UNL     1      18.054   8.793  21.743  0.00  0.00    +0.244 C 
ATOM     28  H   UNL     1      16.558   7.387  22.171  0.00  0.00    +0.149 HD
BRANCH  18  19
ATOM     19  C   UNL     1      19.125   7.799  22.009  0.00  0.00    +0.037 A 
ATOM     20  C   UNL     1      19.352   6.760  21.107  0.00  0.00    +0.015 A 
ATOM     21  C   UNL     1      19.904   7.903  23.162  0.00  0.00    +0.015 A 
ATOM     22  C   UNL     1      20.358   5.825  21.356  0.00  0.00    +0.024 A 
ATOM     23  C   UNL     1      20.908   6.969  23.412  0.00  0.00    +0.024 A 
ATOM     24  C   UNL     1      21.136   5.930  22.509  0.00  0.00    +0.029 A 
BRANCH  24   7
ATOM      7  N   UNL     1      22.152   4.987  22.763  0.00  0.00    -0.336 N 
ATOM     25  C   UNL     1      22.451   3.951  21.794  0.00  0.00    +0.129 C 
ATOM     26  C   UNL     1      22.918   5.045  23.993  0.00  0.00    +0.129 C 
ENDBRANCH  24   7
ENDBRANCH  18  19
ENDBRANCH  16   6
ENDBRANCH   9  16
BRANCH  11  17
ATOM     17  C   UNL     1      16.587   5.951  19.023  0.00  0.00    +0.190 C 
BRANCH  17   3
ATOM      3  O   UNL     1      16.651   5.397  17.718  0.00  0.00    -0.392 OA
ATOM     29  H   UNL     1      15.735   5.256  17.422  0.00  0.00    +0.210 HD
ENDBRANCH  17   3
ENDBRANCH  11  17
TORSDOF 8
ENDMDL
MODEL 6
REMARK VINA RESULT:      -6.1      2.075      3.698
REMARK  Name = 28961540
REMARK  10 active torsions:
REMARK  status: ('A' for Active; 'I' for Inactive)
REMARK    1  A    between atoms: O_2  and  C_10
REMARK    2  A    between atoms: O_3  and  C_17
REMARK    3  A    between atoms: N_5  and  C_8
REMARK    4  A    between atoms: N_6  and  C_16
REMARK    5  A    between atoms: N_7  and  C_24
REMARK    6  A    between atoms: N_7  and  C_25
REMARK    7  A    between atoms: N_7  and  C_26
REMARK    8  A    between atoms: C_9  and  C_16
REMARK    9  A    between atoms: C_11  and  C_17
REMARK   10  A    between atoms: C_18  and  C_19
REMARK                            x       y       z     vdW  Elec       q    Type
REMARK                         _______ _______ _______ _____ _____    ______ ____
ROOT
ATOM      1  O   UNL     1      13.488   8.471  21.296  0.00  0.00    -0.365 OA
ATOM      8  C   UNL     1      13.005   9.426  19.170  0.00  0.00    +0.118 C 
ATOM      9  C   UNL     1      12.998   8.125  19.981  0.00  0.00    +0.155 C 
ATOM     10  C   UNL     1      14.085  10.251  19.854  0.00  0.00    +0.165 C 
ATOM     11  C   UNL     1      13.853   9.865  21.310  0.00  0.00    +0.174 C 
ENDROOT
BRANCH   8   5
ATOM      5  N   UNL     1      13.152   9.285  17.728  0.00  0.00    -0.295 NA
ATOM     12  C   UNL     1      13.637  10.510  17.094  0.00  0.00    +0.085 C 
ATOM     13  C   UNL     1      11.883   8.990  17.064  0.00  0.00    +0.085 C 
ATOM     14  C   UNL     1      13.345  10.268  15.620  0.00  0.00    +0.017 C 
ATOM     15  C   UNL     1      12.190   9.271  15.601  0.00  0.00    +0.017 C 
ENDBRANCH   8   5
BRANCH  10   2
ATOM      2  O   UNL     1      15.385   9.855  19.438  0.00  0.00    -0.388 OA
ATOM     27  H   UNL     1      15.357   8.901  19.251  0.00  0.00    +0.210 HD
ENDBRANCH  10   2
BRANCH   9  16
ATOM     16  C   UNL     1      13.871   6.988  19.459  0.00  0.00    +0.137 C 
BRANCH  16   6
ATOM      4  O   UNL     1      16.287   5.886  18.367  0.00  0.00    -0.270 OA
ATOM      6  N   UNL     1      15.172   7.022  20.056  0.00  0.00    -0.309 N 
ATOM     18  C   UNL     1      16.295   6.461  19.453  0.00  0.00    +0.244 C 
ATOM     28  H   UNL     1      15.235   7.421  20.987  0.00  0.00    +0.149 HD
BRANCH  18  19
ATOM     19  C   UNL     1      17.568   6.557  20.213  0.00  0.00    +0.037 A 
ATOM     20  C   UNL     1      17.713   7.518  21.212  0.00  0.00    +0.015 A 
ATOM     21  C   UNL     1      18.620   5.687  19.924  0.00  0.00    +0.015 A 
ATOM     22  C   UNL     1      18.909   7.610  21.925  0.00  0.00    +0.024 A 
ATOM     23  C   UNL     1      19.816   5.779  20.636  0.00  0.00    +0.024 A 
ATOM     24  C   UNL     1      19.961   6.740  21.637  0.00  0.00    +0.029 A 
BRANCH  24   7
ATOM      7  N   UNL     1      21.169   6.832  22.356  0.00  0.00    -0.336 N 
ATOM     25  C   UNL     1      21.163   6.842  23.805  0.00  0.00    +0.129 C 
ATOM     26  C   UNL     1      22.436   6.910  21.656  0.00  0.00    +0.129 C 
ENDBRANCH  24   7
ENDBRANCH  18  19
ENDBRANCH  16   6
ENDBRANCH   9  16
BRANCH  11  17
ATOM     17  C   UNL     1      15.040  10.063  22.235  0.00  0.00    +0.190 C 
BRANCH  17   3
ATOM      3  O   UNL     1      14.597   9.958  23.579  0.00  0.00    -0.392 OA
ATOM     29  H   UNL     1      14.155  10.795  23.801  0.00  0.00    +0.210 HD
ENDBRANCH  17   3
ENDBRANCH  11  17
TORSDOF 8
ENDMDL
MODEL 7
REMARK VINA RESULT:      -6.0      3.702      4.943
REMARK  Name = 28961540
REMARK  10 active torsions:
REMARK  status: ('A' for Active; 'I' for Inactive)
REMARK    1  A    between atoms: O_2  and  C_10
REMARK    2  A    between atoms: O_3  and  C_17
REMARK    3  A    between atoms: N_5  and  C_8
REMARK    4  A    between atoms: N_6  and  C_16
REMARK    5  A    between atoms: N_7  and  C_24
REMARK    6  A    between atoms: N_7  and  C_25
REMARK    7  A    between atoms: N_7  and  C_26
REMARK    8  A    between atoms: C_9  and  C_16
REMARK    9  A    between atoms: C_11  and  C_17
REMARK   10  A    between atoms: C_18  and  C_19
REMARK                            x       y       z     vdW  Elec       q    Type
REMARK                         _______ _______ _______ _____ _____    ______ ____
ROOT
ATOM      1  O   UNL     1      11.130   7.742  20.206  0.00  0.00    -0.365 OA
ATOM      8  C   UNL     1      13.142   8.771  20.957  0.00  0.00    +0.118 C 
ATOM      9  C   UNL     1      12.166   8.656  19.779  0.00  0.00    +0.155 C 
ATOM     10  C   UNL     1      12.952   7.452  21.689  0.00  0.00    +0.165 C 
ATOM     11  C   UNL     1      11.451   7.250  21.522  0.00  0.00    +0.174 C 
ENDROOT
BRANCH   8   5
ATOM      5  N   UNL     1      14.519   9.103  20.621  0.00  0.00    -0.295 NA
ATOM     12  C   UNL     1      15.464   8.672  21.650  0.00  0.00    +0.085 C 
ATOM     13  C   UNL     1      14.731  10.543  20.489  0.00  0.00    +0.085 C 
ATOM     14  C   UNL     1      16.728   9.440  21.294  0.00  0.00    +0.017 C 
ATOM     15  C   UNL     1      16.246  10.672  20.533  0.00  0.00    +0.017 C 
ENDBRANCH   8   5
BRANCH  10   2
ATOM      2  O   UNL     1      13.667   6.397  21.057  0.00  0.00    -0.388 OA
ATOM     27  H   UNL     1      14.189   5.944  21.741  0.00  0.00    +0.210 HD
ENDBRANCH  10   2
BRANCH   9  16
ATOM     16  C   UNL     1      12.733   8.115  18.471  0.00  0.00    +0.137 C 
BRANCH  16   6
ATOM      4  O   UNL     1      12.882   8.776  15.680  0.00  0.00    -0.270 OA
ATOM      6  N   UNL     1      13.618   9.063  17.862  0.00  0.00    -0.309 N 
ATOM     18  C   UNL     1      13.622   9.323  16.494  0.00  0.00    +0.244 C 
ATOM     28  H   UNL     1      14.304   9.499  18.469  0.00  0.00    +0.149 HD
BRANCH  18  19
ATOM     19  C   UNL     1      14.618  10.315  16.015  0.00  0.00    +0.037 A 
ATOM     20  C   UNL     1      15.037  11.345  16.856  0.00  0.00    +0.015 A 
ATOM     21  C   UNL     1      15.134  10.218  14.722  0.00  0.00    +0.015 A 
ATOM     22  C   UNL     1      15.971  12.278  16.407  0.00  0.00    +0.024 A 
ATOM     23  C   UNL     1      16.068  11.150  14.272  0.00  0.00    +0.024 A 
ATOM     24  C   UNL     1      16.487  12.181  15.114  0.00  0.00    +0.029 A 
BRANCH  24   7
ATOM      7  N   UNL     1      17.432  13.123  14.658  0.00  0.00    -0.336 N 
ATOM     25  C   UNL     1      17.138  14.541  14.707  0.00  0.00    +0.129 C 
ATOM     26  C   UNL     1      18.714  12.685  14.141  0.00  0.00    +0.129 C 
ENDBRANCH  24   7
ENDBRANCH  18  19
ENDBRANCH  16   6
ENDBRANCH   9  16
BRANCH  11  17
ATOM     17  C   UNL     1      10.966   5.818  21.653  0.00  0.00    +0.190 C 
BRANCH  17   3
ATOM      3  O   UNL     1      11.212   5.137  20.432  0.00  0.00    -0.392 OA
ATOM     29  H   UNL     1      11.571   4.262  20.660  0.00  0.00    +0.210 HD
ENDBRANCH  17   3
ENDBRANCH  11  17
TORSDOF 8
ENDMDL
MODEL 8
REMARK VINA RESULT:      -6.0     14.572     16.702
REMARK  Name = 28961540
REMARK  10 active torsions:
REMARK  status: ('A' for Active; 'I' for Inactive)
REMARK    1  A    between atoms: O_2  and  C_10
REMARK    2  A    between atoms: O_3  and  C_17
REMARK    3  A    between atoms: N_5  and  C_8
REMARK    4  A    between atoms: N_6  and  C_16
REMARK    5  A    between atoms: N_7  and  C_24
REMARK    6  A    between atoms: N_7  and  C_25
REMARK    7  A    between atoms: N_7  and  C_26
REMARK    8  A    between atoms: C_9  and  C_16
REMARK    9  A    between atoms: C_11  and  C_17
REMARK   10  A    between atoms: C_18  and  C_19
REMARK                            x       y       z     vdW  Elec       q    Type
REMARK                         _______ _______ _______ _____ _____    ______ ____
ROOT
ATOM      1  O   UNL     1       8.734   6.621   8.655  0.00  0.00    -0.365 OA
ATOM      8  C   UNL     1      10.664   7.269   7.422  0.00  0.00    +0.118 C 
ATOM      9  C   UNL     1       9.151   7.473   7.565  0.00  0.00    +0.155 C 
ATOM     10  C   UNL     1      10.876   5.871   7.982  0.00  0.00    +0.165 C 
ATOM     11  C   UNL     1       9.871   5.871   9.128  0.00  0.00    +0.174 C 
ENDROOT
BRANCH   8   5
ATOM      5  N   UNL     1      11.222   7.499   6.097  0.00  0.00    -0.295 NA
ATOM     12  C   UNL     1      12.572   6.953   5.957  0.00  0.00    +0.085 C 
ATOM     13  C   UNL     1      11.352   8.921   5.784  0.00  0.00    +0.085 C 
ATOM     14  C   UNL     1      13.081   7.628   4.692  0.00  0.00    +0.017 C 
ATOM     15  C   UNL     1      12.282   8.922   4.580  0.00  0.00    +0.017 C 
ENDBRANCH   8   5
BRANCH  10   2
ATOM      2  O   UNL     1      10.540   4.871   7.029  0.00  0.00    -0.388 OA
ATOM     27  H   UNL     1      10.981   4.048   7.298  0.00  0.00    +0.210 HD
ENDBRANCH  10   2
BRANCH   9  16
ATOM     16  C   UNL     1       8.294   7.111   6.356  0.00  0.00    +0.137 C 
BRANCH  16   6
ATOM      4  O   UNL     1       8.303   7.697   3.545  0.00  0.00    -0.270 OA
ATOM      6  N   UNL     1       9.075   6.458   5.349  0.00  0.00    -0.309 N 
ATOM     18  C   UNL     1       9.017   6.808   4.002  0.00  0.00    +0.244 C 
ATOM     28  H   UNL     1       9.635   5.667   5.650  0.00  0.00    +0.149 HD
BRANCH  18  19
ATOM     19  C   UNL     1       9.871   6.017   3.079  0.00  0.00    +0.037 A 
ATOM     20  C   UNL     1      10.533   4.881   3.542  0.00  0.00    +0.015 A 
ATOM     21  C   UNL     1      10.011   6.413   1.748  0.00  0.00    +0.015 A 
ATOM     22  C   UNL     1      11.335   4.138   2.675  0.00  0.00    +0.024 A 
ATOM     23  C   UNL     1      10.814   5.672   0.882  0.00  0.00    +0.024 A 
ATOM     24  C   UNL     1      11.476   4.534   1.344  0.00  0.00    +0.029 A 
BRANCH  24   7
ATOM      7  N   UNL     1      12.286   3.784   0.467  0.00  0.00    -0.336 N 
ATOM     25  C   UNL     1      13.530   3.203   0.932  0.00  0.00    +0.129 C 
ATOM     26  C   UNL     1      11.882   3.579  -0.910  0.00  0.00    +0.129 C 
ENDBRANCH  24   7
ENDBRANCH  18  19
ENDBRANCH  16   6
ENDBRANCH   9  16
BRANCH  11  17
ATOM     17  C   UNL     1       9.410   4.502   9.593  0.00  0.00    +0.190 C 
BRANCH  17   3
ATOM      3  O   UNL     1       9.792   4.326  10.948  0.00  0.00    -0.392 OA
ATOM     29  H   UNL     1      10.680   4.711  11.048  0.00  0.00    +0.210 HD
ENDBRANCH  17   3
ENDBRANCH  11  17
TORSDOF 8
ENDMDL
MODEL 9
REMARK VINA RESULT:      -6.0      4.602      9.276
REMARK  Name = 28961540
REMARK  10 active torsions:
REMARK  status: ('A' for Active; 'I' for Inactive)
REMARK    1  A    between atoms: O_2  and  C_10
REMARK    2  A    between atoms: O_3  and  C_17
REMARK    3  A    between atoms: N_5  and  C_8
REMARK    4  A    between atoms: N_6  and  C_16
REMARK    5  A    between atoms: N_7  and  C_24
REMARK    6  A    between atoms: N_7  and  C_25
REMARK    7  A    between atoms: N_7  and  C_26
REMARK    8  A    between atoms: C_9  and  C_16
REMARK    9  A    between atoms: C_11  and  C_17
REMARK   10  A    between atoms: C_18  and  C_19
REMARK                            x       y       z     vdW  Elec       q    Type
REMARK                         _______ _______ _______ _____ _____    ______ ____
ROOT
ATOM      1  O   UNL     1      22.379   2.802  21.134  0.00  0.00    -0.365 OA
ATOM      8  C   UNL     1      22.777   4.448  22.806  0.00  0.00    +0.118 C 
ATOM      9  C   UNL     1      21.819   4.012  21.691  0.00  0.00    +0.155 C 
ATOM     10  C   UNL     1      24.104   3.845  22.373  0.00  0.00    +0.165 C 
ATOM     11  C   UNL     1      23.634   2.521  21.785  0.00  0.00    +0.174 C 
ENDROOT
BRANCH   8   5
ATOM      5  N   UNL     1      22.810   5.873  23.106  0.00  0.00    -0.295 NA
ATOM     12  C   UNL     1      23.954   6.242  23.939  0.00  0.00    +0.085 C 
ATOM     13  C   UNL     1      21.635   6.314  23.855  0.00  0.00    +0.085 C 
ATOM     14  C   UNL     1      23.581   7.632  24.432  0.00  0.00    +0.017 C 
ATOM     15  C   UNL     1      22.057   7.678  24.380  0.00  0.00    +0.017 C 
ENDBRANCH   8   5
BRANCH  10   2
ATOM      2  O   UNL     1      24.734   4.635  21.372  0.00  0.00    -0.388 OA
ATOM     27  H   UNL     1      24.699   5.562  21.665  0.00  0.00    +0.210 HD
ENDBRANCH  10   2
BRANCH   9  16
ATOM     16  C   UNL     1      21.621   4.990  20.537  0.00  0.00    +0.137 C 
BRANCH  16   6
ATOM      4  O   UNL     1      20.349   7.531  20.953  0.00  0.00    -0.270 OA
ATOM      6  N   UNL     1      20.234   5.293  20.350  0.00  0.00    -0.309 N 
ATOM     18  C   UNL     1      19.699   6.559  20.576  0.00  0.00    +0.244 C 
ATOM     28  H   UNL     1      19.628   4.516  20.107  0.00  0.00    +0.149 HD
BRANCH  18  19
ATOM     19  C   UNL     1      18.237   6.704  20.361  0.00  0.00    +0.037 A 
ATOM     20  C   UNL     1      17.617   6.036  19.306  0.00  0.00    +0.015 A 
ATOM     21  C   UNL     1      17.483   7.511  21.214  0.00  0.00    +0.015 A 
ATOM     22  C   UNL     1      16.243   6.172  19.103  0.00  0.00    +0.024 A 
ATOM     23  C   UNL     1      16.110   7.649  21.011  0.00  0.00    +0.024 A 
ATOM     24  C   UNL     1      15.490   6.980  19.956  0.00  0.00    +0.029 A 
BRANCH  24   7
ATOM      7  N   UNL     1      14.102   7.119  19.753  0.00  0.00    -0.336 N 
ATOM     25  C   UNL     1      13.587   7.552  18.469  0.00  0.00    +0.129 C 
ATOM     26  C   UNL     1      13.170   6.823  20.823  0.00  0.00    +0.129 C 
ENDBRANCH  24   7
ENDBRANCH  18  19
ENDBRANCH  16   6
ENDBRANCH   9  16
BRANCH  11  17
ATOM     17  C   UNL     1      24.580   1.874  20.790  0.00  0.00    +0.190 C 
BRANCH  17   3
ATOM      3  O   UNL     1      24.355   2.440  19.508  0.00  0.00    -0.392 OA
ATOM     29  H   UNL     1      24.370   3.407  19.615  0.00  0.00    +0.210 HD
ENDBRANCH  17   3
ENDBRANCH  11  17
TORSDOF 8
ENDMDL
MODEL 10
REMARK VINA RESULT:      -5.9      4.001      9.154
REMARK  Name = 28961540
REMARK  10 active torsions:
REMARK  status: ('A' for Active; 'I' for Inactive)
REMARK    1  A    between atoms: O_2  and  C_10
REMARK    2  A    between atoms: O_3  and  C_17
REMARK    3  A    between atoms: N_5  and  C_8
REMARK    4  A    between atoms: N_6  and  C_16
REMARK    5  A    between atoms: N_7  and  C_24
REMARK    6  A    between atoms: N_7  and  C_25
REMARK    7  A    between atoms: N_7  and  C_26
REMARK    8  A    between atoms: C_9  and  C_16
REMARK    9  A    between atoms: C_11  and  C_17
REMARK   10  A    between atoms: C_18  and  C_19
REMARK                            x       y       z     vdW  Elec       q    Type
REMARK                         _______ _______ _______ _____ _____    ______ ____
ROOT
ATOM      1  O   UNL     1      21.862   7.141  22.161  0.00  0.00    -0.365 OA
ATOM      8  C   UNL     1      23.489   5.424  21.895  0.00  0.00    +0.118 C 
ATOM      9  C   UNL     1      22.533   6.361  21.146  0.00  0.00    +0.155 C 
ATOM     10  C   UNL     1      22.830   5.281  23.258  0.00  0.00    +0.165 C 
ATOM     11  C   UNL     1      22.293   6.692  23.461  0.00  0.00    +0.174 C 
ENDROOT
BRANCH   8   5
ATOM      5  N   UNL     1      23.816   4.171  21.228  0.00  0.00    -0.295 NA
ATOM     12  C   UNL     1      24.690   3.321  22.034  0.00  0.00    +0.085 C 
ATOM     13  C   UNL     1      24.537   4.378  19.973  0.00  0.00    +0.085 C 
ATOM     14  C   UNL     1      25.197   2.301  21.025  0.00  0.00    +0.017 C 
ATOM     15  C   UNL     1      25.100   2.997  19.671  0.00  0.00    +0.017 C 
ENDBRANCH   8   5
BRANCH  10   2
ATOM      2  O   UNL     1      21.762   4.343  23.224  0.00  0.00    -0.388 OA
ATOM     27  H   UNL     1      21.436   4.236  24.135  0.00  0.00    +0.210 HD
ENDBRANCH  10   2
BRANCH   9  16
ATOM     16  C   UNL     1      21.453   5.700  20.296  0.00  0.00    +0.137 C 
BRANCH  16   6
ATOM      4  O   UNL     1      18.862   4.665  19.617  0.00  0.00    -0.270 OA
ATOM      6  N   UNL     1      20.197   6.372  20.446  0.00  0.00    -0.309 N 
ATOM     18  C   UNL     1      18.982   5.792  20.090  0.00  0.00    +0.244 C 
ATOM     28  H   UNL     1      20.232   7.334  20.766  0.00  0.00    +0.149 HD
BRANCH  18  19
ATOM     19  C   UNL     1      17.770   6.629  20.284  0.00  0.00    +0.037 A 
ATOM     20  C   UNL     1      16.635   6.404  19.506  0.00  0.00    +0.015 A 
ATOM     21  C   UNL     1      17.769   7.643  21.243  0.00  0.00    +0.015 A 
ATOM     22  C   UNL     1      15.497   7.191  19.687  0.00  0.00    +0.024 A 
ATOM     23  C   UNL     1      16.632   8.430  21.423  0.00  0.00    +0.024 A 
ATOM     24  C   UNL     1      15.496   8.204  20.646  0.00  0.00    +0.029 A 
BRANCH  24   7
ATOM      7  N   UNL     1      14.347   9.000  20.830  0.00  0.00    -0.336 N 
ATOM     25  C   UNL     1      13.346   8.629  21.810  0.00  0.00    +0.129 C 
ATOM     26  C   UNL     1      14.155  10.204  20.045  0.00  0.00    +0.129 C 
ENDBRANCH  24   7
ENDBRANCH  18  19
ENDBRANCH  16   6
ENDBRANCH   9  16
BRANCH  11  17
ATOM     17  C   UNL     1      21.141   6.817  24.441  0.00  0.00    +0.190 C 
BRANCH  17   3
ATOM      3  O   UNL     1      19.929   6.522  23.765  0.00  0.00    -0.392 OA
ATOM     29  H   UNL     1      19.398   5.964  24.359  0.00  0.00    +0.210 HD
ENDBRANCH  17   3
ENDBRANCH  11  17
TORSDOF 8
ENDMDL
