MODEL 1
REMARK VINA RESULT:      -6.9      0.000      0.000
REMARK  Name = 11912964
REMARK  4 active torsions:
REMARK  status: ('A' for Active; 'I' for Inactive)
REMARK    1  A    between atoms: N_5  and  C_11
REMARK    2  A    between atoms: N_6  and  C_12
REMARK    3  A    between atoms: C_13  and  C_18
REMARK    4  A    between atoms: C_20  and  C_23
REMARK                            x       y       z     vdW  Elec       q    Type
REMARK                         _______ _______ _______ _____ _____    ______ ____
ROOT
ATOM      1  O   UNL     1      13.391   8.647  21.364  0.00  0.00    -0.370 OA
ATOM      2  O   UNL     1      10.358   8.006  21.321  0.00  0.00    -0.370 OA
ATOM      9  C   UNL     1      11.203   8.780  20.450  0.00  0.00    +0.171 C 
ATOM     10  C   UNL     1      12.222   9.484  21.323  0.00  0.00    +0.171 C 
ATOM     11  C   UNL     1      12.032   7.864  19.575  0.00  0.00    +0.130 C 
ATOM     12  C   UNL     1      11.569   9.532  22.684  0.00  0.00    +0.130 C 
ATOM     14  C   UNL     1      13.192   7.519  20.497  0.00  0.00    +0.185 C 
ATOM     15  C   UNL     1      10.711   8.280  22.686  0.00  0.00    +0.185 C 
ENDROOT
BRANCH  12   6
ATOM      6  N   UNL     1      10.736  10.710  22.793  0.00  0.00    -0.306 N 
ATOM      7  N   UNL     1      12.090  11.649  24.464  0.00  0.00    -0.211 NA
ATOM      8  N   UNL     1      10.130  12.801  23.667  0.00  0.00    -0.223 NA
ATOM     19  C   UNL     1      10.993  11.751  23.667  0.00  0.00    +0.216 A 
ATOM     20  C   UNL     1      12.311  12.681  25.304  0.00  0.00    +0.111 A 
ATOM     21  C   UNL     1      10.411  13.799  24.531  0.00  0.00    +0.116 A 
ATOM     22  C   UNL     1      11.497  13.793  25.381  0.00  0.00    +0.051 A 
ATOM     28  H   UNL     1       9.946  10.821  22.168  0.00  0.00    +0.149 HD
BRANCH  20  23
ATOM      4  O   UNL     1      14.177  11.393  25.965  0.00  0.00    -0.461 OA
ATOM     23  C   UNL     1      13.478  12.544  26.134  0.00  0.00    +0.153 A 
ATOM     24  C   UNL     1      14.066  13.335  27.090  0.00  0.00    +0.051 A 
ATOM     25  C   UNL     1      15.204  12.623  27.541  0.00  0.00    +0.042 A 
ATOM     26  C   UNL     1      15.227  11.448  26.826  0.00  0.00    +0.196 A 
ENDBRANCH  20  23
ENDBRANCH  12   6
BRANCH  11   5
ATOM      3  O   UNL     1      10.841   7.984  16.917  0.00  0.00    -0.276 OA
ATOM      5  N   UNL     1      12.529   8.584  18.405  0.00  0.00    -0.307 N 
ATOM     18  C   UNL     1      11.885   8.578  17.178  0.00  0.00    +0.216 C 
ATOM     27  H   UNL     1      13.402   9.096  18.499  0.00  0.00    +0.149 HD
BRANCH  18  13
ATOM     13  C   UNL     1      12.596   9.420  16.152  0.00  0.00    +0.075 C 
ATOM     16  C   UNL     1      14.022   9.119  15.871  0.00  0.00    +0.013 C 
ATOM     17  C   UNL     1      13.642  10.359  16.628  0.00  0.00    +0.013 C 
ENDBRANCH  18  13
ENDBRANCH  11   5
TORSDOF 4
ENDMDL
MODEL 2
REMARK VINA RESULT:      -6.4      6.317      8.463
REMARK  Name = 11912964
REMARK  4 active torsions:
REMARK  status: ('A' for Active; 'I' for Inactive)
REMARK    1  A    between atoms: N_5  and  C_11
REMARK    2  A    between atoms: N_6  and  C_12
REMARK    3  A    between atoms: C_13  and  C_18
REMARK    4  A    between atoms: C_20  and  C_23
REMARK                            x       y       z     vdW  Elec       q    Type
REMARK                         _______ _______ _______ _____ _____    ______ ____
ROOT
ATOM      1  O   UNL     1      15.683   8.821  19.533  0.00  0.00    -0.370 OA
ATOM      2  O   UNL     1      16.086   5.747  19.483  0.00  0.00    -0.370 OA
ATOM      9  C   UNL     1      15.253   6.608  20.280  0.00  0.00    +0.171 C 
ATOM     10  C   UNL     1      16.044   7.871  20.552  0.00  0.00    +0.171 C 
ATOM     11  C   UNL     1      14.063   7.080  19.472  0.00  0.00    +0.130 C 
ATOM     12  C   UNL     1      17.483   7.447  20.382  0.00  0.00    +0.130 C 
ATOM     14  C   UNL     1      14.653   8.256  18.708  0.00  0.00    +0.185 C 
ATOM     15  C   UNL     1      17.385   6.344  19.344  0.00  0.00    +0.185 C 
ENDROOT
BRANCH  12   6
ATOM      6  N   UNL     1      17.995   6.919  21.628  0.00  0.00    -0.306 N 
ATOM      7  N   UNL     1      20.183   7.624  21.157  0.00  0.00    -0.211 NA
ATOM      8  N   UNL     1      19.670   6.470  23.209  0.00  0.00    -0.223 NA
ATOM     19  C   UNL     1      19.322   7.008  22.009  0.00  0.00    +0.216 A 
ATOM     20  C   UNL     1      21.469   7.693  21.560  0.00  0.00    +0.111 A 
ATOM     21  C   UNL     1      20.971   6.574  23.550  0.00  0.00    +0.116 A 
ATOM     22  C   UNL     1      21.924   7.180  22.758  0.00  0.00    +0.051 A 
ATOM     28  H   UNL     1      17.354   6.505  22.294  0.00  0.00    +0.149 HD
BRANCH  20  23
ATOM      4  O   UNL     1      23.533   7.713  20.412  0.00  0.00    -0.461 OA
ATOM     23  C   UNL     1      22.356   8.350  20.638  0.00  0.00    +0.153 A 
ATOM     24  C   UNL     1      22.283   9.512  19.909  0.00  0.00    +0.051 A 
ATOM     25  C   UNL     1      23.497   9.597  19.186  0.00  0.00    +0.042 A 
ATOM     26  C   UNL     1      24.223   8.479  19.527  0.00  0.00    +0.196 A 
ENDBRANCH  20  23
ENDBRANCH  12   6
BRANCH  11   5
ATOM      3  O   UNL     1      11.393   7.978  18.724  0.00  0.00    -0.276 OA
ATOM      5  N   UNL     1      12.998   7.550  20.355  0.00  0.00    -0.307 N 
ATOM     18  C   UNL     1      11.755   7.957  19.898  0.00  0.00    +0.216 C 
ATOM     27  H   UNL     1      13.193   7.595  21.352  0.00  0.00    +0.149 HD
BRANCH  18  13
ATOM     13  C   UNL     1      10.837   8.368  21.019  0.00  0.00    +0.075 C 
ATOM     16  C   UNL     1      11.421   8.530  22.373  0.00  0.00    +0.013 C 
ATOM     17  C   UNL     1      10.527   7.364  22.067  0.00  0.00    +0.013 C 
ENDBRANCH  18  13
ENDBRANCH  11   5
TORSDOF 4
ENDMDL
MODEL 3
REMARK VINA RESULT:      -6.3     28.606     30.496
REMARK  Name = 11912964
REMARK  4 active torsions:
REMARK  status: ('A' for Active; 'I' for Inactive)
REMARK    1  A    between atoms: N_5  and  C_11
REMARK    2  A    between atoms: N_6  and  C_12
REMARK    3  A    between atoms: C_13  and  C_18
REMARK    4  A    between atoms: C_20  and  C_23
REMARK                            x       y       z     vdW  Elec       q    Type
REMARK                         _______ _______ _______ _____ _____    ______ ____
ROOT
ATOM      1  O   UNL     1     -12.233  -7.890  14.419  0.00  0.00    -0.370 OA
ATOM      2  O   UNL     1     -11.024  -6.350  16.823  0.00  0.00    -0.370 OA
ATOM      9  C   UNL     1     -10.901  -6.185  15.399  0.00  0.00    +0.171 C 
ATOM     10  C   UNL     1     -10.879  -7.572  14.787  0.00  0.00    +0.171 C 
ATOM     11  C   UNL     1     -12.153  -5.549  14.834  0.00  0.00    +0.130 C 
ATOM     12  C   UNL     1     -10.424  -8.464  15.917  0.00  0.00    +0.130 C 
ATOM     14  C   UNL     1     -13.071  -6.753  14.678  0.00  0.00    +0.185 C 
ATOM     15  C   UNL     1     -10.960  -7.749  17.144  0.00  0.00    +0.185 C 
ENDROOT
BRANCH  12   6
ATOM      6  N   UNL     1      -8.979  -8.515  15.957  0.00  0.00    -0.306 N 
ATOM      7  N   UNL     1      -8.972 -10.191  17.600  0.00  0.00    -0.211 NA
ATOM      8  N   UNL     1      -6.908  -9.311  16.721  0.00  0.00    -0.223 NA
ATOM     19  C   UNL     1      -8.265  -9.365  16.784  0.00  0.00    +0.216 A 
ATOM     20  C   UNL     1      -8.245 -11.007  18.391  0.00  0.00    +0.111 A 
ATOM     21  C   UNL     1      -6.243 -10.153  17.539  0.00  0.00    +0.116 A 
ATOM     22  C   UNL     1      -6.865 -11.031  18.404  0.00  0.00    +0.051 A 
ATOM     28  H   UNL     1      -8.442  -7.941  15.317  0.00  0.00    +0.149 HD
BRANCH  20  23
ATOM      4  O   UNL     1      -8.387 -12.996  19.657  0.00  0.00    -0.461 OA
ATOM     23  C   UNL     1      -9.020 -11.868  19.243  0.00  0.00    +0.153 A 
ATOM     24  C   UNL     1     -10.295 -11.811  19.749  0.00  0.00    +0.051 A 
ATOM     25  C   UNL     1     -10.459 -12.982  20.528  0.00  0.00    +0.042 A 
ATOM     26  C   UNL     1      -9.271 -13.670  20.439  0.00  0.00    +0.196 A 
ENDBRANCH  20  23
ENDBRANCH  12   6
BRANCH  11   5
ATOM      3  O   UNL     1     -13.756  -3.583  13.399  0.00  0.00    -0.276 OA
ATOM      5  N   UNL     1     -11.884  -4.961  13.525  0.00  0.00    -0.307 N 
ATOM     18  C   UNL     1     -12.714  -4.027  12.925  0.00  0.00    +0.216 C 
ATOM     27  H   UNL     1     -11.054  -5.272  13.027  0.00  0.00    +0.149 HD
BRANCH  18  13
ATOM     13  C   UNL     1     -12.190  -3.566  11.590  0.00  0.00    +0.075 C 
ATOM     16  C   UNL     1     -13.080  -3.696  10.410  0.00  0.00    +0.013 C 
ATOM     17  C   UNL     1     -11.891  -4.599  10.567  0.00  0.00    +0.013 C 
ENDBRANCH  18  13
ENDBRANCH  11   5
TORSDOF 4
ENDMDL
MODEL 4
REMARK VINA RESULT:      -6.3     27.059     29.272
REMARK  Name = 11912964
REMARK  4 active torsions:
REMARK  status: ('A' for Active; 'I' for Inactive)
REMARK    1  A    between atoms: N_5  and  C_11
REMARK    2  A    between atoms: N_6  and  C_12
REMARK    3  A    between atoms: C_13  and  C_18
REMARK    4  A    between atoms: C_20  and  C_23
REMARK                            x       y       z     vdW  Elec       q    Type
REMARK                         _______ _______ _______ _____ _____    ______ ____
ROOT
ATOM      1  O   UNL     1      -6.225 -11.249   9.956  0.00  0.00    -0.370 OA
ATOM      2  O   UNL     1      -4.404  -8.740   9.892  0.00  0.00    -0.370 OA
ATOM      9  C   UNL     1      -4.288 -10.043   9.294  0.00  0.00    +0.171 C 
ATOM     10  C   UNL     1      -4.840 -11.044  10.289  0.00  0.00    +0.171 C 
ATOM     11  C   UNL     1      -5.212 -10.157   8.101  0.00  0.00    +0.130 C 
ATOM     12  C   UNL     1      -4.724 -10.340  11.620  0.00  0.00    +0.130 C 
ATOM     14  C   UNL     1      -6.535 -10.511   8.764  0.00  0.00    +0.185 C 
ATOM     15  C   UNL     1      -4.881  -8.879  11.240  0.00  0.00    +0.185 C 
ENDROOT
BRANCH  12   6
ATOM      6  N   UNL     1      -3.414 -10.572  12.190  0.00  0.00    -0.306 N 
ATOM      7  N   UNL     1      -4.231 -10.471  14.389  0.00  0.00    -0.211 NA
ATOM      8  N   UNL     1      -1.893 -10.862  13.953  0.00  0.00    -0.223 NA
ATOM     19  C   UNL     1      -3.173 -10.637  13.551  0.00  0.00    +0.216 A 
ATOM     20  C   UNL     1      -3.959 -10.542  15.708  0.00  0.00    +0.111 A 
ATOM     21  C   UNL     1      -1.693 -10.921  15.287  0.00  0.00    +0.116 A 
ATOM     22  C   UNL     1      -2.698 -10.766  16.220  0.00  0.00    +0.051 A 
ATOM     28  H   UNL     1      -2.628 -10.749  11.577  0.00  0.00    +0.149 HD
BRANCH  20  23
ATOM      4  O   UNL     1      -6.136  -9.679  16.020  0.00  0.00    -0.461 OA
ATOM     23  C   UNL     1      -5.098 -10.361  16.568  0.00  0.00    +0.153 A 
ATOM     24  C   UNL     1      -5.387 -10.732  17.858  0.00  0.00    +0.051 A 
ATOM     25  C   UNL     1      -6.690 -10.246  18.123  0.00  0.00    +0.042 A 
ATOM     26  C   UNL     1      -7.101  -9.612  16.975  0.00  0.00    +0.196 A 
ENDBRANCH  20  23
ENDBRANCH  12   6
BRANCH  11   5
ATOM      3  O   UNL     1      -5.794 -10.499   5.265  0.00  0.00    -0.276 OA
ATOM      5  N   UNL     1      -4.791 -11.250   7.227  0.00  0.00    -0.307 N 
ATOM     18  C   UNL     1      -5.121 -11.320   5.883  0.00  0.00    +0.216 C 
ATOM     27  H   UNL     1      -4.244 -12.002   7.639  0.00  0.00    +0.149 HD
BRANCH  18  13
ATOM     13  C   UNL     1      -4.538 -12.535   5.212  0.00  0.00    +0.075 C 
ATOM     16  C   UNL     1      -3.201 -12.409   4.582  0.00  0.00    +0.013 C 
ATOM     17  C   UNL     1      -4.432 -12.528   3.731  0.00  0.00    +0.013 C 
ENDBRANCH  18  13
ENDBRANCH  11   5
TORSDOF 4
ENDMDL
MODEL 5
REMARK VINA RESULT:      -6.3     26.172     29.282
REMARK  Name = 11912964
REMARK  4 active torsions:
REMARK  status: ('A' for Active; 'I' for Inactive)
REMARK    1  A    between atoms: N_5  and  C_11
REMARK    2  A    between atoms: N_6  and  C_12
REMARK    3  A    between atoms: C_13  and  C_18
REMARK    4  A    between atoms: C_20  and  C_23
REMARK                            x       y       z     vdW  Elec       q    Type
REMARK                         _______ _______ _______ _____ _____    ______ ____
ROOT
ATOM      1  O   UNL     1      -7.260 -11.836  16.030  0.00  0.00    -0.370 OA
ATOM      2  O   UNL     1      -6.181 -12.117  18.923  0.00  0.00    -0.370 OA
ATOM      9  C   UNL     1      -6.574 -10.978  18.137  0.00  0.00    +0.171 C 
ATOM     10  C   UNL     1      -6.137 -11.247  16.710  0.00  0.00    +0.171 C 
ATOM     11  C   UNL     1      -8.082 -10.893  18.054  0.00  0.00    +0.130 C 
ATOM     12  C   UNL     1      -5.025 -12.259  16.851  0.00  0.00    +0.130 C 
ATOM     14  C   UNL     1      -8.387 -11.860  16.920  0.00  0.00    +0.185 C 
ATOM     15  C   UNL     1      -5.424 -13.020  18.102  0.00  0.00    +0.185 C 
ENDROOT
BRANCH  12   6
ATOM      6  N   UNL     1      -3.763 -11.583  17.056  0.00  0.00    -0.306 N 
ATOM      7  N   UNL     1      -3.451 -11.230  14.757  0.00  0.00    -0.211 NA
ATOM      8  N   UNL     1      -1.824 -10.460  16.359  0.00  0.00    -0.223 NA
ATOM     19  C   UNL     1      -2.990 -11.076  16.027  0.00  0.00    +0.216 A 
ATOM     20  C   UNL     1      -2.673 -10.723  13.778  0.00  0.00    +0.111 A 
ATOM     21  C   UNL     1      -1.095  -9.977  15.331  0.00  0.00    +0.116 A 
ATOM     22  C   UNL     1      -1.473 -10.081  14.009  0.00  0.00    +0.051 A 
ATOM     28  H   UNL     1      -3.435 -11.416  18.000  0.00  0.00    +0.149 HD
BRANCH  20  23
ATOM      4  O   UNL     1      -3.992  -9.906  11.997  0.00  0.00    -0.461 OA
ATOM     23  C   UNL     1      -3.187 -10.902  12.447  0.00  0.00    +0.153 A 
ATOM     24  C   UNL     1      -3.045 -11.881  11.494  0.00  0.00    +0.051 A 
ATOM     25  C   UNL     1      -3.816 -11.460  10.383  0.00  0.00    +0.042 A 
ATOM     26  C   UNL     1      -4.372 -10.254  10.740  0.00  0.00    +0.196 A 
ENDBRANCH  20  23
ENDBRANCH  12   6
BRANCH  11   5
ATOM      3  O   UNL     1     -10.770  -9.768  18.149  0.00  0.00    -0.276 OA
ATOM      5  N   UNL     1      -8.501  -9.545  17.679  0.00  0.00    -0.307 N 
ATOM     18  C   UNL     1      -9.812  -9.104  17.761  0.00  0.00    +0.216 C 
ATOM     27  H   UNL     1      -7.791  -8.910  17.322  0.00  0.00    +0.149 HD
BRANCH  18  13
ATOM     13  C   UNL     1      -9.962  -7.667  17.337  0.00  0.00    +0.075 C 
ATOM     16  C   UNL     1     -11.237  -7.260  16.696  0.00  0.00    +0.013 C 
ATOM     17  C   UNL     1      -9.980  -7.369  15.883  0.00  0.00    +0.013 C 
ENDBRANCH  18  13
ENDBRANCH  11   5
TORSDOF 4
ENDMDL
MODEL 6
REMARK VINA RESULT:      -6.0      5.422      9.614
REMARK  Name = 11912964
REMARK  4 active torsions:
REMARK  status: ('A' for Active; 'I' for Inactive)
REMARK    1  A    between atoms: N_5  and  C_11
REMARK    2  A    between atoms: N_6  and  C_12
REMARK    3  A    between atoms: C_13  and  C_18
REMARK    4  A    between atoms: C_20  and  C_23
REMARK                            x       y       z     vdW  Elec       q    Type
REMARK                         _______ _______ _______ _____ _____    ______ ____
ROOT
ATOM      1  O   UNL     1      12.854   9.680  18.784  0.00  0.00    -0.370 OA
ATOM      2  O   UNL     1      13.597   7.775  16.452  0.00  0.00    -0.370 OA
ATOM      9  C   UNL     1      14.294   8.169  17.649  0.00  0.00    +0.171 C 
ATOM     10  C   UNL     1      13.980   9.632  17.889  0.00  0.00    +0.171 C 
ATOM     11  C   UNL     1      13.710   7.461  18.852  0.00  0.00    +0.130 C 
ATOM     12  C   UNL     1      13.584  10.151  16.527  0.00  0.00    +0.130 C 
ATOM     14  C   UNL     1      12.515   8.343  19.183  0.00  0.00    +0.185 C 
ATOM     15  C   UNL     1      12.970   8.929  15.870  0.00  0.00    +0.185 C 
ENDROOT
BRANCH  12   6
ATOM      6  N   UNL     1      14.760  10.575  15.798  0.00  0.00    -0.306 N 
ATOM      7  N   UNL     1      13.488  11.740  14.205  0.00  0.00    -0.211 NA
ATOM      8  N   UNL     1      15.893  11.685  14.069  0.00  0.00    -0.223 NA
ATOM     19  C   UNL     1      14.712  11.357  14.657  0.00  0.00    +0.216 A 
ATOM     20  C   UNL     1      13.479  12.502  13.092  0.00  0.00    +0.111 A 
ATOM     21  C   UNL     1      15.811  12.449  12.959  0.00  0.00    +0.116 A 
ATOM     22  C   UNL     1      14.620  12.890  12.420  0.00  0.00    +0.051 A 
ATOM     28  H   UNL     1      15.679  10.340  16.154  0.00  0.00    +0.149 HD
BRANCH  20  23
ATOM      4  O   UNL     1      11.407  11.884  12.139  0.00  0.00    -0.461 OA
ATOM     23  C   UNL     1      12.170  12.890  12.639  0.00  0.00    +0.153 A 
ATOM     24  C   UNL     1      11.493  14.084  12.592  0.00  0.00    +0.051 A 
ATOM     25  C   UNL     1      10.228  13.794  12.027  0.00  0.00    +0.042 A 
ATOM     26  C   UNL     1      10.225  12.443  11.768  0.00  0.00    +0.196 A 
ENDBRANCH  20  23
ENDBRANCH  12   6
BRANCH  11   5
ATOM      3  O   UNL     1      16.163   5.911  19.126  0.00  0.00    -0.276 OA
ATOM      5  N   UNL     1      14.656   7.475  19.965  0.00  0.00    -0.307 N 
ATOM     18  C   UNL     1      15.801   6.695  20.000  0.00  0.00    +0.216 C 
ATOM     27  H   UNL     1      14.446   8.076  20.759  0.00  0.00    +0.149 HD
BRANCH  18  13
ATOM     13  C   UNL     1      16.612   6.922  21.249  0.00  0.00    +0.075 C 
ATOM     16  C   UNL     1      17.684   7.948  21.207  0.00  0.00    +0.013 C 
ATOM     17  C   UNL     1      18.032   6.488  21.244  0.00  0.00    +0.013 C 
ENDBRANCH  18  13
ENDBRANCH  11   5
TORSDOF 4
ENDMDL
MODEL 7
REMARK VINA RESULT:      -6.0     14.991     20.668
REMARK  Name = 11912964
REMARK  4 active torsions:
REMARK  status: ('A' for Active; 'I' for Inactive)
REMARK    1  A    between atoms: N_5  and  C_11
REMARK    2  A    between atoms: N_6  and  C_12
REMARK    3  A    between atoms: C_13  and  C_18
REMARK    4  A    between atoms: C_20  and  C_23
REMARK                            x       y       z     vdW  Elec       q    Type
REMARK                         _______ _______ _______ _____ _____    ______ ____
ROOT
ATOM      1  O   UNL     1      11.605   7.730   4.589  0.00  0.00    -0.370 OA
ATOM      2  O   UNL     1       8.861   7.070   3.304  0.00  0.00    -0.370 OA
ATOM      9  C   UNL     1       9.638   6.423   4.328  0.00  0.00    +0.171 C 
ATOM     10  C   UNL     1      11.096   6.554   3.934  0.00  0.00    +0.171 C 
ATOM     11  C   UNL     1       9.534   7.190   5.629  0.00  0.00    +0.130 C 
ATOM     12  C   UNL     1      11.054   6.768   2.440  0.00  0.00    +0.130 C 
ATOM     14  C   UNL     1      10.581   8.277   5.434  0.00  0.00    +0.185 C 
ATOM     15  C   UNL     1       9.733   7.488   2.242  0.00  0.00    +0.185 C 
ENDROOT
BRANCH  12   6
ATOM      6  N   UNL     1      11.037   5.492   1.757  0.00  0.00    -0.306 N 
ATOM      7  N   UNL     1      13.253   5.730   1.022  0.00  0.00    -0.211 NA
ATOM      8  N   UNL     1      11.968   3.768   0.466  0.00  0.00    -0.223 NA
ATOM     19  C   UNL     1      12.118   4.981   1.061  0.00  0.00    +0.216 A 
ATOM     20  C   UNL     1      14.287   5.201   0.335  0.00  0.00    +0.111 A 
ATOM     21  C   UNL     1      13.041   3.300  -0.204  0.00  0.00    +0.116 A 
ATOM     22  C   UNL     1      14.238   3.979  -0.304  0.00  0.00    +0.051 A 
ATOM     28  H   UNL     1      10.215   4.903   1.824  0.00  0.00    +0.149 HD
BRANCH  20  23
ATOM      4  O   UNL     1      15.512   7.010   1.234  0.00  0.00    -0.461 OA
ATOM     23  C   UNL     1      15.473   6.016   0.311  0.00  0.00    +0.153 A 
ATOM     24  C   UNL     1      16.611   6.019  -0.457  0.00  0.00    +0.051 A 
ATOM     25  C   UNL     1      17.405   7.087   0.025  0.00  0.00    +0.042 A 
ATOM     26  C   UNL     1      16.692   7.659   1.052  0.00  0.00    +0.196 A 
ENDBRANCH  20  23
ENDBRANCH  12   6
BRANCH  11   5
ATOM      3  O   UNL     1       8.569   7.345   8.375  0.00  0.00    -0.276 OA
ATOM      5  N   UNL     1       9.909   6.341   6.757  0.00  0.00    -0.307 N 
ATOM     18  C   UNL     1       9.390   6.497   8.032  0.00  0.00    +0.216 C 
ATOM     27  H   UNL     1      10.601   5.614   6.593  0.00  0.00    +0.149 HD
BRANCH  18  13
ATOM     13  C   UNL     1       9.925   5.474   8.999  0.00  0.00    +0.075 C 
ATOM     16  C   UNL     1       9.603   4.046   8.752  0.00  0.00    +0.013 C 
ATOM     17  C   UNL     1       8.958   4.784   9.889  0.00  0.00    +0.013 C 
ENDBRANCH  18  13
ENDBRANCH  11   5
TORSDOF 4
ENDMDL
MODEL 8
REMARK VINA RESULT:      -5.9     14.689     21.448
REMARK  Name = 11912964
REMARK  4 active torsions:
REMARK  status: ('A' for Active; 'I' for Inactive)
REMARK    1  A    between atoms: N_5  and  C_11
REMARK    2  A    between atoms: N_6  and  C_12
REMARK    3  A    between atoms: C_13  and  C_18
REMARK    4  A    between atoms: C_20  and  C_23
REMARK                            x       y       z     vdW  Elec       q    Type
REMARK                         _______ _______ _______ _____ _____    ______ ____
ROOT
ATOM      1  O   UNL     1       9.178   6.994   3.484  0.00  0.00    -0.370 OA
ATOM      2  O   UNL     1      10.497   4.783   5.212  0.00  0.00    -0.370 OA
ATOM      9  C   UNL     1      10.611   6.218   5.212  0.00  0.00    +0.171 C 
ATOM     10  C   UNL     1      10.551   6.671   3.767  0.00  0.00    +0.171 C 
ATOM     11  C   UNL     1       9.388   6.841   5.849  0.00  0.00    +0.130 C 
ATOM     12  C   UNL     1      10.972   5.452   2.982  0.00  0.00    +0.130 C 
ATOM     14  C   UNL     1       8.406   6.857   4.687  0.00  0.00    +0.185 C 
ATOM     15  C   UNL     1      10.491   4.309   3.856  0.00  0.00    +0.185 C 
ENDROOT
BRANCH  12   6
ATOM      6  N   UNL     1      12.413   5.416   2.858  0.00  0.00    -0.306 N 
ATOM      7  N   UNL     1      12.317   4.448   0.722  0.00  0.00    -0.211 NA
ATOM      8  N   UNL     1      14.433   4.949   1.759  0.00  0.00    -0.223 NA
ATOM     19  C   UNL     1      13.074   4.923   1.746  0.00  0.00    +0.216 A 
ATOM     20  C   UNL     1      12.993   3.975  -0.345  0.00  0.00    +0.111 A 
ATOM     21  C   UNL     1      15.046   4.462   0.660  0.00  0.00    +0.116 A 
ATOM     22  C   UNL     1      14.370   3.957  -0.433  0.00  0.00    +0.051 A 
ATOM     28  H   UNL     1      12.987   5.816   3.592  0.00  0.00    +0.149 HD
BRANCH  20  23
ATOM      4  O   UNL     1      11.185   4.322  -1.826  0.00  0.00    -0.461 OA
ATOM     23  C   UNL     1      12.165   3.479  -1.412  0.00  0.00    +0.153 A 
ATOM     24  C   UNL     1      12.137   2.309  -2.130  0.00  0.00    +0.051 A 
ATOM     25  C   UNL     1      11.068   2.440  -3.049  0.00  0.00    +0.042 A 
ATOM     26  C   UNL     1      10.520   3.681  -2.823  0.00  0.00    +0.196 A 
ENDBRANCH  20  23
ENDBRANCH  12   6
BRANCH  11   5
ATOM      3  O   UNL     1       8.582   8.142   8.330  0.00  0.00    -0.276 OA
ATOM      5  N   UNL     1       9.671   8.210   6.273  0.00  0.00    -0.307 N 
ATOM     18  C   UNL     1       9.241   8.737   7.480  0.00  0.00    +0.216 C 
ATOM     27  H   UNL     1      10.195   8.805   5.636  0.00  0.00    +0.149 HD
BRANCH  18  13
ATOM     13  C   UNL     1       9.692  10.160   7.679  0.00  0.00    +0.075 C 
ATOM     16  C   UNL     1      10.951  10.393   8.430  0.00  0.00    +0.013 C 
ATOM     17  C   UNL     1       9.624  10.726   9.050  0.00  0.00    +0.013 C 
ENDBRANCH  18  13
ENDBRANCH  11   5
TORSDOF 4
ENDMDL
MODEL 9
REMARK VINA RESULT:      -5.8      3.329      5.495
REMARK  Name = 11912964
REMARK  4 active torsions:
REMARK  status: ('A' for Active; 'I' for Inactive)
REMARK    1  A    between atoms: N_5  and  C_11
REMARK    2  A    between atoms: N_6  and  C_12
REMARK    3  A    between atoms: C_13  and  C_18
REMARK    4  A    between atoms: C_20  and  C_23
REMARK                            x       y       z     vdW  Elec       q    Type
REMARK                         _______ _______ _______ _____ _____    ______ ____
ROOT
ATOM      1  O   UNL     1      14.741  11.039  16.901  0.00  0.00    -0.370 OA
ATOM      2  O   UNL     1      13.685   8.532  15.414  0.00  0.00    -0.370 OA
ATOM      9  C   UNL     1      13.150   9.855  15.594  0.00  0.00    +0.171 C 
ATOM     10  C   UNL     1      13.511  10.298  16.997  0.00  0.00    +0.171 C 
ATOM     11  C   UNL     1      13.869  10.839  14.697  0.00  0.00    +0.130 C 
ATOM     12  C   UNL     1      13.741   9.004  17.743  0.00  0.00    +0.130 C 
ATOM     14  C   UNL     1      15.109  11.161  15.518  0.00  0.00    +0.185 C 
ATOM     15  C   UNL     1      14.251   8.078  16.654  0.00  0.00    +0.185 C 
ENDROOT
BRANCH  12   6
ATOM      6  N   UNL     1      12.490   8.510  18.275  0.00  0.00    -0.306 N 
ATOM      7  N   UNL     1      12.916   9.403  20.404  0.00  0.00    -0.211 NA
ATOM      8  N   UNL     1      10.883   8.191  19.954  0.00  0.00    -0.223 NA
ATOM     19  C   UNL     1      12.084   8.708  19.583  0.00  0.00    +0.216 A 
ATOM     20  C   UNL     1      12.489   9.577  21.672  0.00  0.00    +0.111 A 
ATOM     21  C   UNL     1      10.517   8.402  21.236  0.00  0.00    +0.116 A 
ATOM     22  C   UNL     1      11.287   9.094  22.148  0.00  0.00    +0.051 A 
ATOM     28  H   UNL     1      11.839   8.037  17.660  0.00  0.00    +0.149 HD
BRANCH  20  23
ATOM      4  O   UNL     1      12.797  11.100  23.450  0.00  0.00    -0.461 OA
ATOM     23  C   UNL     1      13.390  10.315  22.515  0.00  0.00    +0.153 A 
ATOM     24  C   UNL     1      14.758  10.412  22.594  0.00  0.00    +0.051 A 
ATOM     25  C   UNL     1      15.026  11.317  23.649  0.00  0.00    +0.042 A 
ATOM     26  C   UNL     1      13.801  11.708  24.137  0.00  0.00    +0.196 A 
ENDBRANCH  20  23
ENDBRANCH  12   6
BRANCH  11   5
ATOM      3  O   UNL     1      12.863  11.953  12.198  0.00  0.00    -0.276 OA
ATOM      5  N   UNL     1      13.070  12.048  14.515  0.00  0.00    -0.307 N 
ATOM     18  C   UNL     1      12.637  12.496  13.277  0.00  0.00    +0.216 C 
ATOM     27  H   UNL     1      12.839  12.593  15.342  0.00  0.00    +0.149 HD
BRANCH  18  13
ATOM     13  C   UNL     1      11.811  13.750  13.377  0.00  0.00    +0.075 C 
ATOM     16  C   UNL     1      10.748  13.966  12.364  0.00  0.00    +0.013 C 
ATOM     17  C   UNL     1      12.001  14.793  12.337  0.00  0.00    +0.013 C 
ENDBRANCH  18  13
ENDBRANCH  11   5
TORSDOF 4
ENDMDL
MODEL 10
REMARK VINA RESULT:      -5.8     26.909     28.878
REMARK  Name = 11912964
REMARK  4 active torsions:
REMARK  status: ('A' for Active; 'I' for Inactive)
REMARK    1  A    between atoms: N_5  and  C_11
REMARK    2  A    between atoms: N_6  and  C_12
REMARK    3  A    between atoms: C_13  and  C_18
REMARK    4  A    between atoms: C_20  and  C_23
REMARK                            x       y       z     vdW  Elec       q    Type
REMARK                         _______ _______ _______ _____ _____    ______ ____
ROOT
ATOM      1  O   UNL     1     -13.970   4.728  23.722  0.00  0.00    -0.370 OA
ATOM      2  O   UNL     1     -16.652   3.937  22.381  0.00  0.00    -0.370 OA
ATOM      9  C   UNL     1     -16.097   5.205  22.777  0.00  0.00    +0.171 C 
ATOM     10  C   UNL     1     -15.343   4.978  24.072  0.00  0.00    +0.171 C 
ATOM     11  C   UNL     1     -15.030   5.640  21.797  0.00  0.00    +0.130 C 
ATOM     12  C   UNL     1     -15.969   3.730  24.648  0.00  0.00    +0.130 C 
ATOM     14  C   UNL     1     -13.813   4.879  22.302  0.00  0.00    +0.185 C 
ATOM     15  C   UNL     1     -16.392   2.966  23.407  0.00  0.00    +0.185 C 
ENDROOT
BRANCH  12   6
ATOM      6  N   UNL     1     -17.127   4.077  25.442  0.00  0.00    -0.306 N 
ATOM      7  N   UNL     1     -16.312   2.943  27.328  0.00  0.00    -0.211 NA
ATOM      8  N   UNL     1     -18.432   4.087  27.392  0.00  0.00    -0.223 NA
ATOM     19  C   UNL     1     -17.295   3.691  26.760  0.00  0.00    +0.216 A 
ATOM     20  C   UNL     1     -16.508   2.585  28.614  0.00  0.00    +0.111 A 
ATOM     21  C   UNL     1     -18.564   3.694  28.676  0.00  0.00    +0.116 A 
ATOM     22  C   UNL     1     -17.625   2.935  29.345  0.00  0.00    +0.051 A 
ATOM     28  H   UNL     1     -17.841   4.678  25.046  0.00  0.00    +0.149 HD
BRANCH  20  23
ATOM      4  O   UNL     1     -15.531   0.460  28.945  0.00  0.00    -0.461 OA
ATOM     23  C   UNL     1     -15.452   1.794  29.187  0.00  0.00    +0.153 A 
ATOM     24  C   UNL     1     -14.347   2.087  29.948  0.00  0.00    +0.051 A 
ATOM     25  C   UNL     1     -13.701   0.850  30.191  0.00  0.00    +0.042 A 
ATOM     26  C   UNL     1     -14.460  -0.108  29.561  0.00  0.00    +0.196 A 
ENDBRANCH  20  23
ENDBRANCH  12   6
BRANCH  11   5
ATOM      3  O   UNL     1     -13.476   7.327  19.998  0.00  0.00    -0.276 OA
ATOM      5  N   UNL     1     -14.791   7.078  21.902  0.00  0.00    -0.307 N 
ATOM     18  C   UNL     1     -14.033   7.792  20.989  0.00  0.00    +0.216 C 
ATOM     27  H   UNL     1     -15.190   7.567  22.700  0.00  0.00    +0.149 HD
BRANCH  18  13
ATOM     13  C   UNL     1     -13.969   9.260  21.319  0.00  0.00    +0.075 C 
ATOM     16  C   UNL     1     -12.706   9.984  21.033  0.00  0.00    +0.013 C 
ATOM     17  C   UNL     1     -13.102   9.681  22.449  0.00  0.00    +0.013 C 
ENDBRANCH  18  13
ENDBRANCH  11   5
TORSDOF 4
ENDMDL
