MODEL 1
REMARK VINA RESULT:      -7.5      0.000      0.000
REMARK  Name = 7155405
REMARK  7 active torsions:
REMARK  status: ('A' for Active; 'I' for Inactive)
REMARK    1  A    between atoms: S_1  and  C_28
REMARK    2  A    between atoms: S_1  and  C_30
REMARK    3  A    between atoms: O_4  and  C_29
REMARK    4  A    between atoms: N_5  and  C_14
REMARK    5  A    between atoms: C_14  and  C_19
REMARK    6  A    between atoms: C_15  and  C_20
REMARK    7  A    between atoms: C_24  and  C_29
REMARK                            x       y       z     vdW  Elec       q    Type
REMARK                         _______ _______ _______ _____ _____    ______ ____
ROOT
ATOM      2  O   UNL     1      11.242   8.964  17.016  0.00  0.00    -0.268 OA
ATOM      5  N   UNL     1      12.159  10.102  21.783  0.00  0.00    -0.294 NA
ATOM      6  N   UNL     1      12.220   8.431  19.076  0.00  0.00    -0.311 N 
ATOM      7  C   UNL     1      10.809   8.081  21.190  0.00  0.00    +0.024 C 
ATOM      8  C   UNL     1      13.246   7.899  21.306  0.00  0.00    +0.051 C 
ATOM      9  C   UNL     1      11.944   7.164  21.611  0.00  0.00    +0.017 C 
ATOM     10  C   UNL     1      10.877   9.412  21.966  0.00  0.00    +0.090 C 
ATOM     11  C   UNL     1      13.289   9.222  22.110  0.00  0.00    +0.094 C 
ATOM     12  C   UNL     1      10.886   8.285  19.675  0.00  0.00    +0.130 C 
ATOM     13  C   UNL     1      13.396   8.168  19.806  0.00  0.00    +0.034 A 
ATOM     15  C   UNL     1      14.600   8.179  19.178  0.00  0.00    +0.002 A 
ATOM     16  C   UNL     1      12.238   8.741  17.704  0.00  0.00    +0.252 A 
ATOM     17  C   UNL     1      14.658   8.498  17.764  0.00  0.00    +0.015 A 
ATOM     18  C   UNL     1      13.567   8.778  17.052  0.00  0.00    +0.071 A 
ENDROOT
BRANCH  15  20
ATOM     20  C   UNL     1      15.858   7.888  19.900  0.00  0.00    -0.016 A 
ATOM     22  C   UNL     1      16.511   8.908  20.585  0.00  0.00    +0.009 A 
ATOM     23  C   UNL     1      16.378   6.598  19.890  0.00  0.00    +0.009 A 
ATOM     26  C   UNL     1      17.698   8.634  21.267  0.00  0.00    +0.015 A 
ATOM     27  C   UNL     1      17.564   6.325  20.571  0.00  0.00    +0.015 A 
ATOM     28  C   UNL     1      18.224   7.343  21.258  0.00  0.00    +0.008 A 
BRANCH  28   1
ATOM      1  S   UNL     1      19.739   6.993  22.130  0.00  0.00    -0.129 S 
ATOM     30  C   UNL     1      20.898   6.716  20.760  0.00  0.00    +0.090 C 
ENDBRANCH  28   1
ENDBRANCH  15  20
BRANCH   5  14
ATOM     14  C   UNL     1      12.209  11.331  22.569  0.00  0.00    +0.158 C 
BRANCH  14  19
ATOM      3  O   UNL     1      10.579  13.049  22.163  0.00  0.00    -0.461 OA
ATOM     19  C   UNL     1      11.756  12.524  21.778  0.00  0.00    +0.119 A 
ATOM     21  C   UNL     1      12.308  13.184  20.732  0.00  0.00    +0.046 A 
ATOM     24  C   UNL     1      10.362  14.099  21.328  0.00  0.00    +0.131 A 
ATOM     25  C   UNL     1      11.397  14.225  20.430  0.00  0.00    +0.047 A 
BRANCH  24  29
ATOM     29  C   UNL     1       9.121  14.856  21.543  0.00  0.00    +0.230 C 
BRANCH  29   4
ATOM      4  O   UNL     1       8.553  14.433  22.785  0.00  0.00    -0.387 OA
ATOM     31  H   UNL     1       7.723  13.968  22.583  0.00  0.00    +0.210 HD
ENDBRANCH  29   4
ENDBRANCH  24  29
ENDBRANCH  14  19
ENDBRANCH   5  14
TORSDOF 6
ENDMDL
MODEL 2
REMARK VINA RESULT:      -7.2      1.753      2.442
REMARK  Name = 7155405
REMARK  7 active torsions:
REMARK  status: ('A' for Active; 'I' for Inactive)
REMARK    1  A    between atoms: S_1  and  C_28
REMARK    2  A    between atoms: S_1  and  C_30
REMARK    3  A    between atoms: O_4  and  C_29
REMARK    4  A    between atoms: N_5  and  C_14
REMARK    5  A    between atoms: C_14  and  C_19
REMARK    6  A    between atoms: C_15  and  C_20
REMARK    7  A    between atoms: C_24  and  C_29
REMARK                            x       y       z     vdW  Elec       q    Type
REMARK                         _______ _______ _______ _____ _____    ______ ____
ROOT
ATOM      2  O   UNL     1      11.245   7.992  17.096  0.00  0.00    -0.268 OA
ATOM      5  N   UNL     1      12.142  10.435  21.349  0.00  0.00    -0.294 NA
ATOM      6  N   UNL     1      12.235   8.076  19.217  0.00  0.00    -0.311 N 
ATOM      7  C   UNL     1      10.833   8.304  21.353  0.00  0.00    +0.024 C 
ATOM      8  C   UNL     1      13.274   8.208  21.500  0.00  0.00    +0.051 C 
ATOM      9  C   UNL     1      11.986   7.563  22.007  0.00  0.00    +0.017 C 
ATOM     10  C   UNL     1      10.875   9.799  21.726  0.00  0.00    +0.090 C 
ATOM     11  C   UNL     1      13.290   9.703  21.902  0.00  0.00    +0.094 C 
ATOM     12  C   UNL     1      10.904   8.077  19.841  0.00  0.00    +0.130 C 
ATOM     13  C   UNL     1      13.417   8.050  19.984  0.00  0.00    +0.034 A 
ATOM     15  C   UNL     1      14.620   7.908  19.370  0.00  0.00    +0.002 A 
ATOM     16  C   UNL     1      12.246   7.990  17.813  0.00  0.00    +0.252 A 
ATOM     17  C   UNL     1      14.670   7.820  17.923  0.00  0.00    +0.015 A 
ATOM     18  C   UNL     1      13.573   7.869  17.168  0.00  0.00    +0.071 A 
ENDROOT
BRANCH  15  20
ATOM     20  C   UNL     1      15.884   7.855  20.137  0.00  0.00    -0.016 A 
ATOM     22  C   UNL     1      16.526   9.038  20.491  0.00  0.00    +0.009 A 
ATOM     23  C   UNL     1      16.422   6.625  20.499  0.00  0.00    +0.009 A 
ATOM     26  C   UNL     1      17.718   8.989  21.214  0.00  0.00    +0.015 A 
ATOM     27  C   UNL     1      17.613   6.576  21.222  0.00  0.00    +0.015 A 
ATOM     28  C   UNL     1      18.261   7.757  21.578  0.00  0.00    +0.008 A 
BRANCH  28   1
ATOM      1  S   UNL     1      19.784   7.695  22.503  0.00  0.00    -0.129 S 
ATOM     30  C   UNL     1      20.546   6.178  21.859  0.00  0.00    +0.090 C 
ENDBRANCH  28   1
ENDBRANCH  15  20
BRANCH   5  14
ATOM     14  C   UNL     1      12.167  11.836  21.760  0.00  0.00    +0.158 C 
BRANCH  14  19
ATOM      3  O   UNL     1      13.085  12.262  23.939  0.00  0.00    -0.461 OA
ATOM     19  C   UNL     1      11.969  11.991  23.240  0.00  0.00    +0.119 A 
ATOM     21  C   UNL     1      10.867  11.908  24.023  0.00  0.00    +0.046 A 
ATOM     24  C   UNL     1      12.685  12.360  25.234  0.00  0.00    +0.131 A 
ATOM     25  C   UNL     1      11.329  12.151  25.339  0.00  0.00    +0.047 A 
BRANCH  24  29
ATOM     29  C   UNL     1      13.736  12.656  26.219  0.00  0.00    +0.230 C 
BRANCH  29   4
ATOM      4  O   UNL     1      13.130  13.332  27.323  0.00  0.00    -0.387 OA
ATOM     31  H   UNL     1      13.526  12.976  28.137  0.00  0.00    +0.210 HD
ENDBRANCH  29   4
ENDBRANCH  24  29
ENDBRANCH  14  19
ENDBRANCH   5  14
TORSDOF 6
ENDMDL
MODEL 3
REMARK VINA RESULT:      -7.1      3.510      7.548
REMARK  Name = 7155405
REMARK  7 active torsions:
REMARK  status: ('A' for Active; 'I' for Inactive)
REMARK    1  A    between atoms: S_1  and  C_28
REMARK    2  A    between atoms: S_1  and  C_30
REMARK    3  A    between atoms: O_4  and  C_29
REMARK    4  A    between atoms: N_5  and  C_14
REMARK    5  A    between atoms: C_14  and  C_19
REMARK    6  A    between atoms: C_15  and  C_20
REMARK    7  A    between atoms: C_24  and  C_29
REMARK                            x       y       z     vdW  Elec       q    Type
REMARK                         _______ _______ _______ _____ _____    ______ ____
ROOT
ATOM      2  O   UNL     1      11.833   7.183  18.955  0.00  0.00    -0.268 OA
ATOM      5  N   UNL     1      15.328  10.285  20.692  0.00  0.00    -0.294 NA
ATOM      6  N   UNL     1      12.453   9.294  19.756  0.00  0.00    -0.311 N 
ATOM      7  C   UNL     1      14.168  10.754  18.526  0.00  0.00    +0.024 C 
ATOM      8  C   UNL     1      13.167  11.545  20.615  0.00  0.00    +0.051 C 
ATOM      9  C   UNL     1      13.405  11.910  19.152  0.00  0.00    +0.017 C 
ATOM     10  C   UNL     1      15.507  10.537  19.258  0.00  0.00    +0.090 C 
ATOM     11  C   UNL     1      14.529  11.346  21.322  0.00  0.00    +0.094 C 
ATOM     12  C   UNL     1      13.276   9.510  18.557  0.00  0.00    +0.130 C 
ATOM     13  C   UNL     1      12.299  10.289  20.741  0.00  0.00    +0.034 A 
ATOM     15  C   UNL     1      11.420  10.103  21.760  0.00  0.00    +0.002 A 
ATOM     16  C   UNL     1      11.747   8.079  19.795  0.00  0.00    +0.252 A 
ATOM     17  C   UNL     1      10.678   8.859  21.836  0.00  0.00    +0.015 A 
ATOM     18  C   UNL     1      10.821   7.888  20.935  0.00  0.00    +0.071 A 
ENDROOT
BRANCH  15  20
ATOM     20  C   UNL     1      11.211  11.129  22.805  0.00  0.00    -0.016 A 
ATOM     22  C   UNL     1      11.349  10.786  24.146  0.00  0.00    +0.009 A 
ATOM     23  C   UNL     1      10.877  12.429  22.440  0.00  0.00    +0.009 A 
ATOM     26  C   UNL     1      11.152  11.753  25.132  0.00  0.00    +0.015 A 
ATOM     27  C   UNL     1      10.680  13.396  23.426  0.00  0.00    +0.015 A 
ATOM     28  C   UNL     1      10.816  13.057  24.771  0.00  0.00    +0.008 A 
BRANCH  28   1
ATOM      1  S   UNL     1      10.564  14.294  26.031  0.00  0.00    -0.129 S 
ATOM     30  C   UNL     1      12.267  14.641  26.554  0.00  0.00    +0.090 C 
ENDBRANCH  28   1
ENDBRANCH  15  20
BRANCH   5  14
ATOM     14  C   UNL     1      16.616  10.132  21.362  0.00  0.00    +0.158 C 
BRANCH  14  19
ATOM      3  O   UNL     1      16.604   8.054  20.156  0.00  0.00    -0.461 OA
ATOM     19  C   UNL     1      17.244   8.799  21.076  0.00  0.00    +0.119 A 
ATOM     21  C   UNL     1      18.346   8.188  21.571  0.00  0.00    +0.046 A 
ATOM     24  C   UNL     1      17.328   6.909  20.053  0.00  0.00    +0.131 A 
ATOM     25  C   UNL     1      18.410   6.942  20.902  0.00  0.00    +0.047 A 
BRANCH  24  29
ATOM     29  C   UNL     1      16.831   5.910  19.097  0.00  0.00    +0.230 C 
BRANCH  29   4
ATOM      4  O   UNL     1      17.951   5.168  18.609  0.00  0.00    -0.387 OA
ATOM     31  H   UNL     1      18.398   4.773  19.378  0.00  0.00    +0.210 HD
ENDBRANCH  29   4
ENDBRANCH  24  29
ENDBRANCH  14  19
ENDBRANCH   5  14
TORSDOF 6
ENDMDL
MODEL 4
REMARK VINA RESULT:      -6.8      1.709      2.320
REMARK  Name = 7155405
REMARK  7 active torsions:
REMARK  status: ('A' for Active; 'I' for Inactive)
REMARK    1  A    between atoms: S_1  and  C_28
REMARK    2  A    between atoms: S_1  and  C_30
REMARK    3  A    between atoms: O_4  and  C_29
REMARK    4  A    between atoms: N_5  and  C_14
REMARK    5  A    between atoms: C_14  and  C_19
REMARK    6  A    between atoms: C_15  and  C_20
REMARK    7  A    between atoms: C_24  and  C_29
REMARK                            x       y       z     vdW  Elec       q    Type
REMARK                         _______ _______ _______ _____ _____    ______ ____
ROOT
ATOM      2  O   UNL     1      11.200   8.114  17.110  0.00  0.00    -0.268 OA
ATOM      5  N   UNL     1      12.196  10.501  21.372  0.00  0.00    -0.294 NA
ATOM      6  N   UNL     1      12.217   8.159  19.219  0.00  0.00    -0.311 N 
ATOM      7  C   UNL     1      10.844   8.396  21.374  0.00  0.00    +0.024 C 
ATOM      8  C   UNL     1      13.284   8.250  21.491  0.00  0.00    +0.051 C 
ATOM      9  C   UNL     1      11.990   7.626  22.008  0.00  0.00    +0.017 C 
ATOM     10  C   UNL     1      10.921   9.887  21.759  0.00  0.00    +0.090 C 
ATOM     11  C   UNL     1      13.335   9.741  21.905  0.00  0.00    +0.094 C 
ATOM     12  C   UNL     1      10.894   8.181  19.859  0.00  0.00    +0.130 C 
ATOM     13  C   UNL     1      13.406   8.102  19.972  0.00  0.00    +0.034 A 
ATOM     15  C   UNL     1      14.599   7.941  19.343  0.00  0.00    +0.002 A 
ATOM     16  C   UNL     1      12.209   8.085  17.815  0.00  0.00    +0.252 A 
ATOM     17  C   UNL     1      14.631   7.865  17.895  0.00  0.00    +0.015 A 
ATOM     18  C   UNL     1      13.526   7.943  17.153  0.00  0.00    +0.071 A 
ENDROOT
BRANCH  15  20
ATOM     20  C   UNL     1      15.870   7.856  20.094  0.00  0.00    -0.016 A 
ATOM     22  C   UNL     1      16.499   9.022  20.520  0.00  0.00    +0.009 A 
ATOM     23  C   UNL     1      16.429   6.612  20.369  0.00  0.00    +0.009 A 
ATOM     26  C   UNL     1      17.699   8.942  21.229  0.00  0.00    +0.015 A 
ATOM     27  C   UNL     1      17.627   6.533  21.078  0.00  0.00    +0.015 A 
ATOM     28  C   UNL     1      18.262   7.698  21.506  0.00  0.00    +0.008 A 
BRANCH  28   1
ATOM      1  S   UNL     1      19.794   7.596  22.412  0.00  0.00    -0.129 S 
ATOM     30  C   UNL     1      20.941   7.006  21.135  0.00  0.00    +0.090 C 
ENDBRANCH  28   1
ENDBRANCH  15  20
BRANCH   5  14
ATOM     14  C   UNL     1      12.255  11.897  21.795  0.00  0.00    +0.158 C 
BRANCH  14  19
ATOM      3  O   UNL     1      13.036  12.600  19.634  0.00  0.00    -0.461 OA
ATOM     19  C   UNL     1      13.217  12.696  20.964  0.00  0.00    +0.119 A 
ATOM     21  C   UNL     1      14.249  13.507  21.296  0.00  0.00    +0.046 A 
ATOM     24  C   UNL     1      13.996  13.387  19.082  0.00  0.00    +0.131 A 
ATOM     25  C   UNL     1      14.769  13.968  20.062  0.00  0.00    +0.047 A 
BRANCH  24  29
ATOM     29  C   UNL     1      14.016  13.456  17.614  0.00  0.00    +0.230 C 
BRANCH  29   4
ATOM      4  O   UNL     1      13.671  12.166  17.105  0.00  0.00    -0.387 OA
ATOM     31  H   UNL     1      13.906  11.511  17.785  0.00  0.00    +0.210 HD
ENDBRANCH  29   4
ENDBRANCH  24  29
ENDBRANCH  14  19
ENDBRANCH   5  14
TORSDOF 6
ENDMDL
MODEL 5
REMARK VINA RESULT:      -6.6      2.651      4.486
REMARK  Name = 7155405
REMARK  7 active torsions:
REMARK  status: ('A' for Active; 'I' for Inactive)
REMARK    1  A    between atoms: S_1  and  C_28
REMARK    2  A    between atoms: S_1  and  C_30
REMARK    3  A    between atoms: O_4  and  C_29
REMARK    4  A    between atoms: N_5  and  C_14
REMARK    5  A    between atoms: C_14  and  C_19
REMARK    6  A    between atoms: C_15  and  C_20
REMARK    7  A    between atoms: C_24  and  C_29
REMARK                            x       y       z     vdW  Elec       q    Type
REMARK                         _______ _______ _______ _____ _____    ______ ____
ROOT
ATOM      2  O   UNL     1      10.797   8.629  20.076  0.00  0.00    -0.268 OA
ATOM      5  N   UNL     1      14.865  11.460  19.534  0.00  0.00    -0.294 NA
ATOM      6  N   UNL     1      13.011   9.129  20.653  0.00  0.00    -0.311 N 
ATOM      7  C   UNL     1      13.653  11.372  21.720  0.00  0.00    +0.024 C 
ATOM      8  C   UNL     1      15.383   9.708  21.244  0.00  0.00    +0.051 C 
ATOM      9  C   UNL     1      14.785  10.576  22.348  0.00  0.00    +0.017 C 
ATOM     10  C   UNL     1      14.188  12.248  20.569  0.00  0.00    +0.090 C 
ATOM     11  C   UNL     1      15.921  10.617  20.112  0.00  0.00    +0.094 C 
ATOM     12  C   UNL     1      12.570  10.395  21.257  0.00  0.00    +0.130 C 
ATOM     13  C   UNL     1      14.356   8.711  20.701  0.00  0.00    +0.034 A 
ATOM     15  C   UNL     1      14.696   7.474  20.257  0.00  0.00    +0.002 A 
ATOM     16  C   UNL     1      11.988   8.319  20.128  0.00  0.00    +0.252 A 
ATOM     17  C   UNL     1      13.668   6.612  19.705  0.00  0.00    +0.015 A 
ATOM     18  C   UNL     1      12.393   6.989  19.621  0.00  0.00    +0.071 A 
ENDROOT
BRANCH  15  20
ATOM     20  C   UNL     1      16.092   6.985  20.307  0.00  0.00    -0.016 A 
ATOM     22  C   UNL     1      16.873   7.244  21.428  0.00  0.00    +0.009 A 
ATOM     23  C   UNL     1      16.613   6.271  19.233  0.00  0.00    +0.009 A 
ATOM     26  C   UNL     1      18.190   6.784  21.476  0.00  0.00    +0.015 A 
ATOM     27  C   UNL     1      17.928   5.811  19.280  0.00  0.00    +0.015 A 
ATOM     28  C   UNL     1      18.717   6.068  20.401  0.00  0.00    +0.008 A 
BRANCH  28   1
ATOM      1  S   UNL     1      20.398   5.479  20.462  0.00  0.00    -0.129 S 
ATOM     30  C   UNL     1      21.334   7.034  20.502  0.00  0.00    +0.090 C 
ENDBRANCH  28   1
ENDBRANCH  15  20
BRANCH   5  14
ATOM     14  C   UNL     1      15.401  12.324  18.485  0.00  0.00    +0.158 C 
BRANCH  14  19
ATOM      3  O   UNL     1      14.046  10.913  17.089  0.00  0.00    -0.461 OA
ATOM     19  C   UNL     1      15.008  11.853  17.115  0.00  0.00    +0.119 A 
ATOM     21  C   UNL     1      15.440  12.195  15.878  0.00  0.00    +0.046 A 
ATOM     24  C   UNL     1      13.848  10.636  15.774  0.00  0.00    +0.131 A 
ATOM     25  C   UNL     1      14.680  11.399  14.988  0.00  0.00    +0.047 A 
BRANCH  24  29
ATOM     29  C   UNL     1      12.829   9.621  15.470  0.00  0.00    +0.230 C 
BRANCH  29   4
ATOM      4  O   UNL     1      13.496   8.377  15.245  0.00  0.00    -0.387 OA
ATOM     31  H   UNL     1      14.219   8.312  15.893  0.00  0.00    +0.210 HD
ENDBRANCH  29   4
ENDBRANCH  24  29
ENDBRANCH  14  19
ENDBRANCH   5  14
TORSDOF 6
ENDMDL
MODEL 6
REMARK VINA RESULT:      -6.5     26.732     29.790
REMARK  Name = 7155405
REMARK  7 active torsions:
REMARK  status: ('A' for Active; 'I' for Inactive)
REMARK    1  A    between atoms: S_1  and  C_28
REMARK    2  A    between atoms: S_1  and  C_30
REMARK    3  A    between atoms: O_4  and  C_29
REMARK    4  A    between atoms: N_5  and  C_14
REMARK    5  A    between atoms: C_14  and  C_19
REMARK    6  A    between atoms: C_15  and  C_20
REMARK    7  A    between atoms: C_24  and  C_29
REMARK                            x       y       z     vdW  Elec       q    Type
REMARK                         _______ _______ _______ _____ _____    ______ ____
ROOT
ATOM      2  O   UNL     1      -3.921 -12.673  19.175  0.00  0.00    -0.268 OA
ATOM      5  N   UNL     1      -5.636 -12.143  14.524  0.00  0.00    -0.294 NA
ATOM      6  N   UNL     1      -5.719 -12.537  17.680  0.00  0.00    -0.311 N 
ATOM      7  C   UNL     1      -6.043 -14.254  15.801  0.00  0.00    +0.024 C 
ATOM      8  C   UNL     1      -7.614 -12.392  16.037  0.00  0.00    +0.051 C 
ATOM      9  C   UNL     1      -7.516 -13.914  15.952  0.00  0.00    +0.017 C 
ATOM     10  C   UNL     1      -5.468 -13.600  14.529  0.00  0.00    +0.090 C 
ATOM     11  C   UNL     1      -7.041 -11.768  14.741  0.00  0.00    +0.094 C 
ATOM     12  C   UNL     1      -5.310 -13.811  17.069  0.00  0.00    +0.130 C 
ATOM     13  C   UNL     1      -6.882 -11.856  17.270  0.00  0.00    +0.034 A 
ATOM     15  C   UNL     1      -7.300 -10.759  17.953  0.00  0.00    +0.002 A 
ATOM     16  C   UNL     1      -4.937 -12.108  18.767  0.00  0.00    +0.252 A 
ATOM     17  C   UNL     1      -6.516 -10.284  19.078  0.00  0.00    +0.015 A 
ATOM     18  C   UNL     1      -5.397 -10.890  19.472  0.00  0.00    +0.071 A 
ENDROOT
BRANCH  15  20
ATOM     20  C   UNL     1      -8.526 -10.024  17.572  0.00  0.00    -0.016 A 
ATOM     22  C   UNL     1      -8.434  -8.916  16.736  0.00  0.00    +0.009 A 
ATOM     23  C   UNL     1      -9.761 -10.446  18.051  0.00  0.00    +0.009 A 
ATOM     26  C   UNL     1      -9.590  -8.222  16.376  0.00  0.00    +0.015 A 
ATOM     27  C   UNL     1     -10.917  -9.753  17.691  0.00  0.00    +0.015 A 
ATOM     28  C   UNL     1     -10.831  -8.641  16.854  0.00  0.00    +0.008 A 
BRANCH  28   1
ATOM      1  S   UNL     1     -12.308  -7.756  16.394  0.00  0.00    -0.129 S 
ATOM     30  C   UNL     1     -11.653  -6.101  16.039  0.00  0.00    +0.090 C 
ENDBRANCH  28   1
ENDBRANCH  15  20
BRANCH   5  14
ATOM     14  C   UNL     1      -5.126 -11.561  13.285  0.00  0.00    +0.158 C 
BRANCH  14  19
ATOM      3  O   UNL     1      -3.290 -10.944  14.707  0.00  0.00    -0.461 OA
ATOM     19  C   UNL     1      -3.718 -11.063  13.437  0.00  0.00    +0.119 A 
ATOM     21  C   UNL     1      -2.779 -10.701  12.531  0.00  0.00    +0.046 A 
ATOM     24  C   UNL     1      -2.014 -10.486  14.616  0.00  0.00    +0.131 A 
ATOM     25  C   UNL     1      -1.652 -10.320  13.299  0.00  0.00    +0.047 A 
BRANCH  24  29
ATOM     29  C   UNL     1      -1.309 -10.268  15.887  0.00  0.00    +0.230 C 
BRANCH  29   4
ATOM      4  O   UNL     1      -1.819 -11.200  16.843  0.00  0.00    -0.387 OA
ATOM     31  H   UNL     1      -1.970 -10.715  17.672  0.00  0.00    +0.210 HD
ENDBRANCH  29   4
ENDBRANCH  24  29
ENDBRANCH  14  19
ENDBRANCH   5  14
TORSDOF 6
ENDMDL
MODEL 7
REMARK VINA RESULT:      -6.3     14.755     18.655
REMARK  Name = 7155405
REMARK  7 active torsions:
REMARK  status: ('A' for Active; 'I' for Inactive)
REMARK    1  A    between atoms: S_1  and  C_28
REMARK    2  A    between atoms: S_1  and  C_30
REMARK    3  A    between atoms: O_4  and  C_29
REMARK    4  A    between atoms: N_5  and  C_14
REMARK    5  A    between atoms: C_14  and  C_19
REMARK    6  A    between atoms: C_15  and  C_20
REMARK    7  A    between atoms: C_24  and  C_29
REMARK                            x       y       z     vdW  Elec       q    Type
REMARK                         _______ _______ _______ _____ _____    ______ ____
ROOT
ATOM      2  O   UNL     1      12.963   9.607   6.500  0.00  0.00    -0.268 OA
ATOM      5  N   UNL     1       9.957   5.828   5.257  0.00  0.00    -0.294 NA
ATOM      6  N   UNL     1      10.806   8.727   6.257  0.00  0.00    -0.311 N 
ATOM      7  C   UNL     1      10.020   6.690   7.604  0.00  0.00    +0.024 C 
ATOM      8  C   UNL     1       8.513   7.738   5.986  0.00  0.00    +0.051 C 
ATOM      9  C   UNL     1       8.641   7.308   7.445  0.00  0.00    +0.017 C 
ATOM     10  C   UNL     1      10.176   5.478   6.665  0.00  0.00    +0.090 C 
ATOM     11  C   UNL     1       8.662   6.497   5.071  0.00  0.00    +0.094 C 
ATOM     12  C   UNL     1      11.070   7.772   7.343  0.00  0.00    +0.130 C 
ATOM     13  C   UNL     1       9.548   8.807   5.627  0.00  0.00    +0.034 A 
ATOM     15  C   UNL     1       9.303   9.795   4.728  0.00  0.00    +0.002 A 
ATOM     16  C   UNL     1      11.851   9.622   5.970  0.00  0.00    +0.252 A 
ATOM     17  C   UNL     1      10.359  10.735   4.403  0.00  0.00    +0.015 A 
ATOM     18  C   UNL     1      11.567  10.669   4.961  0.00  0.00    +0.071 A 
ENDROOT
BRANCH  15  20
ATOM     20  C   UNL     1       7.991   9.930   4.058  0.00  0.00    -0.016 A 
ATOM     22  C   UNL     1       6.935  10.540   4.726  0.00  0.00    +0.009 A 
ATOM     23  C   UNL     1       7.822   9.445   2.765  0.00  0.00    +0.009 A 
ATOM     26  C   UNL     1       5.697  10.668   4.094  0.00  0.00    +0.015 A 
ATOM     27  C   UNL     1       6.585   9.572   2.134  0.00  0.00    +0.015 A 
ATOM     28  C   UNL     1       5.523  10.183   2.799  0.00  0.00    +0.008 A 
BRANCH  28   1
ATOM      1  S   UNL     1       3.942  10.346   1.991  0.00  0.00    -0.129 S 
ATOM     30  C   UNL     1       4.187   9.351   0.493  0.00  0.00    +0.090 C 
ENDBRANCH  28   1
ENDBRANCH  15  20
BRANCH   5  14
ATOM     14  C   UNL     1      10.064   4.650   4.401  0.00  0.00    +0.158 C 
BRANCH  14  19
ATOM      3  O   UNL     1      11.676   3.797   2.836  0.00  0.00    -0.461 OA
ATOM     19  C   UNL     1      10.989   4.881   3.241  0.00  0.00    +0.119 A 
ATOM     21  C   UNL     1      11.272   5.985   2.510  0.00  0.00    +0.046 A 
ATOM     24  C   UNL     1      12.438   4.222   1.794  0.00  0.00    +0.131 A 
ATOM     25  C   UNL     1      12.226   5.560   1.554  0.00  0.00    +0.047 A 
BRANCH  24  29
ATOM     29  C   UNL     1      13.298   3.212   1.162  0.00  0.00    +0.230 C 
BRANCH  29   4
ATOM      4  O   UNL     1      14.552   3.206   1.848  0.00  0.00    -0.387 OA
ATOM     31  H   UNL     1      14.673   4.087   2.243  0.00  0.00    +0.210 HD
ENDBRANCH  29   4
ENDBRANCH  24  29
ENDBRANCH  14  19
ENDBRANCH   5  14
TORSDOF 6
ENDMDL
MODEL 8
REMARK VINA RESULT:      -6.1     27.328     29.665
REMARK  Name = 7155405
REMARK  7 active torsions:
REMARK  status: ('A' for Active; 'I' for Inactive)
REMARK    1  A    between atoms: S_1  and  C_28
REMARK    2  A    between atoms: S_1  and  C_30
REMARK    3  A    between atoms: O_4  and  C_29
REMARK    4  A    between atoms: N_5  and  C_14
REMARK    5  A    between atoms: C_14  and  C_19
REMARK    6  A    between atoms: C_15  and  C_20
REMARK    7  A    between atoms: C_24  and  C_29
REMARK                            x       y       z     vdW  Elec       q    Type
REMARK                         _______ _______ _______ _____ _____    ______ ____
ROOT
ATOM      2  O   UNL     1      -2.419 -15.169  12.045  0.00  0.00    -0.268 OA
ATOM      5  N   UNL     1      -4.274 -10.884  13.793  0.00  0.00    -0.294 NA
ATOM      6  N   UNL     1      -2.963 -12.914  11.724  0.00  0.00    -0.311 N 
ATOM      7  C   UNL     1      -1.873 -11.052  13.113  0.00  0.00    +0.024 C 
ATOM      8  C   UNL     1      -3.556 -10.491  11.428  0.00  0.00    +0.051 C 
ATOM      9  C   UNL     1      -2.130 -10.195  11.885  0.00  0.00    +0.017 C 
ATOM     10  C   UNL     1      -2.883 -10.712  14.227  0.00  0.00    +0.090 C 
ATOM     11  C   UNL     1      -4.545 -10.127  12.563  0.00  0.00    +0.094 C 
ATOM     12  C   UNL     1      -1.933 -12.524  12.698  0.00  0.00    +0.130 C 
ATOM     13  C   UNL     1      -3.716 -11.957  11.016  0.00  0.00    +0.034 A 
ATOM     15  C   UNL     1      -4.555 -12.354  10.024  0.00  0.00    +0.002 A 
ATOM     16  C   UNL     1      -3.064 -14.293  11.468  0.00  0.00    +0.252 A 
ATOM     17  C   UNL     1      -4.689 -13.769   9.735  0.00  0.00    +0.015 A 
ATOM     18  C   UNL     1      -4.011 -14.700  10.405  0.00  0.00    +0.071 A 
ENDROOT
BRANCH  15  20
ATOM     20  C   UNL     1      -5.350 -11.383   9.241  0.00  0.00    -0.016 A 
ATOM     22  C   UNL     1      -6.661 -11.106   9.613  0.00  0.00    +0.009 A 
ATOM     23  C   UNL     1      -4.781 -10.755   8.138  0.00  0.00    +0.009 A 
ATOM     26  C   UNL     1      -7.411 -10.190   8.875  0.00  0.00    +0.015 A 
ATOM     27  C   UNL     1      -5.531  -9.840   7.400  0.00  0.00    +0.015 A 
ATOM     28  C   UNL     1      -6.846  -9.558   7.768  0.00  0.00    +0.008 A 
BRANCH  28   1
ATOM      1  S   UNL     1      -7.804  -8.387   6.824  0.00  0.00    -0.129 S 
ATOM     30  C   UNL     1      -8.006  -7.031   8.013  0.00  0.00    +0.090 C 
ENDBRANCH  28   1
ENDBRANCH  15  20
BRANCH   5  14
ATOM     14  C   UNL     1      -5.204 -10.507  14.854  0.00  0.00    +0.158 C 
BRANCH  14  19
ATOM      3  O   UNL     1      -4.721 -11.061  17.142  0.00  0.00    -0.461 OA
ATOM     19  C   UNL     1      -5.215 -11.508  15.973  0.00  0.00    +0.119 A 
ATOM     21  C   UNL     1      -5.630 -12.795  16.037  0.00  0.00    +0.046 A 
ATOM     24  C   UNL     1      -4.823 -12.108  18.001  0.00  0.00    +0.131 A 
ATOM     25  C   UNL     1      -5.377 -13.199  17.370  0.00  0.00    +0.047 A 
BRANCH  24  29
ATOM     29  C   UNL     1      -4.343 -11.876  19.370  0.00  0.00    +0.230 C 
BRANCH  29   4
ATOM      4  O   UNL     1      -2.928 -12.077  19.383  0.00  0.00    -0.387 OA
ATOM     31  H   UNL     1      -2.511 -11.213  19.546  0.00  0.00    +0.210 HD
ENDBRANCH  29   4
ENDBRANCH  24  29
ENDBRANCH  14  19
ENDBRANCH   5  14
TORSDOF 6
ENDMDL
MODEL 9
REMARK VINA RESULT:      -6.1     14.810     17.844
REMARK  Name = 7155405
REMARK  7 active torsions:
REMARK  status: ('A' for Active; 'I' for Inactive)
REMARK    1  A    between atoms: S_1  and  C_28
REMARK    2  A    between atoms: S_1  and  C_30
REMARK    3  A    between atoms: O_4  and  C_29
REMARK    4  A    between atoms: N_5  and  C_14
REMARK    5  A    between atoms: C_14  and  C_19
REMARK    6  A    between atoms: C_15  and  C_20
REMARK    7  A    between atoms: C_24  and  C_29
REMARK                            x       y       z     vdW  Elec       q    Type
REMARK                         _______ _______ _______ _____ _____    ______ ____
ROOT
ATOM      2  O   UNL     1       7.150   9.362   4.740  0.00  0.00    -0.268 OA
ATOM      5  N   UNL     1      11.350   7.244   6.391  0.00  0.00    -0.294 NA
ATOM      6  N   UNL     1       8.652   7.565   4.736  0.00  0.00    -0.311 N 
ATOM      7  C   UNL     1       9.125   6.199   6.856  0.00  0.00    +0.024 C 
ATOM      8  C   UNL     1      10.288   5.659   4.771  0.00  0.00    +0.051 C 
ATOM      9  C   UNL     1       9.419   5.072   5.880  0.00  0.00    +0.017 C 
ATOM     10  C   UNL     1      10.439   6.762   7.435  0.00  0.00    +0.090 C 
ATOM     11  C   UNL     1      11.601   6.204   5.384  0.00  0.00    +0.094 C 
ATOM     12  C   UNL     1       8.300   7.265   6.132  0.00  0.00    +0.130 C 
ATOM     13  C   UNL     1       9.547   6.759   4.006  0.00  0.00    +0.034 A 
ATOM     15  C   UNL     1       9.736   6.986   2.680  0.00  0.00    +0.002 A 
ATOM     16  C   UNL     1       7.953   8.636   4.152  0.00  0.00    +0.252 A 
ATOM     17  C   UNL     1       9.035   8.086   2.044  0.00  0.00    +0.015 A 
ATOM     18  C   UNL     1       8.203   8.883   2.714  0.00  0.00    +0.071 A 
ENDROOT
BRANCH  15  20
ATOM     20  C   UNL     1      10.650   6.153   1.869  0.00  0.00    -0.016 A 
ATOM     22  C   UNL     1      10.168   5.005   1.247  0.00  0.00    +0.009 A 
ATOM     23  C   UNL     1      11.984   6.521   1.735  0.00  0.00    +0.009 A 
ATOM     26  C   UNL     1      11.030   4.219   0.483  0.00  0.00    +0.015 A 
ATOM     27  C   UNL     1      12.846   5.734   0.971  0.00  0.00    +0.015 A 
ATOM     28  C   UNL     1      12.369   4.583   0.345  0.00  0.00    +0.008 A 
BRANCH  28   1
ATOM      1  S   UNL     1      13.470   3.578  -0.632  0.00  0.00    -0.129 S 
ATOM     30  C   UNL     1      14.810   4.747  -0.998  0.00  0.00    +0.090 C 
ENDBRANCH  28   1
ENDBRANCH  15  20
BRANCH   5  14
ATOM     14  C   UNL     1      12.602   7.725   6.970  0.00  0.00    +0.158 C 
BRANCH  14  19
ATOM      3  O   UNL     1      14.732   7.916   5.875  0.00  0.00    -0.461 OA
ATOM     19  C   UNL     1      13.475   8.390   5.946  0.00  0.00    +0.119 A 
ATOM     21  C   UNL     1      13.241   9.392   5.065  0.00  0.00    +0.046 A 
ATOM     24  C   UNL     1      15.338   8.646   4.902  0.00  0.00    +0.131 A 
ATOM     25  C   UNL     1      14.464   9.567   4.372  0.00  0.00    +0.047 A 
BRANCH  24  29
ATOM     29  C   UNL     1      16.744   8.319   4.625  0.00  0.00    +0.230 C 
BRANCH  29   4
ATOM      4  O   UNL     1      16.774   7.328   3.595  0.00  0.00    -0.387 OA
ATOM     31  H   UNL     1      17.330   7.672   2.875  0.00  0.00    +0.210 HD
ENDBRANCH  29   4
ENDBRANCH  24  29
ENDBRANCH  14  19
ENDBRANCH   5  14
TORSDOF 6
ENDMDL
MODEL 10
REMARK VINA RESULT:      -6.1     12.321     15.705
REMARK  Name = 7155405
REMARK  7 active torsions:
REMARK  status: ('A' for Active; 'I' for Inactive)
REMARK    1  A    between atoms: S_1  and  C_28
REMARK    2  A    between atoms: S_1  and  C_30
REMARK    3  A    between atoms: O_4  and  C_29
REMARK    4  A    between atoms: N_5  and  C_14
REMARK    5  A    between atoms: C_14  and  C_19
REMARK    6  A    between atoms: C_15  and  C_20
REMARK    7  A    between atoms: C_24  and  C_29
REMARK                            x       y       z     vdW  Elec       q    Type
REMARK                         _______ _______ _______ _____ _____    ______ ____
ROOT
ATOM      2  O   UNL     1      11.302   5.449   8.450  0.00  0.00    -0.268 OA
ATOM      5  N   UNL     1      11.920  10.213   7.114  0.00  0.00    -0.294 NA
ATOM      6  N   UNL     1      11.306   7.107   6.796  0.00  0.00    -0.311 N 
ATOM      7  C   UNL     1      13.427   8.429   6.216  0.00  0.00    +0.024 C 
ATOM      8  C   UNL     1      11.328   8.919   5.055  0.00  0.00    +0.051 C 
ATOM      9  C   UNL     1      12.793   8.547   4.840  0.00  0.00    +0.017 C 
ATOM     10  C   UNL     1      13.310   9.766   6.976  0.00  0.00    +0.090 C 
ATOM     11  C   UNL     1      11.247  10.269   5.809  0.00  0.00    +0.094 C 
ATOM     12  C   UNL     1      12.757   7.273   6.961  0.00  0.00    +0.130 C 
ATOM     13  C   UNL     1      10.582   7.822   5.821  0.00  0.00    +0.034 A 
ATOM     15  C   UNL     1       9.272   7.538   5.606  0.00  0.00    +0.002 A 
ATOM     16  C   UNL     1      10.714   6.113   7.595  0.00  0.00    +0.252 A 
ATOM     17  C   UNL     1       8.626   6.521   6.414  0.00  0.00    +0.015 A 
ATOM     18  C   UNL     1       9.276   5.847   7.363  0.00  0.00    +0.071 A 
ENDROOT
BRANCH  15  20
ATOM     20  C   UNL     1       8.479   8.248   4.579  0.00  0.00    -0.016 A 
ATOM     22  C   UNL     1       7.546   9.205   4.967  0.00  0.00    +0.009 A 
ATOM     23  C   UNL     1       8.670   7.955   3.233  0.00  0.00    +0.009 A 
ATOM     26  C   UNL     1       6.798   9.875   3.999  0.00  0.00    +0.015 A 
ATOM     27  C   UNL     1       7.923   8.625   2.265  0.00  0.00    +0.015 A 
ATOM     28  C   UNL     1       6.986   9.584   2.648  0.00  0.00    +0.008 A 
BRANCH  28   1
ATOM      1  S   UNL     1       6.031  10.441   1.411  0.00  0.00    -0.129 S 
ATOM     30  C   UNL     1       4.429  10.629   2.244  0.00  0.00    +0.090 C 
ENDBRANCH  28   1
ENDBRANCH  15  20
BRANCH   5  14
ATOM     14  C   UNL     1      11.850  11.503   7.794  0.00  0.00    +0.158 C 
BRANCH  14  19
ATOM      3  O   UNL     1      11.286  11.720  10.120  0.00  0.00    -0.461 OA
ATOM     19  C   UNL     1      10.812  11.510   8.879  0.00  0.00    +0.119 A 
ATOM     21  C   UNL     1       9.468  11.343   8.853  0.00  0.00    +0.046 A 
ATOM     24  C   UNL     1      10.198  11.688  10.932  0.00  0.00    +0.131 A 
ATOM     25  C   UNL     1       9.055  11.459  10.201  0.00  0.00    +0.047 A 
BRANCH  24  29
ATOM     29  C   UNL     1      10.450  11.894  12.366  0.00  0.00    +0.230 C 
BRANCH  29   4
ATOM      4  O   UNL     1      11.861  11.830  12.582  0.00  0.00    -0.387 OA
ATOM     31  H   UNL     1      12.173  10.981  12.223  0.00  0.00    +0.210 HD
ENDBRANCH  29   4
ENDBRANCH  24  29
ENDBRANCH  14  19
ENDBRANCH   5  14
TORSDOF 6
ENDMDL
