MODEL 1
REMARK VINA RESULT:      -7.0      0.000      0.000
REMARK  Name = 56774253
REMARK  11 active torsions:
REMARK  status: ('A' for Active; 'I' for Inactive)
REMARK    1  A    between atoms: N_2  and  C_8
REMARK    2  A    between atoms: N_2  and  C_14
REMARK    3  A    between atoms: N_5  and  C_19
REMARK    4  A    between atoms: N_5  and  C_23
REMARK    5  A    between atoms: N_5  and  C_24
REMARK    6  A    between atoms: C_6  and  C_11
REMARK    7  A    between atoms: C_6  and  C_12
REMARK    8  A    between atoms: C_7  and  C_10
REMARK    9  A    between atoms: C_10  and  C_13
REMARK   10  A    between atoms: C_14  and  C_16
REMARK   11  A    between atoms: C_17  and  C_19
REMARK                            x       y       z     vdW  Elec       q    Type
REMARK                         _______ _______ _______ _____ _____    ______ ____
ROOT
ATOM      6  C   UNL     1      15.550   7.646  20.772  0.00  0.00    -0.016 C 
ATOM      7  C   UNL     1      16.789   6.735  20.650  0.00  0.00    +0.004 C 
ATOM      8  C   UNL     1      14.823   6.651  19.843  0.00  0.00    +0.060 C 
ATOM      9  C   UNL     1      16.213   6.260  19.300  0.00  0.00    +0.023 C 
ATOM     11  C   UNL     1      15.034   7.788  22.188  0.00  0.00    +0.013 C 
ATOM     12  C   UNL     1      15.684   9.021  20.140  0.00  0.00    +0.013 C 
ENDROOT
BRANCH   8   2
ATOM      2  N   UNL     1      14.082   7.351  18.793  0.00  0.00    -0.307 NA
ATOM     30  H   UNL     1      14.439   7.164  17.856  0.00  0.00    +0.123 HD
BRANCH   2  14
ATOM     14  C   UNL     1      12.679   6.953  18.840  0.00  0.00    +0.136 C 
BRANCH  14  16
ATOM      4  N   UNL     1      11.315   6.750  20.843  0.00  0.00    -0.259 NA
ATOM     16  C   UNL     1      11.955   7.587  19.998  0.00  0.00    +0.055 A 
ATOM     18  C   UNL     1      11.978   8.965  20.140  0.00  0.00    +0.024 A 
ATOM     20  C   UNL     1      11.302   9.519  21.220  0.00  0.00    +0.003 A 
ATOM     21  C   UNL     1      10.668   7.325  21.882  0.00  0.00    +0.111 A 
ATOM     22  C   UNL     1      10.632   8.690  22.113  0.00  0.00    +0.020 A 
ENDBRANCH  14  16
ENDBRANCH   2  14
ENDBRANCH   8   2
BRANCH   7  10
ATOM     10  C   UNL     1      18.157   7.424  20.554  0.00  0.00    +0.063 C 
BRANCH  10  13
ATOM      1  O   UNL     1      20.568   4.799  20.788  0.00  0.00    -0.358 OA
ATOM      3  N   UNL     1      19.505   5.439  20.162  0.00  0.00    -0.083 NA
ATOM     13  C   UNL     1      19.244   6.503  20.927  0.00  0.00    +0.084 A 
ATOM     15  C   UNL     1      20.101   6.586  22.038  0.00  0.00    +0.072 A 
ATOM     17  C   UNL     1      20.914   5.492  21.903  0.00  0.00    +0.155 A 
BRANCH  17  19
ATOM     19  C   UNL     1      22.056   4.938  22.711  0.00  0.00    +0.181 C 
BRANCH  19   5
ATOM      5  N   UNL     1      23.278   4.859  21.936  0.00  0.00    -0.326 N 
ATOM     24  C   UNL     1      23.774   6.049  21.275  0.00  0.00    +0.129 C 
BRANCH   5  23
ATOM     23  C   UNL     1      23.973   3.636  21.821  0.00  0.00    +0.030 A 
ATOM     25  C   UNL     1      25.276   3.526  22.305  0.00  0.00    +0.023 A 
ATOM     26  C   UNL     1      23.356   2.538  21.221  0.00  0.00    +0.023 A 
ATOM     27  C   UNL     1      25.963   2.317  22.190  0.00  0.00    +0.002 A 
ATOM     28  C   UNL     1      24.043   1.329  21.107  0.00  0.00    +0.002 A 
ATOM     29  C   UNL     1      25.346   1.219  21.591  0.00  0.00    +0.000 A 
ENDBRANCH   5  23
ENDBRANCH  19   5
ENDBRANCH  17  19
ENDBRANCH  10  13
ENDBRANCH   7  10
TORSDOF 8
ENDMDL
MODEL 2
REMARK VINA RESULT:      -6.8      1.884     10.743
REMARK  Name = 56774253
REMARK  11 active torsions:
REMARK  status: ('A' for Active; 'I' for Inactive)
REMARK    1  A    between atoms: N_2  and  C_8
REMARK    2  A    between atoms: N_2  and  C_14
REMARK    3  A    between atoms: N_5  and  C_19
REMARK    4  A    between atoms: N_5  and  C_23
REMARK    5  A    between atoms: N_5  and  C_24
REMARK    6  A    between atoms: C_6  and  C_11
REMARK    7  A    between atoms: C_6  and  C_12
REMARK    8  A    between atoms: C_7  and  C_10
REMARK    9  A    between atoms: C_10  and  C_13
REMARK   10  A    between atoms: C_14  and  C_16
REMARK   11  A    between atoms: C_17  and  C_19
REMARK                            x       y       z     vdW  Elec       q    Type
REMARK                         _______ _______ _______ _____ _____    ______ ____
ROOT
ATOM      6  C   UNL     1      20.115   6.872  21.331  0.00  0.00    -0.016 C 
ATOM      7  C   UNL     1      18.897   6.530  20.448  0.00  0.00    +0.004 C 
ATOM      8  C   UNL     1      20.884   5.781  20.557  0.00  0.00    +0.060 C 
ATOM      9  C   UNL     1      19.516   5.129  20.268  0.00  0.00    +0.023 C 
ATOM     11  C   UNL     1      20.592   8.301  21.185  0.00  0.00    +0.013 C 
ATOM     12  C   UNL     1      19.973   6.532  22.804  0.00  0.00    +0.013 C 
ENDROOT
BRANCH   8   2
ATOM      2  N   UNL     1      21.639   4.918  21.467  0.00  0.00    -0.307 NA
ATOM     30  H   UNL     1      21.108   4.107  21.786  0.00  0.00    +0.123 HD
BRANCH   2  14
ATOM     14  C   UNL     1      22.848   4.445  20.800  0.00  0.00    +0.136 C 
BRANCH  14  16
ATOM      4  N   UNL     1      24.131   2.384  20.658  0.00  0.00    -0.259 NA
ATOM     16  C   UNL     1      23.390   3.196  21.443  0.00  0.00    +0.055 A 
ATOM     18  C   UNL     1      23.113   2.945  22.777  0.00  0.00    +0.024 A 
ATOM     20  C   UNL     1      23.631   1.785  23.341  0.00  0.00    +0.003 A 
ATOM     21  C   UNL     1      24.617   1.265  21.241  0.00  0.00    +0.111 A 
ATOM     22  C   UNL     1      24.398   0.924  22.565  0.00  0.00    +0.020 A 
ENDBRANCH  14  16
ENDBRANCH   2  14
ENDBRANCH   8   2
BRANCH   7  10
ATOM     10  C   UNL     1      17.519   6.538  21.124  0.00  0.00    +0.063 C 
BRANCH  10  13
ATOM      1  O   UNL     1      15.057   6.989  18.578  0.00  0.00    -0.358 OA
ATOM      3  N   UNL     1      16.006   6.227  19.248  0.00  0.00    -0.083 NA
ATOM     13  C   UNL     1      16.479   7.029  20.206  0.00  0.00    +0.084 A 
ATOM     15  C   UNL     1      15.871   8.296  20.190  0.00  0.00    +0.072 A 
ATOM     17  C   UNL     1      14.984   8.218  19.149  0.00  0.00    +0.155 A 
BRANCH  17  19
ATOM     19  C   UNL     1      13.998   9.182  18.546  0.00  0.00    +0.181 C 
BRANCH  19   5
ATOM      5  N   UNL     1      12.639   8.686  18.626  0.00  0.00    -0.326 N 
ATOM     24  C   UNL     1      11.905   8.434  17.402  0.00  0.00    +0.129 C 
BRANCH   5  23
ATOM     23  C   UNL     1      12.035   8.458  19.881  0.00  0.00    +0.030 A 
ATOM     25  C   UNL     1      11.893   7.155  20.359  0.00  0.00    +0.023 A 
ATOM     26  C   UNL     1      11.579   9.535  20.641  0.00  0.00    +0.023 A 
ATOM     27  C   UNL     1      11.295   6.930  21.600  0.00  0.00    +0.002 A 
ATOM     28  C   UNL     1      10.983   9.308  21.882  0.00  0.00    +0.002 A 
ATOM     29  C   UNL     1      10.840   8.006  22.360  0.00  0.00    +0.000 A 
ENDBRANCH   5  23
ENDBRANCH  19   5
ENDBRANCH  17  19
ENDBRANCH  10  13
ENDBRANCH   7  10
TORSDOF 8
ENDMDL
MODEL 3
REMARK VINA RESULT:      -6.8     27.602     29.942
REMARK  Name = 56774253
REMARK  11 active torsions:
REMARK  status: ('A' for Active; 'I' for Inactive)
REMARK    1  A    between atoms: N_2  and  C_8
REMARK    2  A    between atoms: N_2  and  C_14
REMARK    3  A    between atoms: N_5  and  C_19
REMARK    4  A    between atoms: N_5  and  C_23
REMARK    5  A    between atoms: N_5  and  C_24
REMARK    6  A    between atoms: C_6  and  C_11
REMARK    7  A    between atoms: C_6  and  C_12
REMARK    8  A    between atoms: C_7  and  C_10
REMARK    9  A    between atoms: C_10  and  C_13
REMARK   10  A    between atoms: C_14  and  C_16
REMARK   11  A    between atoms: C_17  and  C_19
REMARK                            x       y       z     vdW  Elec       q    Type
REMARK                         _______ _______ _______ _____ _____    ______ ____
ROOT
ATOM      6  C   UNL     1      -6.416 -10.680  16.839  0.00  0.00    -0.016 C 
ATOM      7  C   UNL     1      -5.070 -10.465  17.560  0.00  0.00    +0.004 C 
ATOM      8  C   UNL     1      -7.099 -10.179  18.128  0.00  0.00    +0.060 C 
ATOM      9  C   UNL     1      -5.838 -10.643  18.885  0.00  0.00    +0.023 C 
ATOM     11  C   UNL     1      -6.580  -9.842  15.588  0.00  0.00    +0.013 C 
ATOM     12  C   UNL     1      -6.771 -12.125  16.531  0.00  0.00    +0.013 C 
ENDROOT
BRANCH   8   2
ATOM      2  N   UNL     1      -8.222 -11.039  18.503  0.00  0.00    -0.307 NA
ATOM     30  H   UNL     1      -8.066 -11.550  19.373  0.00  0.00    +0.123 HD
BRANCH   2  14
ATOM     14  C   UNL     1      -9.427 -10.230  18.653  0.00  0.00    +0.136 C 
BRANCH  14  16
ATOM      4  N   UNL     1     -10.124 -10.283  16.323  0.00  0.00    -0.259 NA
ATOM     16  C   UNL     1      -9.782  -9.511  17.378  0.00  0.00    +0.055 A 
ATOM     18  C   UNL     1      -9.743  -8.127  17.346  0.00  0.00    +0.024 A 
ATOM     20  C   UNL     1     -10.077  -7.494  16.155  0.00  0.00    +0.003 A 
ATOM     21  C   UNL     1     -10.443  -9.632  15.182  0.00  0.00    +0.111 A 
ATOM     22  C   UNL     1     -10.436  -8.254  15.047  0.00  0.00    +0.020 A 
ENDBRANCH  14  16
ENDBRANCH   2  14
ENDBRANCH   8   2
BRANCH   7  10
ATOM     10  C   UNL     1      -3.970 -11.507  17.313  0.00  0.00    +0.063 C 
BRANCH  10  13
ATOM      1  O   UNL     1      -1.368 -10.392  15.136  0.00  0.00    -0.358 OA
ATOM      3  N   UNL     1      -1.886 -10.652  16.398  0.00  0.00    -0.083 NA
ATOM     13  C   UNL     1      -3.117 -11.120  16.177  0.00  0.00    +0.084 A 
ATOM     15  C   UNL     1      -3.428 -11.179  14.807  0.00  0.00    +0.072 A 
ATOM     17  C   UNL     1      -2.295 -10.711  14.197  0.00  0.00    +0.155 A 
BRANCH  17  19
ATOM     19  C   UNL     1      -1.901 -10.491  12.761  0.00  0.00    +0.181 C 
BRANCH  19   5
ATOM      5  N   UNL     1      -2.906 -10.987  11.842  0.00  0.00    -0.326 N 
ATOM     24  C   UNL     1      -2.993 -12.412  11.593  0.00  0.00    +0.129 C 
BRANCH   5  23
ATOM     23  C   UNL     1      -3.783 -10.093  11.193  0.00  0.00    +0.030 A 
ATOM     25  C   UNL     1      -3.453  -9.578   9.940  0.00  0.00    +0.023 A 
ATOM     26  C   UNL     1      -4.981  -9.723  11.806  0.00  0.00    +0.023 A 
ATOM     27  C   UNL     1      -4.320  -8.693   9.299  0.00  0.00    +0.002 A 
ATOM     28  C   UNL     1      -5.848  -8.840  11.164  0.00  0.00    +0.002 A 
ATOM     29  C   UNL     1      -5.518  -8.324   9.911  0.00  0.00    +0.000 A 
ENDBRANCH   5  23
ENDBRANCH  19   5
ENDBRANCH  17  19
ENDBRANCH  10  13
ENDBRANCH   7  10
TORSDOF 8
ENDMDL
MODEL 4
REMARK VINA RESULT:      -6.7     27.609     30.275
REMARK  Name = 56774253
REMARK  11 active torsions:
REMARK  status: ('A' for Active; 'I' for Inactive)
REMARK    1  A    between atoms: N_2  and  C_8
REMARK    2  A    between atoms: N_2  and  C_14
REMARK    3  A    between atoms: N_5  and  C_19
REMARK    4  A    between atoms: N_5  and  C_23
REMARK    5  A    between atoms: N_5  and  C_24
REMARK    6  A    between atoms: C_6  and  C_11
REMARK    7  A    between atoms: C_6  and  C_12
REMARK    8  A    between atoms: C_7  and  C_10
REMARK    9  A    between atoms: C_10  and  C_13
REMARK   10  A    between atoms: C_14  and  C_16
REMARK   11  A    between atoms: C_17  and  C_19
REMARK                            x       y       z     vdW  Elec       q    Type
REMARK                         _______ _______ _______ _____ _____    ______ ____
ROOT
ATOM      6  C   UNL     1      -6.465 -11.093  17.834  0.00  0.00    -0.016 C 
ATOM      7  C   UNL     1      -5.413 -10.883  16.725  0.00  0.00    +0.004 C 
ATOM      8  C   UNL     1      -7.395 -10.171  17.019  0.00  0.00    +0.060 C 
ATOM      9  C   UNL     1      -6.121  -9.549  16.411  0.00  0.00    +0.023 C 
ATOM     11  C   UNL     1      -6.887 -12.536  18.009  0.00  0.00    +0.013 C 
ATOM     12  C   UNL     1      -6.117 -10.498  19.187  0.00  0.00    +0.013 C 
ENDROOT
BRANCH   8   2
ATOM      2  N   UNL     1      -8.045  -9.180  17.878  0.00  0.00    -0.307 NA
ATOM     30  H   UNL     1      -7.781  -8.219  17.656  0.00  0.00    +0.123 HD
BRANCH   2  14
ATOM     14  C   UNL     1      -9.493  -9.300  17.752  0.00  0.00    +0.136 C 
BRANCH  14  16
ATOM      4  N   UNL     1     -10.563 -11.472  17.515  0.00  0.00    -0.259 NA
ATOM     16  C   UNL     1     -10.004 -10.580  18.361  0.00  0.00    +0.055 A 
ATOM     18  C   UNL     1      -9.879 -10.779  19.727  0.00  0.00    +0.024 A 
ATOM     20  C   UNL     1     -10.359 -11.970  20.257  0.00  0.00    +0.003 A 
ATOM     21  C   UNL     1     -11.018 -12.620  18.066  0.00  0.00    +0.111 A 
ATOM     22  C   UNL     1     -10.940 -12.914  19.417  0.00  0.00    +0.020 A 
ENDBRANCH  14  16
ENDBRANCH   2  14
ENDBRANCH   8   2
BRANCH   7  10
ATOM     10  C   UNL     1      -3.950 -10.742  17.166  0.00  0.00    +0.063 C 
BRANCH  10  13
ATOM      1  O   UNL     1      -1.174 -10.760  14.919  0.00  0.00    -0.358 OA
ATOM      3  N   UNL     1      -1.721 -10.765  16.197  0.00  0.00    -0.083 NA
ATOM     13  C   UNL     1      -3.043 -10.742  16.006  0.00  0.00    +0.084 A 
ATOM     15  C   UNL     1      -3.386 -10.722  14.643  0.00  0.00    +0.072 A 
ATOM     17  C   UNL     1      -2.176 -10.735  14.003  0.00  0.00    +0.155 A 
BRANCH  17  19
ATOM     19  C   UNL     1      -1.763 -10.726  12.556  0.00  0.00    +0.181 C 
BRANCH  19   5
ATOM      5  N   UNL     1      -2.669 -11.499  11.730  0.00  0.00    -0.326 N 
ATOM     24  C   UNL     1      -2.870 -12.903  12.025  0.00  0.00    +0.129 C 
BRANCH   5  23
ATOM     23  C   UNL     1      -3.342 -10.893  10.648  0.00  0.00    +0.030 A 
ATOM     25  C   UNL     1      -4.022 -11.681   9.720  0.00  0.00    +0.023 A 
ATOM     26  C   UNL     1      -3.324  -9.505  10.505  0.00  0.00    +0.023 A 
ATOM     27  C   UNL     1      -4.687 -11.081   8.650  0.00  0.00    +0.002 A 
ATOM     28  C   UNL     1      -3.989  -8.906   9.436  0.00  0.00    +0.002 A 
ATOM     29  C   UNL     1      -4.670  -9.695   8.508  0.00  0.00    +0.000 A 
ENDBRANCH   5  23
ENDBRANCH  19   5
ENDBRANCH  17  19
ENDBRANCH  10  13
ENDBRANCH   7  10
TORSDOF 8
ENDMDL
MODEL 5
REMARK VINA RESULT:      -6.5     29.589     33.464
REMARK  Name = 56774253
REMARK  11 active torsions:
REMARK  status: ('A' for Active; 'I' for Inactive)
REMARK    1  A    between atoms: N_2  and  C_8
REMARK    2  A    between atoms: N_2  and  C_14
REMARK    3  A    between atoms: N_5  and  C_19
REMARK    4  A    between atoms: N_5  and  C_23
REMARK    5  A    between atoms: N_5  and  C_24
REMARK    6  A    between atoms: C_6  and  C_11
REMARK    7  A    between atoms: C_6  and  C_12
REMARK    8  A    between atoms: C_7  and  C_10
REMARK    9  A    between atoms: C_10  and  C_13
REMARK   10  A    between atoms: C_14  and  C_16
REMARK   11  A    between atoms: C_17  and  C_19
REMARK                            x       y       z     vdW  Elec       q    Type
REMARK                         _______ _______ _______ _____ _____    ______ ____
ROOT
ATOM      6  C   UNL     1     -14.651   6.813  21.417  0.00  0.00    -0.016 C 
ATOM      7  C   UNL     1     -14.868   5.470  22.144  0.00  0.00    +0.004 C 
ATOM      8  C   UNL     1     -13.271   6.271  20.991  0.00  0.00    +0.060 C 
ATOM      9  C   UNL     1     -13.332   5.356  22.231  0.00  0.00    +0.023 C 
ATOM     11  C   UNL     1     -15.664   7.085  20.325  0.00  0.00    +0.013 C 
ATOM     12  C   UNL     1     -14.531   8.032  22.314  0.00  0.00    +0.013 C 
ENDROOT
BRANCH   8   2
ATOM      2  N   UNL     1     -12.223   7.273  21.190  0.00  0.00    -0.307 NA
ATOM     30  H   UNL     1     -11.628   7.079  21.996  0.00  0.00    +0.123 HD
BRANCH   2  14
ATOM     14  C   UNL     1     -11.381   7.340  20.001  0.00  0.00    +0.136 C 
BRANCH  14  16
ATOM      4  N   UNL     1     -10.442   8.929  18.416  0.00  0.00    -0.259 NA
ATOM     16  C   UNL     1     -11.203   8.756  19.519  0.00  0.00    +0.055 A 
ATOM     18  C   UNL     1     -11.815   9.789  20.210  0.00  0.00    +0.024 A 
ATOM     20  C   UNL     1     -11.634  11.084  19.738  0.00  0.00    +0.003 A 
ATOM     21  C   UNL     1     -10.288  10.202  17.987  0.00  0.00    +0.111 A 
ATOM     22  C   UNL     1     -10.857  11.303  18.606  0.00  0.00    +0.020 A 
ENDBRANCH  14  16
ENDBRANCH   2  14
ENDBRANCH   8   2
BRANCH   7  10
ATOM     10  C   UNL     1     -15.584   5.517  23.501  0.00  0.00    +0.063 C 
BRANCH  10  13
ATOM      1  O   UNL     1     -16.418   2.063  23.857  0.00  0.00    -0.358 OA
ATOM      3  N   UNL     1     -16.133   3.186  23.089  0.00  0.00    -0.083 NA
ATOM     13  C   UNL     1     -15.919   4.164  23.973  0.00  0.00    +0.084 A 
ATOM     15  C   UNL     1     -16.053   3.723  25.301  0.00  0.00    +0.072 A 
ATOM     17  C   UNL     1     -16.366   2.396  25.172  0.00  0.00    +0.155 A 
BRANCH  17  19
ATOM     19  C   UNL     1     -16.650   1.292  26.156  0.00  0.00    +0.181 C 
BRANCH  19   5
ATOM      5  N   UNL     1     -16.997   1.811  27.464  0.00  0.00    -0.326 N 
ATOM     24  C   UNL     1     -18.356   2.247  27.714  0.00  0.00    +0.129 C 
BRANCH   5  23
ATOM     23  C   UNL     1     -16.022   1.896  28.480  0.00  0.00    +0.030 A 
ATOM     25  C   UNL     1     -15.562   0.737  29.105  0.00  0.00    +0.023 A 
ATOM     26  C   UNL     1     -15.518   3.141  28.861  0.00  0.00    +0.023 A 
ATOM     27  C   UNL     1     -14.598   0.822  30.109  0.00  0.00    +0.002 A 
ATOM     28  C   UNL     1     -14.554   3.225  29.865  0.00  0.00    +0.002 A 
ATOM     29  C   UNL     1     -14.094   2.065  30.489  0.00  0.00    +0.000 A 
ENDBRANCH   5  23
ENDBRANCH  19   5
ENDBRANCH  17  19
ENDBRANCH  10  13
ENDBRANCH   7  10
TORSDOF 8
ENDMDL
MODEL 6
REMARK VINA RESULT:      -6.5      2.382     10.612
REMARK  Name = 56774253
REMARK  11 active torsions:
REMARK  status: ('A' for Active; 'I' for Inactive)
REMARK    1  A    between atoms: N_2  and  C_8
REMARK    2  A    between atoms: N_2  and  C_14
REMARK    3  A    between atoms: N_5  and  C_19
REMARK    4  A    between atoms: N_5  and  C_23
REMARK    5  A    between atoms: N_5  and  C_24
REMARK    6  A    between atoms: C_6  and  C_11
REMARK    7  A    between atoms: C_6  and  C_12
REMARK    8  A    between atoms: C_7  and  C_10
REMARK    9  A    between atoms: C_10  and  C_13
REMARK   10  A    between atoms: C_14  and  C_16
REMARK   11  A    between atoms: C_17  and  C_19
REMARK                            x       y       z     vdW  Elec       q    Type
REMARK                         _______ _______ _______ _____ _____    ______ ____
ROOT
ATOM      6  C   UNL     1      19.679   7.563  21.494  0.00  0.00    -0.016 C 
ATOM      7  C   UNL     1      18.554   6.877  20.692  0.00  0.00    +0.004 C 
ATOM      8  C   UNL     1      20.677   6.775  20.619  0.00  0.00    +0.060 C 
ATOM      9  C   UNL     1      19.554   5.739  20.407  0.00  0.00    +0.023 C 
ATOM     11  C   UNL     1      19.682   9.072  21.373  0.00  0.00    +0.013 C 
ATOM     12  C   UNL     1      19.774   7.171  22.958  0.00  0.00    +0.013 C 
ENDROOT
BRANCH   8   2
ATOM      2  N   UNL     1      21.734   6.172  21.431  0.00  0.00    -0.307 NA
ATOM     30  H   UNL     1      21.497   5.240  21.773  0.00  0.00    +0.123 HD
BRANCH   2  14
ATOM     14  C   UNL     1      22.959   6.079  20.646  0.00  0.00    +0.136 C 
BRANCH  14  16
ATOM      4  N   UNL     1      24.586   4.459  19.839  0.00  0.00    -0.259 NA
ATOM     16  C   UNL     1      23.489   4.670  20.600  0.00  0.00    +0.055 A 
ATOM     18  C   UNL     1      22.845   3.679  21.324  0.00  0.00    +0.024 A 
ATOM     20  C   UNL     1      23.361   2.390  21.263  0.00  0.00    +0.003 A 
ATOM     21  C   UNL     1      25.058   3.193  19.804  0.00  0.00    +0.111 A 
ATOM     22  C   UNL     1      24.488   2.134  20.491  0.00  0.00    +0.020 A 
ENDBRANCH  14  16
ENDBRANCH   2  14
ENDBRANCH   8   2
BRANCH   7  10
ATOM     10  C   UNL     1      17.302   6.449  21.471  0.00  0.00    +0.063 C 
BRANCH  10  13
ATOM      1  O   UNL     1      14.849   6.399  18.876  0.00  0.00    -0.358 OA
ATOM      3  N   UNL     1      16.131   6.166  19.359  0.00  0.00    -0.083 NA
ATOM     13  C   UNL     1      16.094   6.557  20.637  0.00  0.00    +0.084 A 
ATOM     15  C   UNL     1      14.828   7.039  21.011  0.00  0.00    +0.072 A 
ATOM     17  C   UNL     1      14.083   6.917  19.869  0.00  0.00    +0.155 A 
BRANCH  17  19
ATOM     19  C   UNL     1      12.653   7.232  19.520  0.00  0.00    +0.181 C 
BRANCH  19   5
ATOM      5  N   UNL     1      12.444   8.653  19.327  0.00  0.00    -0.326 N 
ATOM     24  C   UNL     1      11.818   9.425  20.381  0.00  0.00    +0.129 C 
BRANCH   5  23
ATOM     23  C   UNL     1      12.839   9.276  18.124  0.00  0.00    +0.030 A 
ATOM     25  C   UNL     1      12.264   8.886  16.915  0.00  0.00    +0.023 A 
ATOM     26  C   UNL     1      13.808  10.280  18.144  0.00  0.00    +0.023 A 
ATOM     27  C   UNL     1      12.655   9.501  15.725  0.00  0.00    +0.002 A 
ATOM     28  C   UNL     1      14.198  10.896  16.955  0.00  0.00    +0.002 A 
ATOM     29  C   UNL     1      13.622  10.505  15.745  0.00  0.00    +0.000 A 
ENDBRANCH   5  23
ENDBRANCH  19   5
ENDBRANCH  17  19
ENDBRANCH  10  13
ENDBRANCH   7  10
TORSDOF 8
ENDMDL
MODEL 7
REMARK VINA RESULT:      -6.4     27.176     30.208
REMARK  Name = 56774253
REMARK  11 active torsions:
REMARK  status: ('A' for Active; 'I' for Inactive)
REMARK    1  A    between atoms: N_2  and  C_8
REMARK    2  A    between atoms: N_2  and  C_14
REMARK    3  A    between atoms: N_5  and  C_19
REMARK    4  A    between atoms: N_5  and  C_23
REMARK    5  A    between atoms: N_5  and  C_24
REMARK    6  A    between atoms: C_6  and  C_11
REMARK    7  A    between atoms: C_6  and  C_12
REMARK    8  A    between atoms: C_7  and  C_10
REMARK    9  A    between atoms: C_10  and  C_13
REMARK   10  A    between atoms: C_14  and  C_16
REMARK   11  A    between atoms: C_17  and  C_19
REMARK                            x       y       z     vdW  Elec       q    Type
REMARK                         _______ _______ _______ _____ _____    ______ ____
ROOT
ATOM      6  C   UNL     1      -5.864  -9.175   9.734  0.00  0.00    -0.016 C 
ATOM      7  C   UNL     1      -4.677 -10.157   9.810  0.00  0.00    +0.004 C 
ATOM      8  C   UNL     1      -6.167  -9.769   8.342  0.00  0.00    +0.060 C 
ATOM      9  C   UNL     1      -4.675 -10.155   8.267  0.00  0.00    +0.023 C 
ATOM     11  C   UNL     1      -6.896  -9.380  10.822  0.00  0.00    +0.013 C 
ATOM     12  C   UNL     1      -5.493  -7.704   9.657  0.00  0.00    +0.013 C 
ENDROOT
BRANCH   8   2
ATOM      2  N   UNL     1      -6.435  -8.715   7.363  0.00  0.00    -0.307 NA
ATOM     30  H   UNL     1      -5.831  -8.765   6.542  0.00  0.00    +0.123 HD
BRANCH   2  14
ATOM     14  C   UNL     1      -7.823  -8.802   6.921  0.00  0.00    +0.136 C 
BRANCH  14  16
ATOM      4  N   UNL     1      -9.778  -8.375   8.304  0.00  0.00    -0.259 NA
ATOM     16  C   UNL     1      -8.711  -7.843   7.670  0.00  0.00    +0.055 A 
ATOM     18  C   UNL     1      -8.399  -6.492   7.674  0.00  0.00    +0.024 A 
ATOM     20  C   UNL     1      -9.237  -5.634   8.375  0.00  0.00    +0.003 A 
ATOM     21  C   UNL     1     -10.570  -7.510   8.976  0.00  0.00    +0.111 A 
ATOM     22  C   UNL     1     -10.346  -6.145   9.042  0.00  0.00    +0.020 A 
ENDBRANCH  14  16
ENDBRANCH   2  14
ENDBRANCH   8   2
BRANCH   7  10
ATOM     10  C   UNL     1      -3.382  -9.641  10.451  0.00  0.00    +0.063 C 
BRANCH  10  13
ATOM      1  O   UNL     1      -1.817 -11.524  13.051  0.00  0.00    -0.358 OA
ATOM      3  N   UNL     1      -1.790 -10.846  11.838  0.00  0.00    -0.083 NA
ATOM     13  C   UNL     1      -3.041 -10.414  11.657  0.00  0.00    +0.084 A 
ATOM     15  C   UNL     1      -3.893 -10.784  12.712  0.00  0.00    +0.072 A 
ATOM     17  C   UNL     1      -3.073 -11.479  13.562  0.00  0.00    +0.155 A 
BRANCH  17  19
ATOM     19  C   UNL     1      -3.287 -12.168  14.883  0.00  0.00    +0.181 C 
BRANCH  19   5
ATOM      5  N   UNL     1      -3.152 -11.252  15.998  0.00  0.00    -0.326 N 
ATOM     24  C   UNL     1      -1.857 -10.666  16.278  0.00  0.00    +0.129 C 
BRANCH   5  23
ATOM     23  C   UNL     1      -4.267 -10.941  16.805  0.00  0.00    +0.030 A 
ATOM     25  C   UNL     1      -5.319 -10.191  16.281  0.00  0.00    +0.023 A 
ATOM     26  C   UNL     1      -4.315 -11.383  18.127  0.00  0.00    +0.023 A 
ATOM     27  C   UNL     1      -6.421  -9.883  17.080  0.00  0.00    +0.002 A 
ATOM     28  C   UNL     1      -5.417 -11.076  18.925  0.00  0.00    +0.002 A 
ATOM     29  C   UNL     1      -6.470 -10.325  18.401  0.00  0.00    +0.000 A 
ENDBRANCH   5  23
ENDBRANCH  19   5
ENDBRANCH  17  19
ENDBRANCH  10  13
ENDBRANCH   7  10
TORSDOF 8
ENDMDL
MODEL 8
REMARK VINA RESULT:      -6.3     30.018     33.098
REMARK  Name = 56774253
REMARK  11 active torsions:
REMARK  status: ('A' for Active; 'I' for Inactive)
REMARK    1  A    between atoms: N_2  and  C_8
REMARK    2  A    between atoms: N_2  and  C_14
REMARK    3  A    between atoms: N_5  and  C_19
REMARK    4  A    between atoms: N_5  and  C_23
REMARK    5  A    between atoms: N_5  and  C_24
REMARK    6  A    between atoms: C_6  and  C_11
REMARK    7  A    between atoms: C_6  and  C_12
REMARK    8  A    between atoms: C_7  and  C_10
REMARK    9  A    between atoms: C_10  and  C_13
REMARK   10  A    between atoms: C_14  and  C_16
REMARK   11  A    between atoms: C_17  and  C_19
REMARK                            x       y       z     vdW  Elec       q    Type
REMARK                         _______ _______ _______ _____ _____    ______ ____
ROOT
ATOM      6  C   UNL     1       1.479   2.417  -5.572  0.00  0.00    -0.016 C 
ATOM      7  C   UNL     1       2.315   3.711  -5.650  0.00  0.00    +0.004 C 
ATOM      8  C   UNL     1       1.111   2.658  -7.051  0.00  0.00    +0.060 C 
ATOM      9  C   UNL     1       1.383   4.155  -6.796  0.00  0.00    +0.023 C 
ATOM     11  C   UNL     1       2.294   1.184  -5.245  0.00  0.00    +0.013 C 
ATOM     12  C   UNL     1       0.262   2.477  -4.666  0.00  0.00    +0.013 C 
ENDROOT
BRANCH   8   2
ATOM      2  N   UNL     1      -0.322   2.466  -7.279  0.00  0.00    -0.307 NA
ATOM     30  H   UNL     1      -0.801   3.320  -7.568  0.00  0.00    +0.123 HD
BRANCH   2  14
ATOM     14  C   UNL     1      -0.520   1.454  -8.311  0.00  0.00    +0.136 C 
BRANCH  14  16
ATOM      4  N   UNL     1      -2.698   0.375  -8.407  0.00  0.00    -0.259 NA
ATOM     16  C   UNL     1      -1.463   0.371  -7.859  0.00  0.00    +0.055 A 
ATOM     18  C   UNL     1      -1.032  -0.559  -6.926  0.00  0.00    +0.024 A 
ATOM     20  C   UNL     1      -1.925  -1.547  -6.531  0.00  0.00    +0.003 A 
ATOM     21  C   UNL     1      -3.540  -0.601  -7.998  0.00  0.00    +0.111 A 
ATOM     22  C   UNL     1      -3.206  -1.575  -7.073  0.00  0.00    +0.020 A 
ENDBRANCH  14  16
ENDBRANCH   2  14
ENDBRANCH   8   2
BRANCH   7  10
ATOM     10  C   UNL     1       2.298   4.630  -4.420  0.00  0.00    +0.063 C 
BRANCH  10  13
ATOM      1  O   UNL     1       3.218   7.884  -5.567  0.00  0.00    -0.358 OA
ATOM      3  N   UNL     1       3.500   6.550  -5.302  0.00  0.00    -0.083 NA
ATOM     13  C   UNL     1       2.363   6.047  -4.814  0.00  0.00    +0.084 A 
ATOM     15  C   UNL     1       1.338   7.007  -4.750  0.00  0.00    +0.072 A 
ATOM     17  C   UNL     1       1.927   8.143  -5.236  0.00  0.00    +0.155 A 
BRANCH  17  19
ATOM     19  C   UNL     1       1.446   9.552  -5.460  0.00  0.00    +0.181 C 
BRANCH  19   5
ATOM      5  N   UNL     1       1.045  10.190  -4.222  0.00  0.00    -0.326 N 
ATOM     24  C   UNL     1       2.057  10.533  -3.243  0.00  0.00    +0.129 C 
BRANCH   5  23
ATOM     23  C   UNL     1      -0.316  10.466  -3.969  0.00  0.00    +0.030 A 
ATOM     25  C   UNL     1      -0.910  10.022  -2.788  0.00  0.00    +0.023 A 
ATOM     26  C   UNL     1      -1.066  11.182  -4.902  0.00  0.00    +0.023 A 
ATOM     27  C   UNL     1      -2.255  10.295  -2.539  0.00  0.00    +0.002 A 
ATOM     28  C   UNL     1      -2.411  11.456  -4.652  0.00  0.00    +0.002 A 
ATOM     29  C   UNL     1      -3.005  11.011  -3.471  0.00  0.00    +0.000 A 
ENDBRANCH   5  23
ENDBRANCH  19   5
ENDBRANCH  17  19
ENDBRANCH  10  13
ENDBRANCH   7  10
TORSDOF 8
ENDMDL
MODEL 9
REMARK VINA RESULT:      -6.2     28.129     31.335
REMARK  Name = 56774253
REMARK  11 active torsions:
REMARK  status: ('A' for Active; 'I' for Inactive)
REMARK    1  A    between atoms: N_2  and  C_8
REMARK    2  A    between atoms: N_2  and  C_14
REMARK    3  A    between atoms: N_5  and  C_19
REMARK    4  A    between atoms: N_5  and  C_23
REMARK    5  A    between atoms: N_5  and  C_24
REMARK    6  A    between atoms: C_6  and  C_11
REMARK    7  A    between atoms: C_6  and  C_12
REMARK    8  A    between atoms: C_7  and  C_10
REMARK    9  A    between atoms: C_10  and  C_13
REMARK   10  A    between atoms: C_14  and  C_16
REMARK   11  A    between atoms: C_17  and  C_19
REMARK                            x       y       z     vdW  Elec       q    Type
REMARK                         _______ _______ _______ _____ _____    ______ ____
ROOT
ATOM      6  C   UNL     1      -3.896 -11.186  15.941  0.00  0.00    -0.016 C 
ATOM      7  C   UNL     1      -4.409 -10.596  17.271  0.00  0.00    +0.004 C 
ATOM      8  C   UNL     1      -4.854 -10.210  15.227  0.00  0.00    +0.060 C 
ATOM      9  C   UNL     1      -5.701 -10.218  16.517  0.00  0.00    +0.023 C 
ATOM     11  C   UNL     1      -2.410 -10.995  15.722  0.00  0.00    +0.013 C 
ATOM     12  C   UNL     1      -4.265 -12.637  15.683  0.00  0.00    +0.013 C 
ENDROOT
BRANCH   8   2
ATOM      2  N   UNL     1      -5.601 -10.883  14.164  0.00  0.00    -0.307 NA
ATOM     30  H   UNL     1      -6.411 -11.400  14.506  0.00  0.00    +0.123 HD
BRANCH   2  14
ATOM     14  C   UNL     1      -6.060  -9.896  13.192  0.00  0.00    +0.136 C 
BRANCH  14  16
ATOM      4  N   UNL     1      -5.351  -8.738  11.174  0.00  0.00    -0.259 NA
ATOM     16  C   UNL     1      -5.060  -9.693  12.084  0.00  0.00    +0.055 A 
ATOM     18  C   UNL     1      -3.916 -10.474  12.051  0.00  0.00    +0.024 A 
ATOM     20  C   UNL     1      -3.012 -10.260  11.018  0.00  0.00    +0.003 A 
ATOM     21  C   UNL     1      -4.449  -8.558  10.183  0.00  0.00    +0.111 A 
ATOM     22  C   UNL     1      -3.276  -9.285  10.061  0.00  0.00    +0.020 A 
ENDBRANCH  14  16
ENDBRANCH   2  14
ENDBRANCH   8   2
BRANCH   7  10
ATOM     10  C   UNL     1      -4.613 -11.573  18.437  0.00  0.00    +0.063 C 
BRANCH  10  13
ATOM      1  O   UNL     1      -7.679 -10.837  20.114  0.00  0.00    -0.358 OA
ATOM      3  N   UNL     1      -6.328 -10.619  19.872  0.00  0.00    -0.083 NA
ATOM     13  C   UNL     1      -5.995 -11.518  18.941  0.00  0.00    +0.084 A 
ATOM     15  C   UNL     1      -7.083 -12.322  18.561  0.00  0.00    +0.072 A 
ATOM     17  C   UNL     1      -8.117 -11.853  19.327  0.00  0.00    +0.155 A 
BRANCH  17  19
ATOM     19  C   UNL     1      -9.569 -12.227  19.459  0.00  0.00    +0.181 C 
BRANCH  19   5
ATOM      5  N   UNL     1     -10.322 -11.900  18.264  0.00  0.00    -0.326 N 
ATOM     24  C   UNL     1     -11.309 -12.840  17.771  0.00  0.00    +0.129 C 
BRANCH   5  23
ATOM     23  C   UNL     1     -10.092 -10.684  17.586  0.00  0.00    +0.030 A 
ATOM     25  C   UNL     1     -10.450  -9.474  18.183  0.00  0.00    +0.023 A 
ATOM     26  C   UNL     1      -9.509 -10.692  16.319  0.00  0.00    +0.023 A 
ATOM     27  C   UNL     1     -10.223  -8.273  17.512  0.00  0.00    +0.002 A 
ATOM     28  C   UNL     1      -9.282  -9.489  15.649  0.00  0.00    +0.002 A 
ATOM     29  C   UNL     1      -9.640  -8.280  16.245  0.00  0.00    +0.000 A 
ENDBRANCH   5  23
ENDBRANCH  19   5
ENDBRANCH  17  19
ENDBRANCH  10  13
ENDBRANCH   7  10
TORSDOF 8
ENDMDL
MODEL 10
REMARK VINA RESULT:      -6.2     28.013     32.055
REMARK  Name = 56774253
REMARK  11 active torsions:
REMARK  status: ('A' for Active; 'I' for Inactive)
REMARK    1  A    between atoms: N_2  and  C_8
REMARK    2  A    between atoms: N_2  and  C_14
REMARK    3  A    between atoms: N_5  and  C_19
REMARK    4  A    between atoms: N_5  and  C_23
REMARK    5  A    between atoms: N_5  and  C_24
REMARK    6  A    between atoms: C_6  and  C_11
REMARK    7  A    between atoms: C_6  and  C_12
REMARK    8  A    between atoms: C_7  and  C_10
REMARK    9  A    between atoms: C_10  and  C_13
REMARK   10  A    between atoms: C_14  and  C_16
REMARK   11  A    between atoms: C_17  and  C_19
REMARK                            x       y       z     vdW  Elec       q    Type
REMARK                         _______ _______ _______ _____ _____    ______ ____
ROOT
ATOM      6  C   UNL     1      -4.772 -11.361  16.062  0.00  0.00    -0.016 C 
ATOM      7  C   UNL     1      -5.841 -12.011  16.963  0.00  0.00    +0.004 C 
ATOM      8  C   UNL     1      -4.588 -12.748  15.411  0.00  0.00    +0.060 C 
ATOM      9  C   UNL     1      -5.115 -13.351  16.730  0.00  0.00    +0.023 C 
ATOM     11  C   UNL     1      -5.305 -10.244  15.190  0.00  0.00    +0.013 C 
ATOM     12  C   UNL     1      -3.512 -10.894  16.771  0.00  0.00    +0.013 C 
ENDROOT
BRANCH   8   2
ATOM      2  N   UNL     1      -3.171 -13.083  15.267  0.00  0.00    -0.307 NA
ATOM     30  H   UNL     1      -2.864 -13.819  15.904  0.00  0.00    +0.123 HD
BRANCH   2  14
ATOM     14  C   UNL     1      -2.909 -13.518  13.900  0.00  0.00    +0.136 C 
BRANCH  14  16
ATOM      4  N   UNL     1      -2.053 -11.308  13.349  0.00  0.00    -0.259 NA
ATOM     16  C   UNL     1      -2.811 -12.353  12.950  0.00  0.00    +0.055 A 
ATOM     18  C   UNL     1      -3.485 -12.405  11.741  0.00  0.00    +0.024 A 
ATOM     20  C   UNL     1      -3.373 -11.315  10.886  0.00  0.00    +0.003 A 
ATOM     21  C   UNL     1      -1.967 -10.266  12.493  0.00  0.00    +0.111 A 
ATOM     22  C   UNL     1      -2.601 -10.221  11.262  0.00  0.00    +0.020 A 
ENDBRANCH  14  16
ENDBRANCH   2  14
ENDBRANCH   8   2
BRANCH   7  10
ATOM     10  C   UNL     1      -5.890 -11.558  18.429  0.00  0.00    +0.063 C 
BRANCH  10  13
ATOM      1  O   UNL     1      -9.075 -11.361  20.031  0.00  0.00    -0.358 OA
ATOM      3  N   UNL     1      -7.784 -11.863  19.921  0.00  0.00    -0.083 NA
ATOM     13  C   UNL     1      -7.269 -11.258  18.847  0.00  0.00    +0.084 A 
ATOM     15  C   UNL     1      -8.179 -10.372  18.246  0.00  0.00    +0.072 A 
ATOM     17  C   UNL     1      -9.298 -10.474  19.029  0.00  0.00    +0.155 A 
BRANCH  17  19
ATOM     19  C   UNL     1     -10.657  -9.826  18.994  0.00  0.00    +0.181 C 
BRANCH  19   5
ATOM      5  N   UNL     1     -11.226  -9.836  17.661  0.00  0.00    -0.326 N 
ATOM     24  C   UNL     1     -11.371 -11.098  16.964  0.00  0.00    +0.129 C 
BRANCH   5  23
ATOM     23  C   UNL     1     -11.626  -8.631  17.047  0.00  0.00    +0.030 A 
ATOM     25  C   UNL     1     -12.916  -8.506  16.531  0.00  0.00    +0.023 A 
ATOM     26  C   UNL     1     -10.732  -7.564  16.955  0.00  0.00    +0.023 A 
ATOM     27  C   UNL     1     -13.312  -7.315  15.923  0.00  0.00    +0.002 A 
ATOM     28  C   UNL     1     -11.129  -6.373  16.348  0.00  0.00    +0.002 A 
ATOM     29  C   UNL     1     -12.418  -6.248  15.831  0.00  0.00    +0.000 A 
ENDBRANCH   5  23
ENDBRANCH  19   5
ENDBRANCH  17  19
ENDBRANCH  10  13
ENDBRANCH   7  10
TORSDOF 8
ENDMDL
