MODEL 1
REMARK VINA RESULT:      -7.6      0.000      0.000
REMARK  Name = 11867158
REMARK  6 active torsions:
REMARK  status: ('A' for Active; 'I' for Inactive)
REMARK    1  A    between atoms: S_1  and  N_10
REMARK    2  A    between atoms: S_1  and  C_24
REMARK    3  A    between atoms: O_4  and  C_23
REMARK    4  A    between atoms: N_10  and  C_21
REMARK    5  A    between atoms: C_20  and  C_23
REMARK    6  A    between atoms: C_29  and  C_30
REMARK                            x       y       z     vdW  Elec       q    Type
REMARK                         _______ _______ _______ _____ _____    ______ ____
ROOT
ATOM      2  O   UNL     1      13.698   7.200   3.749  0.00  0.00    -0.266 OA
ATOM      3  O   UNL     1       9.723   4.140   6.228  0.00  0.00    -0.263 OA
ATOM      8  N   UNL     1      11.362   7.341   3.869  0.00  0.00    -0.310 N 
ATOM      9  N   UNL     1       9.345   6.447   6.212  0.00  0.00    -0.291 N 
ATOM     11  C   UNL     1      10.137   8.747   5.619  0.00  0.00    +0.027 C 
ATOM     12  C   UNL     1       8.847   7.441   3.984  0.00  0.00    +0.054 C 
ATOM     13  C   UNL     1       9.031   8.837   4.575  0.00  0.00    +0.018 C 
ATOM     14  C   UNL     1      11.446   8.360   4.921  0.00  0.00    +0.130 C 
ATOM     15  C   UNL     1       9.761   7.750   6.732  0.00  0.00    +0.113 C 
ATOM     16  C   UNL     1       8.400   6.472   5.093  0.00  0.00    +0.118 C 
ATOM     17  C   UNL     1      10.128   6.938   3.344  0.00  0.00    +0.027 A 
ATOM     18  C   UNL     1      10.075   6.093   2.299  0.00  0.00    +0.024 A 
ATOM     19  C   UNL     1      12.585   6.872   3.343  0.00  0.00    +0.274 A 
ATOM     20  C   UNL     1       9.686   5.228   6.791  0.00  0.00    +0.324 C 
ATOM     21  C   UNL     1      12.461   5.923   2.208  0.00  0.00    +0.112 A 
ATOM     22  C   UNL     1      11.276   5.566   1.710  0.00  0.00    +0.031 A 
ENDROOT
BRANCH  20  23
ATOM      5  O   UNL     1       9.222   4.862   9.086  0.00  0.00    -0.240 OA
ATOM     23  C   UNL     1      10.049   5.084   8.224  0.00  0.00    +0.392 C 
BRANCH  23   4
ATOM      4  O   UNL     1      11.373   5.231   8.362  0.00  0.00    -0.474 OA
ATOM     32  H   UNL     1      11.788   4.462   8.807  0.00  0.00    +0.296 HD
ENDBRANCH  23   4
ENDBRANCH  20  23
BRANCH  21  10
ATOM     10  N   UNL     1      13.611   5.383   1.608  0.00  0.00    -0.211 N 
ATOM     31  H   UNL     1      13.925   5.920   0.788  0.00  0.00    +0.174 HD
BRANCH  10   1
ATOM      1  S   UNL     1      13.657   3.703   1.407  0.00  0.00    +0.072 S 
ATOM      6  O   UNL     1      14.992   3.212   1.691  0.00  0.00    -0.150 OA
ATOM      7  O   UNL     1      12.505   3.102   2.052  0.00  0.00    -0.150 OA
BRANCH   1  24
ATOM     24  C   UNL     1      13.410   3.574  -0.340  0.00  0.00    +0.109 A 
ATOM     25  C   UNL     1      12.375   2.790  -0.819  0.00  0.00    +0.029 A 
ATOM     26  C   UNL     1      14.257   4.257  -1.195  0.00  0.00    +0.029 A 
ATOM     27  C   UNL     1      12.180   2.688  -2.195  0.00  0.00    +0.005 A 
ATOM     28  C   UNL     1      14.062   4.154  -2.572  0.00  0.00    +0.005 A 
ATOM     29  C   UNL     1      13.023   3.369  -3.073  0.00  0.00    -0.050 A 
ATOM     30  C   UNL     1      12.814   3.260  -4.545  0.00  0.00    +0.044 C 
ENDBRANCH   1  24
ENDBRANCH  10   1
ENDBRANCH  21  10
TORSDOF 5
ENDMDL
MODEL 2
REMARK VINA RESULT:      -7.5      4.171      5.904
REMARK  Name = 11867158
REMARK  6 active torsions:
REMARK  status: ('A' for Active; 'I' for Inactive)
REMARK    1  A    between atoms: S_1  and  N_10
REMARK    2  A    between atoms: S_1  and  C_24
REMARK    3  A    between atoms: O_4  and  C_23
REMARK    4  A    between atoms: N_10  and  C_21
REMARK    5  A    between atoms: C_20  and  C_23
REMARK    6  A    between atoms: C_29  and  C_30
REMARK                            x       y       z     vdW  Elec       q    Type
REMARK                         _______ _______ _______ _____ _____    ______ ____
ROOT
ATOM      2  O   UNL     1      13.661   8.567   6.965  0.00  0.00    -0.266 OA
ATOM      3  O   UNL     1      10.110   4.324   7.802  0.00  0.00    -0.263 OA
ATOM      8  N   UNL     1      11.461   8.119   6.295  0.00  0.00    -0.310 N 
ATOM      9  N   UNL     1       9.139   6.450   7.772  0.00  0.00    -0.291 N 
ATOM     11  C   UNL     1       9.413   8.932   7.594  0.00  0.00    +0.027 C 
ATOM     12  C   UNL     1       9.110   7.589   5.557  0.00  0.00    +0.054 C 
ATOM     13  C   UNL     1       8.710   8.893   6.242  0.00  0.00    +0.018 C 
ATOM     14  C   UNL     1      10.928   8.974   7.362  0.00  0.00    +0.130 C 
ATOM     15  C   UNL     1       8.997   7.731   8.464  0.00  0.00    +0.113 C 
ATOM     16  C   UNL     1       8.623   6.398   6.402  0.00  0.00    +0.118 C 
ATOM     17  C   UNL     1      10.613   7.505   5.365  0.00  0.00    +0.027 A 
ATOM     18  C   UNL     1      11.124   6.823   4.323  0.00  0.00    +0.024 A 
ATOM     19  C   UNL     1      12.866   8.037   6.191  0.00  0.00    +0.274 A 
ATOM     20  C   UNL     1       9.601   5.283   8.371  0.00  0.00    +0.324 C 
ATOM     21  C   UNL     1      13.368   7.251   5.037  0.00  0.00    +0.112 A 
ATOM     22  C   UNL     1      12.545   6.689   4.150  0.00  0.00    +0.031 A 
ENDROOT
BRANCH  20  23
ATOM      5  O   UNL     1      10.513   4.934  10.531  0.00  0.00    -0.240 OA
ATOM     23  C   UNL     1       9.523   5.036   9.834  0.00  0.00    +0.392 C 
BRANCH  23   4
ATOM      4  O   UNL     1       8.237   4.959  10.202  0.00  0.00    -0.474 OA
ATOM     32  H   UNL     1       8.129   4.573  11.096  0.00  0.00    +0.296 HD
ENDBRANCH  23   4
ENDBRANCH  20  23
BRANCH  21  10
ATOM     10  N   UNL     1      14.751   7.093   4.835  0.00  0.00    -0.211 N 
ATOM     31  H   UNL     1      15.264   6.908   5.708  0.00  0.00    +0.174 HD
BRANCH  10   1
ATOM      1  S   UNL     1      15.507   8.193   3.794  0.00  0.00    +0.072 S 
ATOM      6  O   UNL     1      15.666   7.595   2.483  0.00  0.00    -0.150 OA
ATOM      7  O   UNL     1      14.892   9.499   3.933  0.00  0.00    -0.150 OA
BRANCH   1  24
ATOM     24  C   UNL     1      17.114   8.287   4.527  0.00  0.00    +0.109 A 
ATOM     25  C   UNL     1      18.224   7.968   3.764  0.00  0.00    +0.029 A 
ATOM     26  C   UNL     1      17.232   8.677   5.850  0.00  0.00    +0.029 A 
ATOM     27  C   UNL     1      19.491   8.042   4.342  0.00  0.00    +0.005 A 
ATOM     28  C   UNL     1      18.500   8.750   6.427  0.00  0.00    +0.005 A 
ATOM     29  C   UNL     1      19.630   8.433   5.673  0.00  0.00    -0.050 A 
ATOM     30  C   UNL     1      20.985   8.512   6.291  0.00  0.00    +0.044 C 
ENDBRANCH   1  24
ENDBRANCH  10   1
ENDBRANCH  21  10
TORSDOF 5
ENDMDL
MODEL 3
REMARK VINA RESULT:      -7.4     24.739     27.824
REMARK  Name = 11867158
REMARK  6 active torsions:
REMARK  status: ('A' for Active; 'I' for Inactive)
REMARK    1  A    between atoms: S_1  and  N_10
REMARK    2  A    between atoms: S_1  and  C_24
REMARK    3  A    between atoms: O_4  and  C_23
REMARK    4  A    between atoms: N_10  and  C_21
REMARK    5  A    between atoms: C_20  and  C_23
REMARK    6  A    between atoms: C_29  and  C_30
REMARK                            x       y       z     vdW  Elec       q    Type
REMARK                         _______ _______ _______ _____ _____    ______ ____
ROOT
ATOM      2  O   UNL     1      -3.872 -11.546  18.335  0.00  0.00    -0.266 OA
ATOM      3  O   UNL     1      -8.003 -14.153  15.606  0.00  0.00    -0.263 OA
ATOM      8  N   UNL     1      -6.183 -11.203  18.152  0.00  0.00    -0.310 N 
ATOM      9  N   UNL     1      -8.569 -13.319  17.715  0.00  0.00    -0.291 N 
ATOM     11  C   UNL     1      -7.872 -12.156  19.820  0.00  0.00    +0.027 C 
ATOM     12  C   UNL     1      -8.664 -10.838  17.901  0.00  0.00    +0.054 C 
ATOM     13  C   UNL     1      -8.732 -10.963  19.421  0.00  0.00    +0.018 C 
ATOM     14  C   UNL     1      -6.415 -11.863  19.442  0.00  0.00    +0.130 C 
ATOM     15  C   UNL     1      -8.389 -13.449  19.161  0.00  0.00    +0.113 C 
ATOM     16  C   UNL     1      -9.251 -12.106  17.258  0.00  0.00    +0.118 C 
ATOM     17  C   UNL     1      -7.237 -10.632  17.428  0.00  0.00    +0.027 A 
ATOM     18  C   UNL     1      -6.991  -9.928  16.308  0.00  0.00    +0.024 A 
ATOM     19  C   UNL     1      -4.840 -11.082  17.735  0.00  0.00    +0.274 A 
ATOM     20  C   UNL     1      -8.255 -14.315  16.794  0.00  0.00    +0.324 C 
ATOM     21  C   UNL     1      -4.635 -10.316  16.480  0.00  0.00    +0.112 A 
ATOM     22  C   UNL     1      -5.650  -9.763  15.815  0.00  0.00    +0.031 A 
ENDROOT
BRANCH  20  23
ATOM      5  O   UNL     1      -9.190 -16.448  17.228  0.00  0.00    -0.240 OA
ATOM     23  C   UNL     1      -8.195 -15.757  17.147  0.00  0.00    +0.392 C 
BRANCH  23   4
ATOM      4  O   UNL     1      -6.919 -16.113  17.337  0.00  0.00    -0.474 OA
ATOM     32  H   UNL     1      -6.825 -16.808  18.023  0.00  0.00    +0.296 HD
ENDBRANCH  23   4
ENDBRANCH  20  23
BRANCH  21  10
ATOM     10  N   UNL     1      -3.340 -10.137  15.963  0.00  0.00    -0.211 N 
ATOM     31  H   UNL     1      -3.187  -9.189  15.590  0.00  0.00    +0.174 HD
BRANCH  10   1
ATOM      1  S   UNL     1      -2.716 -11.382  15.002  0.00  0.00    +0.072 S 
ATOM      6  O   UNL     1      -1.281 -11.471  15.188  0.00  0.00    -0.150 OA
ATOM      7  O   UNL     1      -3.546 -12.564  15.134  0.00  0.00    -0.150 OA
BRANCH   1  24
ATOM     24  C   UNL     1      -2.996 -10.720  13.385  0.00  0.00    +0.109 A 
ATOM     25  C   UNL     1      -4.293 -10.610  12.916  0.00  0.00    +0.029 A 
ATOM     26  C   UNL     1      -1.913 -10.326  12.619  0.00  0.00    +0.029 A 
ATOM     27  C   UNL     1      -4.515 -10.090  11.642  0.00  0.00    +0.005 A 
ATOM     28  C   UNL     1      -2.135  -9.806  11.344  0.00  0.00    +0.005 A 
ATOM     29  C   UNL     1      -3.436  -9.687  10.855  0.00  0.00    -0.050 A 
ATOM     30  C   UNL     1      -3.673  -9.130   9.492  0.00  0.00    +0.044 C 
ENDBRANCH   1  24
ENDBRANCH  10   1
ENDBRANCH  21  10
TORSDOF 5
ENDMDL
MODEL 4
REMARK VINA RESULT:      -7.1     18.655     22.459
REMARK  Name = 11867158
REMARK  6 active torsions:
REMARK  status: ('A' for Active; 'I' for Inactive)
REMARK    1  A    between atoms: S_1  and  N_10
REMARK    2  A    between atoms: S_1  and  C_24
REMARK    3  A    between atoms: O_4  and  C_23
REMARK    4  A    between atoms: N_10  and  C_21
REMARK    5  A    between atoms: C_20  and  C_23
REMARK    6  A    between atoms: C_29  and  C_30
REMARK                            x       y       z     vdW  Elec       q    Type
REMARK                         _______ _______ _______ _____ _____    ______ ____
ROOT
ATOM      2  O   UNL     1      20.897   3.960  20.464  0.00  0.00    -0.266 OA
ATOM      3  O   UNL     1      23.726   4.173  25.287  0.00  0.00    -0.263 OA
ATOM      8  N   UNL     1      23.160   3.772  21.043  0.00  0.00    -0.310 N 
ATOM      9  N   UNL     1      24.531   2.634  23.724  0.00  0.00    -0.291 N 
ATOM     11  C   UNL     1      24.305   1.528  21.488  0.00  0.00    +0.027 C 
ATOM     12  C   UNL     1      25.590   3.614  21.694  0.00  0.00    +0.054 C 
ATOM     13  C   UNL     1      25.573   2.239  21.031  0.00  0.00    +0.018 C 
ATOM     14  C   UNL     1      23.088   2.308  20.975  0.00  0.00    +0.130 C 
ATOM     15  C   UNL     1      24.285   1.374  23.021  0.00  0.00    +0.113 C 
ATOM     16  C   UNL     1      25.644   3.443  23.222  0.00  0.00    +0.118 C 
ATOM     17  C   UNL     1      24.368   4.428  21.308  0.00  0.00    +0.027 A 
ATOM     18  C   UNL     1      24.442   5.770  21.248  0.00  0.00    +0.024 A 
ATOM     19  C   UNL     1      21.981   4.479  20.723  0.00  0.00    +0.274 A 
ATOM     20  C   UNL     1      23.870   3.025  24.884  0.00  0.00    +0.324 C 
ATOM     21  C   UNL     1      22.120   5.956  20.697  0.00  0.00    +0.112 A 
ATOM     22  C   UNL     1      23.284   6.563  20.934  0.00  0.00    +0.031 A 
ENDROOT
BRANCH  20  23
ATOM      5  O   UNL     1      23.882   1.454  26.659  0.00  0.00    -0.240 OA
ATOM     23  C   UNL     1      23.241   2.062  25.824  0.00  0.00    +0.392 C 
BRANCH  23   4
ATOM      4  O   UNL     1      21.924   2.007  25.587  0.00  0.00    -0.474 OA
ATOM     32  H   UNL     1      21.675   2.480  24.765  0.00  0.00    +0.296 HD
ENDBRANCH  23   4
ENDBRANCH  20  23
BRANCH  21  10
ATOM     10  N   UNL     1      21.011   6.767  20.398  0.00  0.00    -0.211 N 
ATOM     31  H   UNL     1      21.233   7.518  19.730  0.00  0.00    +0.174 HD
BRANCH  10   1
ATOM      1  S   UNL     1      20.035   7.245  21.695  0.00  0.00    +0.072 S 
ATOM      6  O   UNL     1      20.037   6.214  22.715  0.00  0.00    -0.150 OA
ATOM      7  O   UNL     1      20.329   8.621  22.047  0.00  0.00    -0.150 OA
BRANCH   1  24
ATOM     24  C   UNL     1      18.439   7.226  20.931  0.00  0.00    +0.109 A 
ATOM     25  C   UNL     1      18.132   6.216  20.036  0.00  0.00    +0.029 A 
ATOM     26  C   UNL     1      17.529   8.221  21.241  0.00  0.00    +0.029 A 
ATOM     27  C   UNL     1      16.875   6.201  19.433  0.00  0.00    +0.005 A 
ATOM     28  C   UNL     1      16.272   8.206  20.638  0.00  0.00    +0.005 A 
ATOM     29  C   UNL     1      15.944   7.196  19.733  0.00  0.00    -0.050 A 
ATOM     30  C   UNL     1      14.600   7.179  19.088  0.00  0.00    +0.044 C 
ENDBRANCH   1  24
ENDBRANCH  10   1
ENDBRANCH  21  10
TORSDOF 5
ENDMDL
MODEL 5
REMARK VINA RESULT:      -7.1      1.850      2.499
REMARK  Name = 11867158
REMARK  6 active torsions:
REMARK  status: ('A' for Active; 'I' for Inactive)
REMARK    1  A    between atoms: S_1  and  N_10
REMARK    2  A    between atoms: S_1  and  C_24
REMARK    3  A    between atoms: O_4  and  C_23
REMARK    4  A    between atoms: N_10  and  C_21
REMARK    5  A    between atoms: C_20  and  C_23
REMARK    6  A    between atoms: C_29  and  C_30
REMARK                            x       y       z     vdW  Elec       q    Type
REMARK                         _______ _______ _______ _____ _____    ______ ____
ROOT
ATOM      2  O   UNL     1      12.482   7.719   3.120  0.00  0.00    -0.266 OA
ATOM      3  O   UNL     1       9.128   5.183   6.812  0.00  0.00    -0.263 OA
ATOM      8  N   UNL     1      10.597   8.384   4.343  0.00  0.00    -0.310 N 
ATOM      9  N   UNL     1       9.562   7.439   7.241  0.00  0.00    -0.291 N 
ATOM     11  C   UNL     1      10.746   9.554   6.613  0.00  0.00    +0.027 C 
ATOM     12  C   UNL     1       8.544   9.054   5.643  0.00  0.00    +0.054 C 
ATOM     13  C   UNL     1       9.405  10.168   6.232  0.00  0.00    +0.018 C 
ATOM     14  C   UNL     1      11.441   9.052   5.341  0.00  0.00    +0.130 C 
ATOM     15  C   UNL     1      10.560   8.429   7.649  0.00  0.00    +0.113 C 
ATOM     16  C   UNL     1       8.306   7.974   6.712  0.00  0.00    +0.118 C 
ATOM     17  C   UNL     1       9.200   8.436   4.421  0.00  0.00    +0.027 A 
ATOM     18  C   UNL     1       8.442   7.921   3.435  0.00  0.00    +0.024 A 
ATOM     19  C   UNL     1      11.261   7.782   3.253  0.00  0.00    +0.274 A 
ATOM     20  C   UNL     1       9.689   6.069   7.447  0.00  0.00    +0.324 C 
ATOM     21  C   UNL     1      10.373   7.210   2.211  0.00  0.00    +0.112 A 
ATOM     22  C   UNL     1       9.043   7.287   2.293  0.00  0.00    +0.031 A 
ENDROOT
BRANCH  20  23
ATOM      5  O   UNL     1      10.092   5.105   9.574  0.00  0.00    -0.240 OA
ATOM     23  C   UNL     1      10.543   5.483   8.512  0.00  0.00    +0.392 C 
BRANCH  23   4
ATOM      4  O   UNL     1      11.815   5.455   8.093  0.00  0.00    -0.474 OA
ATOM     32  H   UNL     1      12.159   4.540   8.011  0.00  0.00    +0.296 HD
ENDBRANCH  23   4
ENDBRANCH  20  23
BRANCH  21  10
ATOM     10  N   UNL     1      10.921   6.578   1.081  0.00  0.00    -0.211 N 
ATOM     31  H   UNL     1      10.590   6.985   0.195  0.00  0.00    +0.174 HD
BRANCH  10   1
ATOM      1  S   UNL     1      10.983   4.887   1.100  0.00  0.00    +0.072 S 
ATOM      6  O   UNL     1      10.908   4.410   2.467  0.00  0.00    -0.150 OA
ATOM      7  O   UNL     1      10.089   4.355   0.090  0.00  0.00    -0.150 OA
BRANCH   1  24
ATOM     24  C   UNL     1      12.637   4.612   0.537  0.00  0.00    +0.109 A 
ATOM     25  C   UNL     1      13.691   4.825   1.408  0.00  0.00    +0.029 A 
ATOM     26  C   UNL     1      12.847   4.192  -0.765  0.00  0.00    +0.029 A 
ATOM     27  C   UNL     1      14.995   4.610   0.965  0.00  0.00    +0.005 A 
ATOM     28  C   UNL     1      14.152   3.976  -1.208  0.00  0.00    +0.005 A 
ATOM     29  C   UNL     1      15.227   4.185  -0.344  0.00  0.00    -0.050 A 
ATOM     30  C   UNL     1      16.621   3.954  -0.817  0.00  0.00    +0.044 C 
ENDBRANCH   1  24
ENDBRANCH  10   1
ENDBRANCH  21  10
TORSDOF 5
ENDMDL
MODEL 6
REMARK VINA RESULT:      -7.0     25.055     28.286
REMARK  Name = 11867158
REMARK  6 active torsions:
REMARK  status: ('A' for Active; 'I' for Inactive)
REMARK    1  A    between atoms: S_1  and  N_10
REMARK    2  A    between atoms: S_1  and  C_24
REMARK    3  A    between atoms: O_4  and  C_23
REMARK    4  A    between atoms: N_10  and  C_21
REMARK    5  A    between atoms: C_20  and  C_23
REMARK    6  A    between atoms: C_29  and  C_30
REMARK                            x       y       z     vdW  Elec       q    Type
REMARK                         _______ _______ _______ _____ _____    ______ ____
ROOT
ATOM      2  O   UNL     1      -8.190  -9.702  14.095  0.00  0.00    -0.266 OA
ATOM      3  O   UNL     1     -11.572  -5.837  16.316  0.00  0.00    -0.263 OA
ATOM      8  N   UNL     1     -10.113  -9.785  15.431  0.00  0.00    -0.310 N 
ATOM      9  N   UNL     1     -12.631  -7.783  15.574  0.00  0.00    -0.291 N 
ATOM     11  C   UNL     1     -12.471 -10.025  14.469  0.00  0.00    +0.027 C 
ATOM     12  C   UNL     1     -12.160  -9.838  16.900  0.00  0.00    +0.054 C 
ATOM     13  C   UNL     1     -12.801 -10.684  15.803  0.00  0.00    +0.018 C 
ATOM     14  C   UNL     1     -10.952 -10.064  14.260  0.00  0.00    +0.130 C 
ATOM     15  C   UNL     1     -13.023  -8.588  14.415  0.00  0.00    +0.113 C 
ATOM     16  C   UNL     1     -12.774  -8.427  16.881  0.00  0.00    +0.118 C 
ATOM     17  C   UNL     1     -10.656  -9.749  16.721  0.00  0.00    +0.027 A 
ATOM     18  C   UNL     1      -9.854  -9.610  17.794  0.00  0.00    +0.024 A 
ATOM     19  C   UNL     1      -8.726  -9.662  15.201  0.00  0.00    +0.274 A 
ATOM     20  C   UNL     1     -12.267  -6.442  15.508  0.00  0.00    +0.324 C 
ATOM     21  C   UNL     1      -7.898  -9.487  16.420  0.00  0.00    +0.112 A 
ATOM     22  C   UNL     1      -8.431  -9.474  17.642  0.00  0.00    +0.031 A 
ENDROOT
BRANCH  20  23
ATOM      5  O   UNL     1     -13.870  -5.396  14.111  0.00  0.00    -0.240 OA
ATOM     23  C   UNL     1     -12.702  -5.535  14.415  0.00  0.00    +0.392 C 
BRANCH  23   4
ATOM      4  O   UNL     1     -11.628  -4.943  13.877  0.00  0.00    -0.474 OA
ATOM     32  H   UNL     1     -10.985  -4.651  14.557  0.00  0.00    +0.296 HD
ENDBRANCH  23   4
ENDBRANCH  20  23
BRANCH  21  10
ATOM     10  N   UNL     1      -6.503  -9.346  16.314  0.00  0.00    -0.211 N 
ATOM     31  H   UNL     1      -6.217  -8.806  15.486  0.00  0.00    +0.174 HD
BRANCH  10   1
ATOM      1  S   UNL     1      -5.566 -10.723  16.614  0.00  0.00    +0.072 S 
ATOM      6  O   UNL     1      -4.807 -10.542  17.836  0.00  0.00    -0.150 OA
ATOM      7  O   UNL     1      -6.373 -11.913  16.425  0.00  0.00    -0.150 OA
BRANCH   1  24
ATOM     24  C   UNL     1      -4.422 -10.642  15.267  0.00  0.00    +0.109 A 
ATOM     25  C   UNL     1      -4.907 -10.552  13.974  0.00  0.00    +0.029 A 
ATOM     26  C   UNL     1      -3.064 -10.670  15.531  0.00  0.00    +0.029 A 
ATOM     27  C   UNL     1      -4.006 -10.489  12.912  0.00  0.00    +0.005 A 
ATOM     28  C   UNL     1      -2.163 -10.607  14.468  0.00  0.00    +0.005 A 
ATOM     29  C   UNL     1      -2.633 -10.516  13.159  0.00  0.00    -0.050 A 
ATOM     30  C   UNL     1      -1.670 -10.448  12.023  0.00  0.00    +0.044 C 
ENDBRANCH   1  24
ENDBRANCH  10   1
ENDBRANCH  21  10
TORSDOF 5
ENDMDL
MODEL 7
REMARK VINA RESULT:      -6.9     29.051     33.567
REMARK  Name = 11867158
REMARK  6 active torsions:
REMARK  status: ('A' for Active; 'I' for Inactive)
REMARK    1  A    between atoms: S_1  and  N_10
REMARK    2  A    between atoms: S_1  and  C_24
REMARK    3  A    between atoms: O_4  and  C_23
REMARK    4  A    between atoms: N_10  and  C_21
REMARK    5  A    between atoms: C_20  and  C_23
REMARK    6  A    between atoms: C_29  and  C_30
REMARK                            x       y       z     vdW  Elec       q    Type
REMARK                         _______ _______ _______ _____ _____    ______ ____
ROOT
ATOM      2  O   UNL     1     -16.082   4.703  20.239  0.00  0.00    -0.266 OA
ATOM      3  O   UNL     1     -11.183   7.401  20.402  0.00  0.00    -0.263 OA
ATOM      8  N   UNL     1     -15.426   6.866  20.858  0.00  0.00    -0.310 N 
ATOM      9  N   UNL     1     -13.018   8.699  19.761  0.00  0.00    -0.291 N 
ATOM     11  C   UNL     1     -15.463   8.851  19.245  0.00  0.00    +0.027 C 
ATOM     12  C   UNL     1     -14.681   9.171  21.553  0.00  0.00    +0.054 C 
ATOM     13  C   UNL     1     -15.656   9.693  20.500  0.00  0.00    +0.018 C 
ATOM     14  C   UNL     1     -15.849   7.400  19.558  0.00  0.00    +0.130 C 
ATOM     15  C   UNL     1     -14.017   8.963  18.725  0.00  0.00    +0.113 C 
ATOM     16  C   UNL     1     -13.239   9.357  21.051  0.00  0.00    +0.118 C 
ATOM     17  C   UNL     1     -14.935   7.707  21.864  0.00  0.00    +0.027 A 
ATOM     18  C   UNL     1     -14.665   7.219  23.089  0.00  0.00    +0.024 A 
ATOM     19  C   UNL     1     -15.639   5.488  21.076  0.00  0.00    +0.274 A 
ATOM     20  C   UNL     1     -11.841   7.987  19.551  0.00  0.00    +0.324 C 
ATOM     21  C   UNL     1     -15.300   5.005  22.437  0.00  0.00    +0.112 A 
ATOM     22  C   UNL     1     -14.851   5.825  23.388  0.00  0.00    +0.031 A 
ENDROOT
BRANCH  20  23
ATOM      5  O   UNL     1     -11.063   8.795  17.463  0.00  0.00    -0.240 OA
ATOM     23  C   UNL     1     -11.202   7.852  18.216  0.00  0.00    +0.392 C 
BRANCH  23   4
ATOM      4  O   UNL     1     -10.833   6.578  18.029  0.00  0.00    -0.474 OA
ATOM     32  H   UNL     1     -10.245   6.253  18.743  0.00  0.00    +0.296 HD
ENDBRANCH  23   4
ENDBRANCH  20  23
BRANCH  21  10
ATOM     10  N   UNL     1     -15.463   3.649  22.769  0.00  0.00    -0.211 N 
ATOM     31  H   UNL     1     -14.948   3.018  22.139  0.00  0.00    +0.174 HD
BRANCH  10   1
ATOM      1  S   UNL     1     -17.030   3.134  23.153  0.00  0.00    +0.072 S 
ATOM      6  O   UNL     1     -17.930   4.270  23.158  0.00  0.00    -0.150 OA
ATOM      7  O   UNL     1     -17.355   1.947  22.385  0.00  0.00    -0.150 OA
BRANCH   1  24
ATOM     24  C   UNL     1     -16.807   2.630  24.834  0.00  0.00    +0.109 A 
ATOM     25  C   UNL     1     -16.271   3.527  25.742  0.00  0.00    +0.029 A 
ATOM     26  C   UNL     1     -17.173   1.349  25.210  0.00  0.00    +0.029 A 
ATOM     27  C   UNL     1     -16.095   3.130  27.066  0.00  0.00    +0.005 A 
ATOM     28  C   UNL     1     -16.996   0.953  26.535  0.00  0.00    +0.005 A 
ATOM     29  C   UNL     1     -16.457   1.843  27.464  0.00  0.00    -0.050 A 
ATOM     30  C   UNL     1     -16.269   1.420  28.881  0.00  0.00    +0.044 C 
ENDBRANCH   1  24
ENDBRANCH  10   1
ENDBRANCH  21  10
TORSDOF 5
ENDMDL
MODEL 8
REMARK VINA RESULT:      -6.9     24.477     28.296
REMARK  Name = 11867158
REMARK  6 active torsions:
REMARK  status: ('A' for Active; 'I' for Inactive)
REMARK    1  A    between atoms: S_1  and  N_10
REMARK    2  A    between atoms: S_1  and  C_24
REMARK    3  A    between atoms: O_4  and  C_23
REMARK    4  A    between atoms: N_10  and  C_21
REMARK    5  A    between atoms: C_20  and  C_23
REMARK    6  A    between atoms: C_29  and  C_30
REMARK                            x       y       z     vdW  Elec       q    Type
REMARK                         _______ _______ _______ _____ _____    ______ ____
ROOT
ATOM      2  O   UNL     1      -6.554 -10.097  14.288  0.00  0.00    -0.266 OA
ATOM      3  O   UNL     1      -3.494 -14.777  14.482  0.00  0.00    -0.263 OA
ATOM      8  N   UNL     1      -4.286 -10.583  13.957  0.00  0.00    -0.310 N 
ATOM      9  N   UNL     1      -2.875 -13.247  12.828  0.00  0.00    -0.291 N 
ATOM     11  C   UNL     1      -3.285 -11.073  11.655  0.00  0.00    +0.027 C 
ATOM     12  C   UNL     1      -1.846 -11.132  13.647  0.00  0.00    +0.054 C 
ATOM     13  C   UNL     1      -1.992 -10.530  12.252  0.00  0.00    +0.018 C 
ATOM     14  C   UNL     1      -4.466 -10.580  12.501  0.00  0.00    +0.130 C 
ATOM     15  C   UNL     1      -3.244 -12.610  11.562  0.00  0.00    +0.113 C 
ATOM     16  C   UNL     1      -1.732 -12.663  13.533  0.00  0.00    +0.118 C 
ATOM     17  C   UNL     1      -3.023 -10.767  14.533  0.00  0.00    +0.027 A 
ATOM     18  C   UNL     1      -2.856 -10.646  15.863  0.00  0.00    +0.024 A 
ATOM     19  C   UNL     1      -5.425 -10.285  14.736  0.00  0.00    +0.274 A 
ATOM     20  C   UNL     1      -3.451 -14.417  13.312  0.00  0.00    +0.324 C 
ATOM     21  C   UNL     1      -5.182 -10.190  16.197  0.00  0.00    +0.112 A 
ATOM     22  C   UNL     1      -3.968 -10.350  16.725  0.00  0.00    +0.031 A 
ENDROOT
BRANCH  20  23
ATOM      5  O   UNL     1      -5.307 -15.472  12.281  0.00  0.00    -0.240 OA
ATOM     23  C   UNL     1      -4.102 -15.424  12.435  0.00  0.00    +0.392 C 
BRANCH  23   4
ATOM      4  O   UNL     1      -3.164 -16.206  11.886  0.00  0.00    -0.474 OA
ATOM     32  H   UNL     1      -2.492 -15.690  11.393  0.00  0.00    +0.296 HD
ENDBRANCH  23   4
ENDBRANCH  20  23
BRANCH  21  10
ATOM     10  N   UNL     1      -6.243  -9.906  17.074  0.00  0.00    -0.211 N 
ATOM     31  H   UNL     1      -6.209  -8.947  17.446  0.00  0.00    +0.174 HD
BRANCH  10   1
ATOM      1  S   UNL     1      -6.635 -11.091  18.218  0.00  0.00    +0.072 S 
ATOM      6  O   UNL     1      -6.627 -12.398  17.590  0.00  0.00    -0.150 OA
ATOM      7  O   UNL     1      -5.882 -10.860  19.436  0.00  0.00    -0.150 OA
BRANCH   1  24
ATOM     24  C   UNL     1      -8.321 -10.678  18.554  0.00  0.00    +0.109 A 
ATOM     25  C   UNL     1      -8.978  -9.788  17.722  0.00  0.00    +0.029 A 
ATOM     26  C   UNL     1      -8.954 -11.252  19.644  0.00  0.00    +0.029 A 
ATOM     27  C   UNL     1     -10.307  -9.462  17.987  0.00  0.00    +0.005 A 
ATOM     28  C   UNL     1     -10.283 -10.926  19.908  0.00  0.00    +0.005 A 
ATOM     29  C   UNL     1     -10.961 -10.030  19.080  0.00  0.00    -0.050 A 
ATOM     30  C   UNL     1     -12.382  -9.682  19.363  0.00  0.00    +0.044 C 
ENDBRANCH   1  24
ENDBRANCH  10   1
ENDBRANCH  21  10
TORSDOF 5
ENDMDL
MODEL 9
REMARK VINA RESULT:      -6.9     24.205     27.249
REMARK  Name = 11867158
REMARK  6 active torsions:
REMARK  status: ('A' for Active; 'I' for Inactive)
REMARK    1  A    between atoms: S_1  and  N_10
REMARK    2  A    between atoms: S_1  and  C_24
REMARK    3  A    between atoms: O_4  and  C_23
REMARK    4  A    between atoms: N_10  and  C_21
REMARK    5  A    between atoms: C_20  and  C_23
REMARK    6  A    between atoms: C_29  and  C_30
REMARK                            x       y       z     vdW  Elec       q    Type
REMARK                         _______ _______ _______ _____ _____    ______ ____
ROOT
ATOM      2  O   UNL     1      -7.225 -13.373  14.265  0.00  0.00    -0.266 OA
ATOM      3  O   UNL     1      -8.717  -9.318  17.820  0.00  0.00    -0.263 OA
ATOM      8  N   UNL     1      -6.148 -12.265  16.027  0.00  0.00    -0.310 N 
ATOM      9  N   UNL     1      -7.355 -10.988  18.724  0.00  0.00    -0.291 N 
ATOM     11  C   UNL     1      -6.126 -13.150  18.427  0.00  0.00    +0.027 C 
ATOM     12  C   UNL     1      -5.006 -11.026  17.901  0.00  0.00    +0.054 C 
ATOM     13  C   UNL     1      -4.809 -12.394  18.549  0.00  0.00    +0.018 C 
ATOM     14  C   UNL     1      -6.430 -13.378  16.941  0.00  0.00    +0.130 C 
ATOM     15  C   UNL     1      -7.263 -12.389  19.137  0.00  0.00    +0.113 C 
ATOM     16  C   UNL     1      -6.092 -10.250  18.666  0.00  0.00    +0.118 C 
ATOM     17  C   UNL     1      -5.397 -11.158  16.440  0.00  0.00    +0.027 A 
ATOM     18  C   UNL     1      -5.047 -10.204  15.557  0.00  0.00    +0.024 A 
ATOM     19  C   UNL     1      -6.578 -12.418  14.691  0.00  0.00    +0.274 A 
ATOM     20  C   UNL     1      -8.553 -10.310  18.520  0.00  0.00    +0.324 C 
ATOM     21  C   UNL     1      -6.182 -11.323  13.772  0.00  0.00    +0.112 A 
ATOM     22  C   UNL     1      -5.450 -10.285  14.180  0.00  0.00    +0.031 A 
ENDROOT
BRANCH  20  23
ATOM      5  O   UNL     1     -10.707 -11.299  18.553  0.00  0.00    -0.240 OA
ATOM     23  C   UNL     1      -9.833 -10.712  19.159  0.00  0.00    +0.392 C 
BRANCH  23   4
ATOM      4  O   UNL     1      -9.826 -10.329  20.442  0.00  0.00    -0.474 OA
ATOM     32  H   UNL     1     -10.702 -10.001  20.736  0.00  0.00    +0.296 HD
ENDBRANCH  23   4
ENDBRANCH  20  23
BRANCH  21  10
ATOM     10  N   UNL     1      -6.561 -11.363  12.419  0.00  0.00    -0.211 N 
ATOM     31  H   UNL     1      -7.574 -11.495  12.290  0.00  0.00    +0.174 HD
BRANCH  10   1
ATOM      1  S   UNL     1      -5.594 -12.280  11.376  0.00  0.00    +0.072 S 
ATOM      6  O   UNL     1      -5.231 -13.529  12.017  0.00  0.00    -0.150 OA
ATOM      7  O   UNL     1      -6.175 -12.282  10.047  0.00  0.00    -0.150 OA
BRANCH   1  24
ATOM     24  C   UNL     1      -4.137 -11.279  11.312  0.00  0.00    +0.109 A 
ATOM     25  C   UNL     1      -4.133 -10.142  10.523  0.00  0.00    +0.029 A 
ATOM     26  C   UNL     1      -3.027 -11.652  12.052  0.00  0.00    +0.029 A 
ATOM     27  C   UNL     1      -2.985  -9.353  10.472  0.00  0.00    +0.005 A 
ATOM     28  C   UNL     1      -1.879 -10.862  12.000  0.00  0.00    +0.005 A 
ATOM     29  C   UNL     1      -1.857  -9.712  11.211  0.00  0.00    -0.050 A 
ATOM     30  C   UNL     1      -0.630  -8.868  11.156  0.00  0.00    +0.044 C 
ENDBRANCH   1  24
ENDBRANCH  10   1
ENDBRANCH  21  10
TORSDOF 5
ENDMDL
MODEL 10
REMARK VINA RESULT:      -6.9     24.689     27.931
REMARK  Name = 11867158
REMARK  6 active torsions:
REMARK  status: ('A' for Active; 'I' for Inactive)
REMARK    1  A    between atoms: S_1  and  N_10
REMARK    2  A    between atoms: S_1  and  C_24
REMARK    3  A    between atoms: O_4  and  C_23
REMARK    4  A    between atoms: N_10  and  C_21
REMARK    5  A    between atoms: C_20  and  C_23
REMARK    6  A    between atoms: C_29  and  C_30
REMARK                            x       y       z     vdW  Elec       q    Type
REMARK                         _______ _______ _______ _____ _____    ______ ____
ROOT
ATOM      2  O   UNL     1      -5.906 -13.317  15.012  0.00  0.00    -0.266 OA
ATOM      3  O   UNL     1      -8.095  -8.866  17.603  0.00  0.00    -0.263 OA
ATOM      8  N   UNL     1      -6.855 -12.957  17.124  0.00  0.00    -0.310 N 
ATOM      9  N   UNL     1      -9.156 -10.901  18.045  0.00  0.00    -0.291 N 
ATOM     11  C   UNL     1      -9.329 -13.365  17.631  0.00  0.00    +0.027 C 
ATOM     12  C   UNL     1      -7.845 -12.526  19.402  0.00  0.00    +0.054 C 
ATOM     13  C   UNL     1      -8.855 -13.618  19.057  0.00  0.00    +0.018 C 
ATOM     14  C   UNL     1      -8.136 -13.517  16.679  0.00  0.00    +0.130 C 
ATOM     15  C   UNL     1      -9.990 -11.978  17.510  0.00  0.00    +0.113 C 
ATOM     16  C   UNL     1      -8.538 -11.154  19.348  0.00  0.00    +0.118 C 
ATOM     17  C   UNL     1      -6.663 -12.546  18.449  0.00  0.00    +0.027 A 
ATOM     18  C   UNL     1      -5.449 -12.147  18.870  0.00  0.00    +0.024 A 
ATOM     19  C   UNL     1      -5.804 -12.953  16.182  0.00  0.00    +0.274 A 
ATOM     20  C   UNL     1      -9.031  -9.644  17.461  0.00  0.00    +0.324 C 
ATOM     21  C   UNL     1      -4.496 -12.480  16.699  0.00  0.00    +0.112 A 
ATOM     22  C   UNL     1      -4.328 -12.111  17.970  0.00  0.00    +0.031 A 
ENDROOT
BRANCH  20  23
ATOM      5  O   UNL     1      -9.979  -9.107  15.357  0.00  0.00    -0.240 OA
ATOM     23  C   UNL     1     -10.063  -9.058  16.568  0.00  0.00    +0.392 C 
BRANCH  23   4
ATOM      4  O   UNL     1     -11.033  -8.511  17.311  0.00  0.00    -0.474 OA
ATOM     32  H   UNL     1     -11.269  -7.609  17.009  0.00  0.00    +0.296 HD
ENDBRANCH  23   4
ENDBRANCH  20  23
BRANCH  21  10
ATOM     10  N   UNL     1      -3.377 -12.426  15.850  0.00  0.00    -0.211 N 
ATOM     31  H   UNL     1      -2.719 -13.203  16.005  0.00  0.00    +0.174 HD
BRANCH  10   1
ATOM      1  S   UNL     1      -2.644 -10.915  15.639  0.00  0.00    +0.072 S 
ATOM      6  O   UNL     1      -3.367  -9.910  16.393  0.00  0.00    -0.150 OA
ATOM      7  O   UNL     1      -1.206 -11.045  15.786  0.00  0.00    -0.150 OA
BRANCH   1  24
ATOM     24  C   UNL     1      -2.974 -10.625  13.926  0.00  0.00    +0.109 A 
ATOM     25  C   UNL     1      -1.913 -10.448  13.054  0.00  0.00    +0.029 A 
ATOM     26  C   UNL     1      -4.286 -10.580  13.488  0.00  0.00    +0.029 A 
ATOM     27  C   UNL     1      -2.173 -10.220  11.704  0.00  0.00    +0.005 A 
ATOM     28  C   UNL     1      -4.545 -10.351  12.137  0.00  0.00    +0.005 A 
ATOM     29  C   UNL     1      -3.489 -10.171  11.244  0.00  0.00    -0.050 A 
ATOM     30  C   UNL     1      -3.766  -9.927   9.800  0.00  0.00    +0.044 C 
ENDBRANCH   1  24
ENDBRANCH  10   1
ENDBRANCH  21  10
TORSDOF 5
ENDMDL
