MODEL 1
REMARK VINA RESULT:      -6.7      0.000      0.000
REMARK  Name = 11865896
REMARK  4 active torsions:
REMARK  status: ('A' for Active; 'I' for Inactive)
REMARK    1  A    between atoms: N_9  and  C_13
REMARK    2  A    between atoms: C_19  and  C_23
REMARK    3  A    between atoms: C_24  and  C_25
REMARK    4  A    between atoms: C_25  and  C_26
REMARK                            x       y       z     vdW  Elec       q    Type
REMARK                         _______ _______ _______ _____ _____    ______ ____
ROOT
ATOM      2  O   UNL     1      14.051  11.261  20.700  0.00  0.00    -0.273 OA
ATOM      3  O   UNL     1      11.300   6.344  21.714  0.00  0.00    -0.274 OA
ATOM      5  O   UNL     1      15.116  11.485  23.924  0.00  0.00    -0.275 OA
ATOM      6  N   UNL     1      13.500   9.011  20.545  0.00  0.00    -0.287 N 
ATOM      7  N   UNL     1      12.916  11.534  23.210  0.00  0.00    -0.288 N 
ATOM      8  N   UNL     1      11.110   8.505  22.350  0.00  0.00    -0.309 N 
ATOM     10  C   UNL     1      12.908  10.226  22.558  0.00  0.00    +0.182 C 
ATOM     11  C   UNL     1      13.196   7.726  21.183  0.00  0.00    +0.164 C 
ATOM     12  C   UNL     1      11.427   9.916  22.324  0.00  0.00    +0.104 C 
ATOM     13  C   UNL     1      14.572   7.389  19.217  0.00  0.00    +0.092 C 
ATOM     14  C   UNL     1      13.549   6.685  20.102  0.00  0.00    +0.055 C 
ATOM     15  C   UNL     1      14.065   8.824  19.213  0.00  0.00    +0.131 C 
ATOM     16  C   UNL     1      10.727  10.712  23.423  0.00  0.00    +0.043 C 
ATOM     17  C   UNL     1      13.563  10.242  21.189  0.00  0.00    +0.239 C 
ATOM     18  C   UNL     1      11.554  11.987  23.482  0.00  0.00    +0.110 C 
ATOM     20  C   UNL     1      11.773   7.488  21.702  0.00  0.00    +0.234 C 
ATOM     24  C   UNL     1      14.078  12.110  23.701  0.00  0.00    +0.221 C 
ATOM     30  H   UNL     1      10.196   8.261  22.719  0.00  0.00    +0.149 HD
ENDROOT
BRANCH  13   9
ATOM      4  O   UNL     1      16.674   5.514  18.492  0.00  0.00    -0.276 OA
ATOM      9  N   UNL     1      15.902   7.300  19.771  0.00  0.00    -0.311 N 
ATOM     23  C   UNL     1      16.835   6.367  19.357  0.00  0.00    +0.216 C 
ATOM     31  H   UNL     1      16.169   7.976  20.480  0.00  0.00    +0.149 HD
BRANCH  23  19
ATOM     19  C   UNL     1      18.146   6.457  20.066  0.00  0.00    +0.075 C 
ATOM     21  C   UNL     1      18.426   7.671  20.883  0.00  0.00    +0.013 C 
ATOM     22  C   UNL     1      18.155   6.356  21.553  0.00  0.00    +0.013 C 
ENDBRANCH  23  19
ENDBRANCH  13   9
BRANCH  24  25
ATOM     25  C   UNL     1      14.017  13.596  23.954  0.00  0.00    +0.138 C 
BRANCH  25  26
ATOM      1  S   UNL     1      15.681  14.604  25.910  0.00  0.00    -0.101 S 
ATOM     26  C   UNL     1      14.249  13.826  25.413  0.00  0.00    -0.001 A 
ATOM     27  C   UNL     1      13.435  13.483  26.458  0.00  0.00    +0.011 A 
ATOM     28  C   UNL     1      14.000  13.869  27.708  0.00  0.00    +0.008 A 
ATOM     29  C   UNL     1      15.221  14.489  27.555  0.00  0.00    +0.045 A 
ENDBRANCH  25  26
ENDBRANCH  24  25
TORSDOF 4
ENDMDL
MODEL 2
REMARK VINA RESULT:      -6.7     27.790     29.883
REMARK  Name = 11865896
REMARK  4 active torsions:
REMARK  status: ('A' for Active; 'I' for Inactive)
REMARK    1  A    between atoms: N_9  and  C_13
REMARK    2  A    between atoms: C_19  and  C_23
REMARK    3  A    between atoms: C_24  and  C_25
REMARK    4  A    between atoms: C_25  and  C_26
REMARK                            x       y       z     vdW  Elec       q    Type
REMARK                         _______ _______ _______ _____ _____    ______ ____
ROOT
ATOM      2  O   UNL     1      -6.655 -12.103  15.470  0.00  0.00    -0.273 OA
ATOM      3  O   UNL     1      -1.080 -10.836  15.759  0.00  0.00    -0.274 OA
ATOM      5  O   UNL     1      -7.535  -9.177  16.970  0.00  0.00    -0.275 OA
ATOM      6  N   UNL     1      -4.497 -11.632  14.755  0.00  0.00    -0.287 N 
ATOM      7  N   UNL     1      -6.285 -10.876  17.924  0.00  0.00    -0.288 N 
ATOM      8  N   UNL     1      -2.749 -11.287  17.215  0.00  0.00    -0.309 N 
ATOM     10  C   UNL     1      -5.197 -10.870  16.948  0.00  0.00    +0.182 C 
ATOM     11  C   UNL     1      -3.289 -10.802  14.808  0.00  0.00    +0.164 C 
ATOM     12  C   UNL     1      -4.083 -11.692  17.603  0.00  0.00    +0.104 C 
ATOM     13  C   UNL     1      -3.760 -11.464  12.525  0.00  0.00    +0.092 C 
ATOM     14  C   UNL     1      -2.617 -11.042  13.442  0.00  0.00    +0.055 C 
ATOM     15  C   UNL     1      -4.638 -12.285  13.458  0.00  0.00    +0.131 C 
ATOM     16  C   UNL     1      -4.356 -11.522  19.095  0.00  0.00    +0.043 C 
ATOM     17  C   UNL     1      -5.554 -11.585  15.658  0.00  0.00    +0.239 C 
ATOM     18  C   UNL     1      -5.875 -11.546  19.155  0.00  0.00    +0.110 C 
ATOM     20  C   UNL     1      -2.286 -11.046  15.942  0.00  0.00    +0.234 C 
ATOM     24  C   UNL     1      -7.439 -10.126  17.752  0.00  0.00    +0.221 C 
ATOM     30  H   UNL     1      -2.031 -11.382  17.927  0.00  0.00    +0.149 HD
ENDROOT
BRANCH  13   9
ATOM      4  O   UNL     1      -2.958  -9.730  10.332  0.00  0.00    -0.276 OA
ATOM      9  N   UNL     1      -4.469 -10.321  12.002  0.00  0.00    -0.311 N 
ATOM     23  C   UNL     1      -4.001  -9.555  10.950  0.00  0.00    +0.216 C 
ATOM     31  H   UNL     1      -5.369 -10.089  12.413  0.00  0.00    +0.149 HD
BRANCH  23  19
ATOM     19  C   UNL     1      -4.898  -8.422  10.574  0.00  0.00    +0.075 C 
ATOM     21  C   UNL     1      -5.553  -8.450   9.236  0.00  0.00    +0.013 C 
ATOM     22  C   UNL     1      -6.363  -8.678  10.478  0.00  0.00    +0.013 C 
ENDBRANCH  23  19
ENDBRANCH  13   9
BRANCH  24  25
ATOM     25  C   UNL     1      -8.622 -10.540  18.590  0.00  0.00    +0.138 C 
BRANCH  25  26
ATOM      1  S   UNL     1     -10.317 -11.164  16.504  0.00  0.00    -0.101 S 
ATOM     26  C   UNL     1      -9.866 -10.198  17.834  0.00  0.00    -0.001 A 
ATOM     27  C   UNL     1     -10.736  -9.169  18.068  0.00  0.00    +0.011 A 
ATOM     28  C   UNL     1     -11.809  -9.168  17.130  0.00  0.00    +0.008 A 
ATOM     29  C   UNL     1     -11.705 -10.200  16.223  0.00  0.00    +0.045 A 
ENDBRANCH  25  26
ENDBRANCH  24  25
TORSDOF 4
ENDMDL
MODEL 3
REMARK VINA RESULT:      -6.5     27.668     30.524
REMARK  Name = 11865896
REMARK  4 active torsions:
REMARK  status: ('A' for Active; 'I' for Inactive)
REMARK    1  A    between atoms: N_9  and  C_13
REMARK    2  A    between atoms: C_19  and  C_23
REMARK    3  A    between atoms: C_24  and  C_25
REMARK    4  A    between atoms: C_25  and  C_26
REMARK                            x       y       z     vdW  Elec       q    Type
REMARK                         _______ _______ _______ _____ _____    ______ ____
ROOT
ATOM      2  O   UNL     1      -5.711  -9.559  15.478  0.00  0.00    -0.273 OA
ATOM      3  O   UNL     1      -3.457 -12.319  19.959  0.00  0.00    -0.274 OA
ATOM      5  O   UNL     1      -5.114 -12.181  13.393  0.00  0.00    -0.275 OA
ATOM      6  N   UNL     1      -5.588 -10.580  17.560  0.00  0.00    -0.287 N 
ATOM      7  N   UNL     1      -3.513 -10.926  14.497  0.00  0.00    -0.288 N 
ATOM      8  N   UNL     1      -2.719 -11.478  17.995  0.00  0.00    -0.309 N 
ATOM     10  C   UNL     1      -3.977 -11.197  15.856  0.00  0.00    +0.182 C 
ATOM     11  C   UNL     1      -5.188 -11.711  18.403  0.00  0.00    +0.164 C 
ATOM     12  C   UNL     1      -2.828 -10.736  16.758  0.00  0.00    +0.104 C 
ATOM     13  C   UNL     1      -7.352 -10.865  19.093  0.00  0.00    +0.092 C 
ATOM     14  C   UNL     1      -6.134 -11.617  19.617  0.00  0.00    +0.055 C 
ATOM     15  C   UNL     1      -6.727  -9.868  18.129  0.00  0.00    +0.131 C 
ATOM     16  C   UNL     1      -1.603 -10.876  15.859  0.00  0.00    +0.043 C 
ATOM     17  C   UNL     1      -5.186 -10.366  16.246  0.00  0.00    +0.239 C 
ATOM     18  C   UNL     1      -2.137 -10.438  14.504  0.00  0.00    +0.110 C 
ATOM     20  C   UNL     1      -3.731 -11.792  18.873  0.00  0.00    +0.234 C 
ATOM     24  C   UNL     1      -4.229 -11.324  13.377  0.00  0.00    +0.221 C 
ATOM     30  H   UNL     1      -1.777 -11.609  18.353  0.00  0.00    +0.149 HD
ENDROOT
BRANCH  13   9
ATOM      4  O   UNL     1     -10.257 -10.718  19.053  0.00  0.00    -0.276 OA
ATOM      9  N   UNL     1      -8.270 -11.751  18.416  0.00  0.00    -0.311 N 
ATOM     23  C   UNL     1      -9.644 -11.595  18.459  0.00  0.00    +0.216 C 
ATOM     31  H   UNL     1      -7.881 -12.507  17.860  0.00  0.00    +0.149 HD
BRANCH  23  19
ATOM     19  C   UNL     1     -10.399 -12.626  17.686  0.00  0.00    +0.075 C 
ATOM     21  C   UNL     1      -9.626 -13.636  16.910  0.00  0.00    +0.013 C 
ATOM     22  C   UNL     1     -10.355 -14.039  18.158  0.00  0.00    +0.013 C 
ENDBRANCH  23  19
ENDBRANCH  13   9
BRANCH  24  25
ATOM     25  C   UNL     1      -3.868 -10.629  12.087  0.00  0.00    +0.138 C 
BRANCH  25  26
ATOM      1  S   UNL     1      -5.651 -10.916  10.002  0.00  0.00    -0.101 S 
ATOM     26  C   UNL     1      -5.135 -10.166  11.442  0.00  0.00    -0.001 A 
ATOM     27  C   UNL     1      -5.980  -9.176  11.864  0.00  0.00    +0.011 A 
ATOM     28  C   UNL     1      -7.088  -9.024  10.980  0.00  0.00    +0.008 A 
ATOM     29  C   UNL     1      -7.034  -9.908   9.925  0.00  0.00    +0.045 A 
ENDBRANCH  25  26
ENDBRANCH  24  25
TORSDOF 4
ENDMDL
MODEL 4
REMARK VINA RESULT:      -6.4      2.455      3.398
REMARK  Name = 11865896
REMARK  4 active torsions:
REMARK  status: ('A' for Active; 'I' for Inactive)
REMARK    1  A    between atoms: N_9  and  C_13
REMARK    2  A    between atoms: C_19  and  C_23
REMARK    3  A    between atoms: C_24  and  C_25
REMARK    4  A    between atoms: C_25  and  C_26
REMARK                            x       y       z     vdW  Elec       q    Type
REMARK                         _______ _______ _______ _____ _____    ______ ____
ROOT
ATOM      2  O   UNL     1      14.073  11.086  20.079  0.00  0.00    -0.273 OA
ATOM      3  O   UNL     1      10.182   7.852  22.758  0.00  0.00    -0.274 OA
ATOM      5  O   UNL     1      15.354  12.219  23.021  0.00  0.00    -0.275 OA
ATOM      6  N   UNL     1      12.936   9.181  20.766  0.00  0.00    -0.287 N 
ATOM      7  N   UNL     1      13.205  12.582  22.240  0.00  0.00    -0.288 N 
ATOM      8  N   UNL     1      10.612  10.058  22.514  0.00  0.00    -0.309 N 
ATOM     10  C   UNL     1      12.812  11.179  22.136  0.00  0.00    +0.182 C 
ATOM     11  C   UNL     1      12.341   8.367  21.830  0.00  0.00    +0.164 C 
ATOM     12  C   UNL     1      11.290  11.214  21.968  0.00  0.00    +0.104 C 
ATOM     13  C   UNL     1      13.457   6.955  20.206  0.00  0.00    +0.092 C 
ATOM     14  C   UNL     1      12.339   6.941  21.243  0.00  0.00    +0.055 C 
ATOM     15  C   UNL     1      13.350   8.360  19.633  0.00  0.00    +0.131 C 
ATOM     16  C   UNL     1      10.895  12.522  22.647  0.00  0.00    +0.043 C 
ATOM     17  C   UNL     1      13.363  10.499  20.895  0.00  0.00    +0.239 C 
ATOM     18  C   UNL     1      12.033  13.452  22.255  0.00  0.00    +0.110 C 
ATOM     20  C   UNL     1      10.940   8.734  22.333  0.00  0.00    +0.234 C 
ATOM     24  C   UNL     1      14.507  12.967  22.529  0.00  0.00    +0.221 C 
ATOM     30  H   UNL     1       9.690  10.227  22.904  0.00  0.00    +0.149 HD
ENDROOT
BRANCH  13   9
ATOM      4  O   UNL     1      15.943   6.234  18.879  0.00  0.00    -0.276 OA
ATOM      9  N   UNL     1      14.746   6.729  20.814  0.00  0.00    -0.311 N 
ATOM     23  C   UNL     1      15.875   6.387  20.093  0.00  0.00    +0.216 C 
ATOM     31  H   UNL     1      14.828   6.855  21.819  0.00  0.00    +0.149 HD
BRANCH  23  19
ATOM     19  C   UNL     1      17.100   6.202  20.926  0.00  0.00    +0.075 C 
ATOM     21  C   UNL     1      18.425   6.178  20.244  0.00  0.00    +0.013 C 
ATOM     22  C   UNL     1      18.030   7.356  21.086  0.00  0.00    +0.013 C 
ENDBRANCH  23  19
ENDBRANCH  13   9
BRANCH  24  25
ATOM     25  C   UNL     1      14.858  14.395  22.194  0.00  0.00    +0.138 C 
BRANCH  25  26
ATOM      1  S   UNL     1      14.229  15.285  19.660  0.00  0.00    -0.101 S 
ATOM     26  C   UNL     1      15.239  14.451  20.750  0.00  0.00    -0.001 A 
ATOM     27  C   UNL     1      16.337  13.900  20.148  0.00  0.00    +0.011 A 
ATOM     28  C   UNL     1      16.355  14.168  18.748  0.00  0.00    +0.008 A 
ATOM     29  C   UNL     1      15.267  14.912  18.350  0.00  0.00    +0.045 A 
ENDBRANCH  25  26
ENDBRANCH  24  25
TORSDOF 4
ENDMDL
MODEL 5
REMARK VINA RESULT:      -6.2     27.096     29.896
REMARK  Name = 11865896
REMARK  4 active torsions:
REMARK  status: ('A' for Active; 'I' for Inactive)
REMARK    1  A    between atoms: N_9  and  C_13
REMARK    2  A    between atoms: C_19  and  C_23
REMARK    3  A    between atoms: C_24  and  C_25
REMARK    4  A    between atoms: C_25  and  C_26
REMARK                            x       y       z     vdW  Elec       q    Type
REMARK                         _______ _______ _______ _____ _____    ______ ____
ROOT
ATOM      2  O   UNL     1      -4.999 -12.273  14.338  0.00  0.00    -0.273 OA
ATOM      3  O   UNL     1      -1.497  -9.360  10.871  0.00  0.00    -0.274 OA
ATOM      5  O   UNL     1      -5.489  -9.564  16.340  0.00  0.00    -0.275 OA
ATOM      6  N   UNL     1      -4.199 -11.281  12.397  0.00  0.00    -0.287 N 
ATOM      7  N   UNL     1      -3.477 -10.653  15.988  0.00  0.00    -0.288 N 
ATOM      8  N   UNL     1      -1.478 -10.079  13.013  0.00  0.00    -0.309 N 
ATOM     10  C   UNL     1      -3.417 -10.460  14.541  0.00  0.00    +0.182 C 
ATOM     11  C   UNL     1      -3.621 -10.128  11.700  0.00  0.00    +0.164 C 
ATOM     12  C   UNL     1      -1.974 -10.806  14.162  0.00  0.00    +0.104 C 
ATOM     13  C   UNL     1      -5.272 -11.221  10.303  0.00  0.00    +0.092 C 
ATOM     14  C   UNL     1      -4.024 -10.348  10.228  0.00  0.00    +0.055 C 
ATOM     15  C   UNL     1      -4.965 -12.125  11.487  0.00  0.00    +0.131 C 
ATOM     16  C   UNL     1      -1.198 -10.515  15.443  0.00  0.00    +0.043 C 
ATOM     17  C   UNL     1      -4.304 -11.427  13.776  0.00  0.00    +0.239 C 
ATOM     18  C   UNL     1      -2.159 -10.985  16.523  0.00  0.00    +0.110 C 
ATOM     20  C   UNL     1      -2.109  -9.894  11.805  0.00  0.00    +0.234 C 
ATOM     24  C   UNL     1      -4.597 -10.318  16.735  0.00  0.00    +0.221 C 
ATOM     30  H   UNL     1      -0.489  -9.850  13.026  0.00  0.00    +0.149 HD
ENDROOT
BRANCH  13   9
ATOM      4  O   UNL     1      -6.732  -9.603   8.376  0.00  0.00    -0.276 OA
ATOM      9  N   UNL     1      -6.458 -10.431  10.535  0.00  0.00    -0.311 N 
ATOM     23  C   UNL     1      -7.081  -9.691   9.547  0.00  0.00    +0.216 C 
ATOM     31  H   UNL     1      -6.866 -10.446  11.465  0.00  0.00    +0.149 HD
BRANCH  23  19
ATOM     19  C   UNL     1      -8.293  -8.951  10.010  0.00  0.00    +0.075 C 
ATOM     21  C   UNL     1      -8.910  -7.956   9.090  0.00  0.00    +0.013 C 
ATOM     22  C   UNL     1      -9.601  -9.259   9.366  0.00  0.00    +0.013 C 
ENDBRANCH  23  19
ENDBRANCH  13   9
BRANCH  24  25
ATOM     25  C   UNL     1      -4.685 -10.945  18.104  0.00  0.00    +0.138 C 
BRANCH  25  26
ATOM      1  S   UNL     1      -6.806 -12.602  17.498  0.00  0.00    -0.101 S 
ATOM     26  C   UNL     1      -6.115 -11.302  18.357  0.00  0.00    -0.001 A 
ATOM     27  C   UNL     1      -6.991 -10.705  19.221  0.00  0.00    +0.011 A 
ATOM     28  C   UNL     1      -8.271 -11.329  19.182  0.00  0.00    +0.008 A 
ATOM     29  C   UNL     1      -8.309 -12.376  18.287  0.00  0.00    +0.045 A 
ENDBRANCH  25  26
ENDBRANCH  24  25
TORSDOF 4
ENDMDL
MODEL 6
REMARK VINA RESULT:      -6.1     27.672     30.752
REMARK  Name = 11865896
REMARK  4 active torsions:
REMARK  status: ('A' for Active; 'I' for Inactive)
REMARK    1  A    between atoms: N_9  and  C_13
REMARK    2  A    between atoms: C_19  and  C_23
REMARK    3  A    between atoms: C_24  and  C_25
REMARK    4  A    between atoms: C_25  and  C_26
REMARK                            x       y       z     vdW  Elec       q    Type
REMARK                         _______ _______ _______ _____ _____    ______ ____
ROOT
ATOM      2  O   UNL     1      -6.202 -10.048  13.375  0.00  0.00    -0.273 OA
ATOM      3  O   UNL     1      -1.545 -10.912  16.591  0.00  0.00    -0.274 OA
ATOM      5  O   UNL     1      -5.920 -13.107  11.909  0.00  0.00    -0.275 OA
ATOM      6  N   UNL     1      -4.898 -10.320  15.277  0.00  0.00    -0.287 N 
ATOM      7  N   UNL     1      -4.395 -11.374  11.749  0.00  0.00    -0.288 N 
ATOM      8  N   UNL     1      -2.012 -10.664  14.394  0.00  0.00    -0.309 N 
ATOM     10  C   UNL     1      -4.115 -11.247  13.177  0.00  0.00    +0.182 C 
ATOM     11  C   UNL     1      -3.879 -11.059  16.029  0.00  0.00    +0.164 C 
ATOM     12  C   UNL     1      -2.854 -10.381  13.251  0.00  0.00    +0.104 C 
ATOM     13  C   UNL     1      -5.648 -10.313  17.508  0.00  0.00    +0.092 C 
ATOM     14  C   UNL     1      -4.172 -10.697  17.499  0.00  0.00    +0.055 C 
ATOM     15  C   UNL     1      -5.809  -9.610  16.168  0.00  0.00    +0.131 C 
ATOM     16  C   UNL     1      -2.168 -10.649  11.914  0.00  0.00    +0.043 C 
ATOM     17  C   UNL     1      -5.196 -10.492  13.929  0.00  0.00    +0.239 C 
ATOM     18  C   UNL     1      -3.345 -10.741  10.955  0.00  0.00    +0.110 C 
ATOM     20  C   UNL     1      -2.402 -10.802  15.705  0.00  0.00    +0.234 C 
ATOM     24  C   UNL     1      -5.399 -12.197  11.261  0.00  0.00    +0.221 C 
ATOM     30  H   UNL     1      -1.013 -10.554  14.247  0.00  0.00    +0.149 HD
ENDROOT
BRANCH  13   9
ATOM      4  O   UNL     1      -6.969 -11.363  19.878  0.00  0.00    -0.276 OA
ATOM      9  N   UNL     1      -6.498 -11.476  17.600  0.00  0.00    -0.311 N 
ATOM     23  C   UNL     1      -7.082 -11.897  18.781  0.00  0.00    +0.216 C 
ATOM     31  H   UNL     1      -6.695 -11.991  16.747  0.00  0.00    +0.149 HD
BRANCH  23  19
ATOM     19  C   UNL     1      -7.922 -13.124  18.643  0.00  0.00    +0.075 C 
ATOM     21  C   UNL     1      -8.896 -13.441  19.726  0.00  0.00    +0.013 C 
ATOM     22  C   UNL     1      -9.382 -12.959  18.391  0.00  0.00    +0.013 C 
ENDBRANCH  23  19
ENDBRANCH  13   9
BRANCH  24  25
ATOM     25  C   UNL     1      -5.850 -11.916   9.849  0.00  0.00    +0.138 C 
BRANCH  25  26
ATOM      1  S   UNL     1      -6.602  -9.270   9.651  0.00  0.00    -0.101 S 
ATOM     26  C   UNL     1      -6.959 -10.916   9.909  0.00  0.00    -0.001 A 
ATOM     27  C   UNL     1      -8.286 -11.145  10.153  0.00  0.00    +0.011 A 
ATOM     28  C   UNL     1      -9.037  -9.935  10.130  0.00  0.00    +0.008 A 
ATOM     29  C   UNL     1      -8.246  -8.838   9.868  0.00  0.00    +0.045 A 
ENDBRANCH  25  26
ENDBRANCH  24  25
TORSDOF 4
ENDMDL
MODEL 7
REMARK VINA RESULT:      -6.0     17.359     21.267
REMARK  Name = 11865896
REMARK  4 active torsions:
REMARK  status: ('A' for Active; 'I' for Inactive)
REMARK    1  A    between atoms: N_9  and  C_13
REMARK    2  A    between atoms: C_19  and  C_23
REMARK    3  A    between atoms: C_24  and  C_25
REMARK    4  A    between atoms: C_25  and  C_26
REMARK                            x       y       z     vdW  Elec       q    Type
REMARK                         _______ _______ _______ _____ _____    ______ ____
ROOT
ATOM      2  O   UNL     1      12.240   6.484   1.968  0.00  0.00    -0.273 OA
ATOM      3  O   UNL     1      17.008   8.252   4.597  0.00  0.00    -0.274 OA
ATOM      5  O   UNL     1      13.319   3.257   1.889  0.00  0.00    -0.275 OA
ATOM      6  N   UNL     1      13.599   7.392   3.617  0.00  0.00    -0.287 N 
ATOM      7  N   UNL     1      14.312   5.052   0.818  0.00  0.00    -0.288 N 
ATOM      8  N   UNL     1      16.455   7.393   2.581  0.00  0.00    -0.309 N 
ATOM     10  C   UNL     1      14.571   5.855   2.012  0.00  0.00    +0.182 C 
ATOM     11  C   UNL     1      14.793   7.323   4.465  0.00  0.00    +0.164 C 
ATOM     12  C   UNL     1      15.549   6.938   1.548  0.00  0.00    +0.104 C 
ATOM     13  C   UNL     1      12.913   8.197   5.720  0.00  0.00    +0.092 C 
ATOM     14  C   UNL     1      14.437   8.210   5.674  0.00  0.00    +0.055 C 
ATOM     15  C   UNL     1      12.545   8.181   4.243  0.00  0.00    +0.131 C 
ATOM     16  C   UNL     1      16.260   6.282   0.367  0.00  0.00    +0.043 C 
ATOM     17  C   UNL     1      13.337   6.581   2.517  0.00  0.00    +0.239 C 
ATOM     18  C   UNL     1      15.137   5.502  -0.300  0.00  0.00    +0.110 C 
ATOM     20  C   UNL     1      16.139   7.755   3.870  0.00  0.00    +0.234 C 
ATOM     24  C   UNL     1      13.562   3.886   0.858  0.00  0.00    +0.221 C 
ATOM     30  H   UNL     1      17.384   7.661   2.269  0.00  0.00    +0.149 HD
ENDROOT
BRANCH  13   9
ATOM      4  O   UNL     1      10.572   8.006   7.436  0.00  0.00    -0.276 OA
ATOM      9  N   UNL     1      12.414   7.026   6.401  0.00  0.00    -0.311 N 
ATOM     23  C   UNL     1      11.285   7.038   7.200  0.00  0.00    +0.216 C 
ATOM     31  H   UNL     1      12.904   6.147   6.261  0.00  0.00    +0.149 HD
BRANCH  23  19
ATOM     19  C   UNL     1      10.952   5.714   7.806  0.00  0.00    +0.075 C 
ATOM     21  C   UNL     1       9.719   5.606   8.637  0.00  0.00    +0.013 C 
ATOM     22  C   UNL     1       9.774   4.970   7.279  0.00  0.00    +0.013 C 
ENDBRANCH  23  19
ENDBRANCH  13   9
BRANCH  24  25
ATOM     25  C   UNL     1      13.029   3.404  -0.468  0.00  0.00    +0.138 C 
BRANCH  25  26
ATOM      1  S   UNL     1      11.875   5.143  -2.272  0.00  0.00    -0.101 S 
ATOM     26  C   UNL     1      11.845   4.245  -0.824  0.00  0.00    -0.001 A 
ATOM     27  C   UNL     1      10.685   4.406  -0.117  0.00  0.00    +0.011 A 
ATOM     28  C   UNL     1       9.788   5.293  -0.781  0.00  0.00    +0.008 A 
ATOM     29  C   UNL     1      10.310   5.767  -1.964  0.00  0.00    +0.045 A 
ENDBRANCH  25  26
ENDBRANCH  24  25
TORSDOF 4
ENDMDL
MODEL 8
REMARK VINA RESULT:      -5.9     28.539     30.418
REMARK  Name = 11865896
REMARK  4 active torsions:
REMARK  status: ('A' for Active; 'I' for Inactive)
REMARK    1  A    between atoms: N_9  and  C_13
REMARK    2  A    between atoms: C_19  and  C_23
REMARK    3  A    between atoms: C_24  and  C_25
REMARK    4  A    between atoms: C_25  and  C_26
REMARK                            x       y       z     vdW  Elec       q    Type
REMARK                         _______ _______ _______ _____ _____    ______ ____
ROOT
ATOM      2  O   UNL     1      -4.071 -11.627  17.825  0.00  0.00    -0.273 OA
ATOM      3  O   UNL     1      -5.251  -9.804  12.528  0.00  0.00    -0.274 OA
ATOM      5  O   UNL     1      -6.930 -13.467  17.972  0.00  0.00    -0.275 OA
ATOM      6  N   UNL     1      -3.837 -11.310  15.537  0.00  0.00    -0.287 N 
ATOM      7  N   UNL     1      -6.800 -11.165  17.774  0.00  0.00    -0.288 N 
ATOM      8  N   UNL     1      -6.125  -9.547  14.596  0.00  0.00    -0.309 N 
ATOM     10  C   UNL     1      -6.045 -11.133  16.524  0.00  0.00    +0.182 C 
ATOM     11  C   UNL     1      -4.400 -11.328  14.183  0.00  0.00    +0.164 C 
ATOM     12  C   UNL     1      -6.161  -9.686  16.036  0.00  0.00    +0.104 C 
ATOM     13  C   UNL     1      -2.128 -12.171  14.166  0.00  0.00    +0.092 C 
ATOM     14  C   UNL     1      -3.167 -11.500  13.274  0.00  0.00    +0.055 C 
ATOM     15  C   UNL     1      -2.394 -11.524  15.517  0.00  0.00    +0.131 C 
ATOM     16  C   UNL     1      -7.473  -9.214  16.656  0.00  0.00    +0.043 C 
ATOM     17  C   UNL     1      -4.563 -11.401  16.720  0.00  0.00    +0.239 C 
ATOM     18  C   UNL     1      -7.449  -9.880  18.023  0.00  0.00    +0.110 C 
ATOM     20  C   UNL     1      -5.234 -10.126  13.723  0.00  0.00    +0.234 C 
ATOM     24  C   UNL     1      -7.038 -12.343  18.467  0.00  0.00    +0.221 C 
ATOM     30  H   UNL     1      -6.686  -8.794  14.209  0.00  0.00    +0.149 HD
ENDROOT
BRANCH  13   9
ATOM      4  O   UNL     1      -0.260 -14.242  13.339  0.00  0.00    -0.276 OA
ATOM      9  N   UNL     1      -2.319 -13.601  14.217  0.00  0.00    -0.311 N 
ATOM     23  C   UNL     1      -1.364 -14.509  13.798  0.00  0.00    +0.216 C 
ATOM     31  H   UNL     1      -3.188 -13.952  14.609  0.00  0.00    +0.149 HD
BRANCH  23  19
ATOM     19  C   UNL     1      -1.774 -15.938  13.943  0.00  0.00    +0.075 C 
ATOM     21  C   UNL     1      -1.072 -16.777  14.954  0.00  0.00    +0.013 C 
ATOM     22  C   UNL     1      -2.491 -16.347  15.183  0.00  0.00    +0.013 C 
ENDBRANCH  23  19
ENDBRANCH  13   9
BRANCH  24  25
ATOM     25  C   UNL     1      -7.445 -12.186  19.911  0.00  0.00    +0.138 C 
BRANCH  25  26
ATOM      1  S   UNL     1     -10.174 -11.824  19.733  0.00  0.00    -0.101 S 
ATOM     26  C   UNL     1      -8.806 -12.782  20.075  0.00  0.00    -0.001 A 
ATOM     27  C   UNL     1      -9.127 -14.048  20.483  0.00  0.00    +0.011 A 
ATOM     28  C   UNL     1     -10.537 -14.244  20.517  0.00  0.00    +0.008 A 
ATOM     29  C   UNL     1     -11.227 -13.115  20.132  0.00  0.00    +0.045 A 
ENDBRANCH  25  26
ENDBRANCH  24  25
TORSDOF 4
ENDMDL
MODEL 9
REMARK VINA RESULT:      -5.9     18.692     21.847
REMARK  Name = 11865896
REMARK  4 active torsions:
REMARK  status: ('A' for Active; 'I' for Inactive)
REMARK    1  A    between atoms: N_9  and  C_13
REMARK    2  A    between atoms: C_19  and  C_23
REMARK    3  A    between atoms: C_24  and  C_25
REMARK    4  A    between atoms: C_25  and  C_26
REMARK                            x       y       z     vdW  Elec       q    Type
REMARK                         _______ _______ _______ _____ _____    ______ ____
ROOT
ATOM      2  O   UNL     1      11.761   5.143   2.750  0.00  0.00    -0.273 OA
ATOM      3  O   UNL     1      16.545   5.448  -0.380  0.00  0.00    -0.274 OA
ATOM      5  O   UNL     1      11.108   8.455   2.319  0.00  0.00    -0.275 OA
ATOM      6  N   UNL     1      13.250   4.730   1.017  0.00  0.00    -0.287 N 
ATOM      7  N   UNL     1      12.943   7.558   3.408  0.00  0.00    -0.288 N 
ATOM      8  N   UNL     1      15.808   6.264   1.594  0.00  0.00    -0.309 N 
ATOM     10  C   UNL     1      13.464   6.789   2.280  0.00  0.00    +0.182 C 
ATOM     11  C   UNL     1      14.179   5.216  -0.008  0.00  0.00    +0.164 C 
ATOM     12  C   UNL     1      14.884   6.398   2.700  0.00  0.00    +0.104 C 
ATOM     13  C   UNL     1      12.880   3.356  -0.858  0.00  0.00    +0.092 C 
ATOM     14  C   UNL     1      14.210   4.078  -1.047  0.00  0.00    +0.055 C 
ATOM     15  C   UNL     1      12.675   3.442   0.647  0.00  0.00    +0.131 C 
ATOM     16  C   UNL     1      15.273   7.501   3.681  0.00  0.00    +0.043 C 
ATOM     17  C   UNL     1      12.713   5.489   2.051  0.00  0.00    +0.239 C 
ATOM     18  C   UNL     1      13.971   7.751   4.427  0.00  0.00    +0.110 C 
ATOM     20  C   UNL     1      15.606   5.584   0.415  0.00  0.00    +0.234 C 
ATOM     24  C   UNL     1      11.714   8.201   3.361  0.00  0.00    +0.221 C 
ATOM     30  H   UNL     1      16.770   6.527   1.785  0.00  0.00    +0.149 HD
ENDROOT
BRANCH  13   9
ATOM      4  O   UNL     1      10.734   2.113  -2.379  0.00  0.00    -0.276 OA
ATOM      9  N   UNL     1      11.814   4.013  -1.575  0.00  0.00    -0.311 N 
ATOM     23  C   UNL     1      10.834   3.329  -2.273  0.00  0.00    +0.216 C 
ATOM     31  H   UNL     1      11.769   5.028  -1.538  0.00  0.00    +0.149 HD
BRANCH  23  19
ATOM     19  C   UNL     1       9.830   4.212  -2.939  0.00  0.00    +0.075 C 
ATOM     21  C   UNL     1      10.167   4.788  -4.271  0.00  0.00    +0.013 C 
ATOM     22  C   UNL     1       9.137   3.703  -4.155  0.00  0.00    +0.013 C 
ENDBRANCH  23  19
ENDBRANCH  13   9
BRANCH  24  25
ATOM     25  C   UNL     1      11.123   8.586   4.695  0.00  0.00    +0.138 C 
BRANCH  25  26
ATOM      1  S   UNL     1      10.943   6.438   6.417  0.00  0.00    -0.101 S 
ATOM     26  C   UNL     1      10.308   7.434   5.188  0.00  0.00    -0.001 A 
ATOM     27  C   UNL     1       9.063   7.046   4.773  0.00  0.00    +0.011 A 
ATOM     28  C   UNL     1       8.611   5.895   5.482  0.00  0.00    +0.008 A 
ATOM     29  C   UNL     1       9.536   5.461   6.406  0.00  0.00    +0.045 A 
ENDBRANCH  25  26
ENDBRANCH  24  25
TORSDOF 4
ENDMDL
MODEL 10
REMARK VINA RESULT:      -5.7     27.870     31.171
REMARK  Name = 11865896
REMARK  4 active torsions:
REMARK  status: ('A' for Active; 'I' for Inactive)
REMARK    1  A    between atoms: N_9  and  C_13
REMARK    2  A    between atoms: C_19  and  C_23
REMARK    3  A    between atoms: C_24  and  C_25
REMARK    4  A    between atoms: C_25  and  C_26
REMARK                            x       y       z     vdW  Elec       q    Type
REMARK                         _______ _______ _______ _____ _____    ______ ____
ROOT
ATOM      2  O   UNL     1      -6.199  -9.939  13.406  0.00  0.00    -0.273 OA
ATOM      3  O   UNL     1      -1.573 -10.969  16.618  0.00  0.00    -0.274 OA
ATOM      5  O   UNL     1      -5.954 -12.955  11.849  0.00  0.00    -0.275 OA
ATOM      6  N   UNL     1      -4.910 -10.287  15.306  0.00  0.00    -0.287 N 
ATOM      7  N   UNL     1      -4.403 -11.241  11.750  0.00  0.00    -0.288 N 
ATOM      8  N   UNL     1      -2.025 -10.647  14.427  0.00  0.00    -0.309 N 
ATOM     10  C   UNL     1      -4.129 -11.162  13.183  0.00  0.00    +0.182 C 
ATOM     11  C   UNL     1      -3.907 -11.064  16.041  0.00  0.00    +0.164 C 
ATOM     12  C   UNL     1      -2.856 -10.317  13.290  0.00  0.00    +0.104 C 
ATOM     13  C   UNL     1      -5.672 -10.338  17.533  0.00  0.00    +0.092 C 
ATOM     14  C   UNL     1      -4.202 -10.743  17.519  0.00  0.00    +0.055 C 
ATOM     15  C   UNL     1      -5.815  -9.592  16.214  0.00  0.00    +0.131 C 
ATOM     16  C   UNL     1      -2.167 -10.555  11.949  0.00  0.00    +0.043 C 
ATOM     17  C   UNL     1      -5.203 -10.414  13.952  0.00  0.00    +0.239 C 
ATOM     18  C   UNL     1      -3.339 -10.600  10.981  0.00  0.00    +0.110 C 
ATOM     20  C   UNL     1      -2.424 -10.819  15.732  0.00  0.00    +0.234 C 
ATOM     24  C   UNL     1      -5.416 -12.034  11.232  0.00  0.00    +0.221 C 
ATOM     30  H   UNL     1      -1.023 -10.548  14.289  0.00  0.00    +0.149 HD
ENDROOT
BRANCH  13   9
ATOM      4  O   UNL     1      -6.905 -11.526  19.884  0.00  0.00    -0.276 OA
ATOM      9  N   UNL     1      -6.539 -11.490  17.585  0.00  0.00    -0.311 N 
ATOM     23  C   UNL     1      -7.078 -11.981  18.760  0.00  0.00    +0.216 C 
ATOM     31  H   UNL     1      -6.785 -11.942  16.708  0.00  0.00    +0.149 HD
BRANCH  23  19
ATOM     19  C   UNL     1      -7.948 -13.182  18.579  0.00  0.00    +0.075 C 
ATOM     21  C   UNL     1      -8.977 -13.475  19.616  0.00  0.00    +0.013 C 
ATOM     22  C   UNL     1      -9.389 -12.972  18.263  0.00  0.00    +0.013 C 
ENDBRANCH  23  19
ENDBRANCH  13   9
BRANCH  24  25
ATOM     25  C   UNL     1      -5.855 -11.704   9.827  0.00  0.00    +0.138 C 
BRANCH  25  26
ATOM      1  S   UNL     1      -6.731 -13.645   8.074  0.00  0.00    -0.101 S 
ATOM     26  C   UNL     1      -5.497 -12.859   8.948  0.00  0.00    -0.001 A 
ATOM     27  C   UNL     1      -4.260 -13.403   8.735  0.00  0.00    +0.011 A 
ATOM     28  C   UNL     1      -4.321 -14.499   7.828  0.00  0.00    +0.008 A 
ATOM     29  C   UNL     1      -5.605 -14.739   7.390  0.00  0.00    +0.045 A 
ENDBRANCH  25  26
ENDBRANCH  24  25
TORSDOF 4
ENDMDL
