MODEL 1
REMARK VINA RESULT:      -6.9      0.000      0.000
REMARK  Name = 75367110
REMARK  6 active torsions:
REMARK  status: ('A' for Active; 'I' for Inactive)
REMARK    1  A    between atoms: O_2  and  C_9
REMARK    2  A    between atoms: N_4  and  C_7
REMARK    3  A    between atoms: N_4  and  C_8
REMARK    4  A    between atoms: N_5  and  C_17
REMARK    5  A    between atoms: C_12  and  C_17
REMARK    6  A    between atoms: C_18  and  C_19
REMARK                            x       y       z     vdW  Elec       q    Type
REMARK                         _______ _______ _______ _____ _____    ______ ____
ROOT
ATOM      1  O   UNL     1      10.643   7.652  20.907  0.00  0.00    -0.371 OA
ATOM      7  C   UNL     1      11.660   9.511  21.979  0.00  0.00    +0.111 C 
ATOM      9  C   UNL     1      12.672   8.857  21.057  0.00  0.00    +0.164 C 
ATOM     12  C   UNL     1      11.756   8.092  20.112  0.00  0.00    +0.165 C 
ATOM     13  C   UNL     1      10.634   8.402  22.135  0.00  0.00    +0.181 C 
ENDROOT
BRANCH   9   2
ATOM      2  O   UNL     1      13.472   9.798  20.369  0.00  0.00    -0.388 OA
ATOM     25  H   UNL     1      14.403   9.533  20.458  0.00  0.00    +0.210 HD
ENDBRANCH   9   2
BRANCH   7   4
ATOM      4  N   UNL     1      12.223   9.944  23.248  0.00  0.00    -0.306 NA
ATOM     24  H   UNL     1      13.232   9.802  23.252  0.00  0.00    +0.123 HD
BRANCH   4   8
ATOM      8  C   UNL     1      11.920  11.353  23.493  0.00  0.00    +0.054 C 
ATOM     10  C   UNL     1      11.192  11.948  22.282  0.00  0.00    +0.019 C 
ATOM     11  C   UNL     1      11.079  11.492  24.766  0.00  0.00    +0.019 C 
ATOM     14  C   UNL     1      10.790  13.400  22.532  0.00  0.00    +0.002 C 
ATOM     15  C   UNL     1      10.678  12.945  25.014  0.00  0.00    +0.002 C 
ATOM     16  C   UNL     1       9.962  13.544  23.806  0.00  0.00    +0.000 C 
ENDBRANCH   4   8
ENDBRANCH   7   4
BRANCH  12  17
ATOM     17  C   UNL     1      12.426   6.896  19.461  0.00  0.00    +0.138 C 
BRANCH  17   5
ATOM      3  O   UNL     1      14.772   7.310  17.860  0.00  0.00    -0.270 OA
ATOM      5  N   UNL     1      13.789   6.763  19.888  0.00  0.00    -0.309 N 
ATOM     18  C   UNL     1      14.869   6.984  19.039  0.00  0.00    +0.244 C 
ATOM     26  H   UNL     1      13.939   6.430  20.834  0.00  0.00    +0.149 HD
BRANCH  18  19
ATOM      6  N   UNL     1      18.759   6.401  20.730  0.00  0.00    -0.263 NA
ATOM     19  C   UNL     1      16.218   6.780  19.627  0.00  0.00    +0.040 A 
ATOM     20  C   UNL     1      16.609   7.508  20.745  0.00  0.00    +0.033 A 
ATOM     21  C   UNL     1      17.096   5.864  19.059  0.00  0.00    +0.033 A 
ATOM     22  C   UNL     1      17.879   7.284  21.254  0.00  0.00    +0.111 A 
ATOM     23  C   UNL     1      18.344   5.713  19.642  0.00  0.00    +0.111 A 
ENDBRANCH  18  19
ENDBRANCH  17   5
ENDBRANCH  12  17
TORSDOF 6
ENDMDL
MODEL 2
REMARK VINA RESULT:      -6.3     25.765     27.742
REMARK  Name = 75367110
REMARK  6 active torsions:
REMARK  status: ('A' for Active; 'I' for Inactive)
REMARK    1  A    between atoms: O_2  and  C_9
REMARK    2  A    between atoms: N_4  and  C_7
REMARK    3  A    between atoms: N_4  and  C_8
REMARK    4  A    between atoms: N_5  and  C_17
REMARK    5  A    between atoms: C_12  and  C_17
REMARK    6  A    between atoms: C_18  and  C_19
REMARK                            x       y       z     vdW  Elec       q    Type
REMARK                         _______ _______ _______ _____ _____    ______ ____
ROOT
ATOM      1  O   UNL     1      -1.104 -11.361  15.173  0.00  0.00    -0.371 OA
ATOM      7  C   UNL     1      -3.263 -11.006  16.097  0.00  0.00    +0.111 C 
ATOM      9  C   UNL     1      -3.402 -11.767  14.791  0.00  0.00    +0.164 C 
ATOM     12  C   UNL     1      -2.003 -12.347  14.639  0.00  0.00    +0.165 C 
ATOM     13  C   UNL     1      -1.865 -10.427  15.960  0.00  0.00    +0.181 C 
ENDROOT
BRANCH   9   2
ATOM      2  O   UNL     1      -4.388 -12.779  14.852  0.00  0.00    -0.388 OA
ATOM     25  H   UNL     1      -4.396 -13.251  14.002  0.00  0.00    +0.210 HD
ENDBRANCH   9   2
BRANCH   7   4
ATOM      4  N   UNL     1      -4.282  -9.987  16.288  0.00  0.00    -0.306 NA
ATOM     24  H   UNL     1      -4.882  -9.931  15.467  0.00  0.00    +0.123 HD
BRANCH   4   8
ATOM      8  C   UNL     1      -5.087 -10.277  17.473  0.00  0.00    +0.054 C 
ATOM     10  C   UNL     1      -6.506 -10.682  17.052  0.00  0.00    +0.019 C 
ATOM     11  C   UNL     1      -4.420 -11.382  18.299  0.00  0.00    +0.019 C 
ATOM     14  C   UNL     1      -7.355 -11.068  18.260  0.00  0.00    +0.002 C 
ATOM     15  C   UNL     1      -5.273 -11.766  19.507  0.00  0.00    +0.002 C 
ATOM     16  C   UNL     1      -6.689 -12.159  19.092  0.00  0.00    +0.000 C 
ENDBRANCH   4   8
ENDBRANCH   7   4
BRANCH  12  17
ATOM     17  C   UNL     1      -1.632 -12.654  13.200  0.00  0.00    +0.138 C 
BRANCH  17   5
ATOM      3  O   UNL     1      -1.409 -10.100  11.909  0.00  0.00    -0.270 OA
ATOM      5  N   UNL     1      -2.569 -12.073  12.283  0.00  0.00    -0.309 N 
ATOM     18  C   UNL     1      -2.379 -10.823  11.702  0.00  0.00    +0.244 C 
ATOM     26  H   UNL     1      -3.426 -12.590  12.121  0.00  0.00    +0.149 HD
BRANCH  18  19
ATOM      6  N   UNL     1      -5.483  -9.459   9.087  0.00  0.00    -0.263 NA
ATOM     19  C   UNL     1      -3.455 -10.351  10.793  0.00  0.00    +0.040 A 
ATOM     20  C   UNL     1      -3.273  -9.199  10.036  0.00  0.00    +0.033 A 
ATOM     21  C   UNL     1      -4.649 -11.057  10.699  0.00  0.00    +0.033 A 
ATOM     22  C   UNL     1      -4.308  -8.799   9.206  0.00  0.00    +0.111 A 
ATOM     23  C   UNL     1      -5.622 -10.574   9.840  0.00  0.00    +0.111 A 
ENDBRANCH  18  19
ENDBRANCH  17   5
ENDBRANCH  12  17
TORSDOF 6
ENDMDL
MODEL 3
REMARK VINA RESULT:      -6.2      2.470      8.443
REMARK  Name = 75367110
REMARK  6 active torsions:
REMARK  status: ('A' for Active; 'I' for Inactive)
REMARK    1  A    between atoms: O_2  and  C_9
REMARK    2  A    between atoms: N_4  and  C_7
REMARK    3  A    between atoms: N_4  and  C_8
REMARK    4  A    between atoms: N_5  and  C_17
REMARK    5  A    between atoms: C_12  and  C_17
REMARK    6  A    between atoms: C_18  and  C_19
REMARK                            x       y       z     vdW  Elec       q    Type
REMARK                         _______ _______ _______ _____ _____    ______ ____
ROOT
ATOM      1  O   UNL     1      16.617   5.634  18.600  0.00  0.00    -0.371 OA
ATOM      7  C   UNL     1      18.105   6.174  20.370  0.00  0.00    +0.111 C 
ATOM      9  C   UNL     1      16.995   7.208  20.323  0.00  0.00    +0.164 C 
ATOM     12  C   UNL     1      15.921   6.451  19.556  0.00  0.00    +0.165 C 
ATOM     13  C   UNL     1      18.001   5.558  18.984  0.00  0.00    +0.181 C 
ENDROOT
BRANCH   9   2
ATOM      2  O   UNL     1      16.553   7.592  21.611  0.00  0.00    -0.388 OA
ATOM     25  H   UNL     1      16.054   6.852  21.996  0.00  0.00    +0.210 HD
ENDBRANCH   9   2
BRANCH   7   4
ATOM      4  N   UNL     1      19.417   6.739  20.641  0.00  0.00    -0.306 NA
ATOM     24  H   UNL     1      19.323   7.680  21.022  0.00  0.00    +0.123 HD
BRANCH   4   8
ATOM      8  C   UNL     1      20.159   5.897  21.578  0.00  0.00    +0.054 C 
ATOM     10  C   UNL     1      21.017   4.888  20.804  0.00  0.00    +0.019 C 
ATOM     11  C   UNL     1      21.023   6.770  22.492  0.00  0.00    +0.019 C 
ATOM     14  C   UNL     1      21.866   4.040  21.749  0.00  0.00    +0.002 C 
ATOM     15  C   UNL     1      21.872   5.919  23.436  0.00  0.00    +0.002 C 
ATOM     16  C   UNL     1      22.720   4.906  22.670  0.00  0.00    +0.000 C 
ENDBRANCH   4   8
ENDBRANCH   7   4
BRANCH  12  17
ATOM     17  C   UNL     1      14.941   7.361  18.837  0.00  0.00    +0.138 C 
BRANCH  17   5
ATOM      3  O   UNL     1      12.187   6.824  19.443  0.00  0.00    -0.270 OA
ATOM      5  N   UNL     1      14.113   8.075  19.765  0.00  0.00    -0.309 N 
ATOM     18  C   UNL     1      12.782   7.744  19.997  0.00  0.00    +0.244 C 
ATOM     26  H   UNL     1      14.524   8.890  20.207  0.00  0.00    +0.149 HD
BRANCH  18  19
ATOM      6  N   UNL     1      10.686  10.204  22.804  0.00  0.00    -0.263 NA
ATOM     19  C   UNL     1      12.053   8.598  20.969  0.00  0.00    +0.040 A 
ATOM     20  C   UNL     1      12.133   9.983  20.879  0.00  0.00    +0.033 A 
ATOM     21  C   UNL     1      11.290   8.015  21.976  0.00  0.00    +0.033 A 
ATOM     22  C   UNL     1      11.438  10.735  21.813  0.00  0.00    +0.111 A 
ATOM     23  C   UNL     1      10.632   8.854  22.860  0.00  0.00    +0.111 A 
ENDBRANCH  18  19
ENDBRANCH  17   5
ENDBRANCH  12  17
TORSDOF 6
ENDMDL
MODEL 4
REMARK VINA RESULT:      -6.2      3.983      5.990
REMARK  Name = 75367110
REMARK  6 active torsions:
REMARK  status: ('A' for Active; 'I' for Inactive)
REMARK    1  A    between atoms: O_2  and  C_9
REMARK    2  A    between atoms: N_4  and  C_7
REMARK    3  A    between atoms: N_4  and  C_8
REMARK    4  A    between atoms: N_5  and  C_17
REMARK    5  A    between atoms: C_12  and  C_17
REMARK    6  A    between atoms: C_18  and  C_19
REMARK                            x       y       z     vdW  Elec       q    Type
REMARK                         _______ _______ _______ _____ _____    ______ ____
ROOT
ATOM      1  O   UNL     1      12.896   9.624  19.057  0.00  0.00    -0.371 OA
ATOM      7  C   UNL     1      12.435   9.646  16.727  0.00  0.00    +0.111 C 
ATOM      9  C   UNL     1      12.162   8.257  17.273  0.00  0.00    +0.164 C 
ATOM     12  C   UNL     1      11.987   8.553  18.755  0.00  0.00    +0.165 C 
ATOM     13  C   UNL     1      13.313  10.232  17.821  0.00  0.00    +0.181 C 
ENDROOT
BRANCH   9   2
ATOM      2  O   UNL     1      11.005   7.669  16.712  0.00  0.00    -0.388 OA
ATOM     25  H   UNL     1      10.262   7.811  17.322  0.00  0.00    +0.210 HD
ENDBRANCH   9   2
BRANCH   7   4
ATOM      4  N   UNL     1      13.080   9.645  15.424  0.00  0.00    -0.306 NA
ATOM     24  H   UNL     1      12.379   9.688  14.685  0.00  0.00    +0.123 HD
BRANCH   4   8
ATOM      8  C   UNL     1      14.001  10.774  15.302  0.00  0.00    +0.054 C 
ATOM     10  C   UNL     1      15.363  10.282  14.797  0.00  0.00    +0.019 C 
ATOM     11  C   UNL     1      13.410  11.828  14.360  0.00  0.00    +0.019 C 
ATOM     14  C   UNL     1      16.329  11.446  14.583  0.00  0.00    +0.002 C 
ATOM     15  C   UNL     1      14.379  12.990  14.147  0.00  0.00    +0.002 C 
ATOM     16  C   UNL     1      15.740  12.504  13.655  0.00  0.00    +0.000 C 
ENDBRANCH   4   8
ENDBRANCH   7   4
BRANCH  12  17
ATOM     17  C   UNL     1      12.284   7.360  19.646  0.00  0.00    +0.138 C 
BRANCH  17   5
ATOM      3  O   UNL     1      14.219   7.527  21.760  0.00  0.00    -0.270 OA
ATOM      5  N   UNL     1      13.666   6.985  19.574  0.00  0.00    -0.309 N 
ATOM     18  C   UNL     1      14.537   7.101  20.653  0.00  0.00    +0.244 C 
ATOM     26  H   UNL     1      14.010   6.689  18.666  0.00  0.00    +0.149 HD
BRANCH  18  19
ATOM      6  N   UNL     1      18.594   5.934  19.944  0.00  0.00    -0.263 NA
ATOM     19  C   UNL     1      15.944   6.694  20.408  0.00  0.00    +0.040 A 
ATOM     20  C   UNL     1      16.904   6.871  21.398  0.00  0.00    +0.033 A 
ATOM     21  C   UNL     1      16.308   6.138  19.186  0.00  0.00    +0.033 A 
ATOM     22  C   UNL     1      18.203   6.478  21.119  0.00  0.00    +0.111 A 
ATOM     23  C   UNL     1      17.633   5.778  19.006  0.00  0.00    +0.111 A 
ENDBRANCH  18  19
ENDBRANCH  17   5
ENDBRANCH  12  17
TORSDOF 6
ENDMDL
MODEL 5
REMARK VINA RESULT:      -6.0     27.311     30.213
REMARK  Name = 75367110
REMARK  6 active torsions:
REMARK  status: ('A' for Active; 'I' for Inactive)
REMARK    1  A    between atoms: O_2  and  C_9
REMARK    2  A    between atoms: N_4  and  C_7
REMARK    3  A    between atoms: N_4  and  C_8
REMARK    4  A    between atoms: N_5  and  C_17
REMARK    5  A    between atoms: C_12  and  C_17
REMARK    6  A    between atoms: C_18  and  C_19
REMARK                            x       y       z     vdW  Elec       q    Type
REMARK                         _______ _______ _______ _____ _____    ______ ____
ROOT
ATOM      1  O   UNL     1     -17.169   4.544  25.230  0.00  0.00    -0.371 OA
ATOM      7  C   UNL     1     -16.001   4.232  23.186  0.00  0.00    +0.111 C 
ATOM      9  C   UNL     1     -16.446   2.880  23.713  0.00  0.00    +0.164 C 
ATOM     12  C   UNL     1     -17.569   3.289  24.656  0.00  0.00    +0.165 C 
ATOM     13  C   UNL     1     -16.100   5.090  24.436  0.00  0.00    +0.181 C 
ENDROOT
BRANCH   9   2
ATOM      2  O   UNL     1     -16.904   2.019  22.689  0.00  0.00    -0.388 OA
ATOM     25  H   UNL     1     -17.393   2.550  22.038  0.00  0.00    +0.210 HD
ENDBRANCH   9   2
BRANCH   7   4
ATOM      4  N   UNL     1     -14.665   4.222  22.611  0.00  0.00    -0.306 NA
ATOM     24  H   UNL     1     -14.626   3.574  21.825  0.00  0.00    +0.123 HD
BRANCH   4   8
ATOM      8  C   UNL     1     -14.283   5.562  22.169  0.00  0.00    +0.054 C 
ATOM     10  C   UNL     1     -12.817   5.563  21.720  0.00  0.00    +0.019 C 
ATOM     11  C   UNL     1     -15.208   6.020  21.037  0.00  0.00    +0.019 C 
ATOM     14  C   UNL     1     -12.403   6.930  21.178  0.00  0.00    +0.002 C 
ATOM     15  C   UNL     1     -14.791   7.387  20.496  0.00  0.00    +0.002 C 
ATOM     16  C   UNL     1     -13.328   7.396  20.058  0.00  0.00    +0.000 C 
ENDBRANCH   4   8
ENDBRANCH   7   4
BRANCH  12  17
ATOM     17  C   UNL     1     -17.825   2.278  25.760  0.00  0.00    +0.138 C 
BRANCH  17   5
ATOM      3  O   UNL     1     -17.414   0.426  27.914  0.00  0.00    -0.270 OA
ATOM      5  N   UNL     1     -16.840   2.376  26.797  0.00  0.00    -0.309 N 
ATOM     18  C   UNL     1     -16.712   1.427  27.807  0.00  0.00    +0.244 C 
ATOM     26  H   UNL     1     -16.271   3.215  26.806  0.00  0.00    +0.149 HD
BRANCH  18  19
ATOM      6  N   UNL     1     -13.682   2.176  30.737  0.00  0.00    -0.263 NA
ATOM     19  C   UNL     1     -15.659   1.687  28.822  0.00  0.00    +0.040 A 
ATOM     20  C   UNL     1     -15.033   0.625  29.464  0.00  0.00    +0.033 A 
ATOM     21  C   UNL     1     -15.299   2.993  29.136  0.00  0.00    +0.033 A 
ATOM     22  C   UNL     1     -14.059   0.920  30.406  0.00  0.00    +0.111 A 
ATOM     23  C   UNL     1     -14.314   3.182  30.092  0.00  0.00    +0.111 A 
ENDBRANCH  18  19
ENDBRANCH  17   5
ENDBRANCH  12  17
TORSDOF 6
ENDMDL
MODEL 6
REMARK VINA RESULT:      -6.0     26.471     28.122
REMARK  Name = 75367110
REMARK  6 active torsions:
REMARK  status: ('A' for Active; 'I' for Inactive)
REMARK    1  A    between atoms: O_2  and  C_9
REMARK    2  A    between atoms: N_4  and  C_7
REMARK    3  A    between atoms: N_4  and  C_8
REMARK    4  A    between atoms: N_5  and  C_17
REMARK    5  A    between atoms: C_12  and  C_17
REMARK    6  A    between atoms: C_18  and  C_19
REMARK                            x       y       z     vdW  Elec       q    Type
REMARK                         _______ _______ _______ _____ _____    ______ ____
ROOT
ATOM      1  O   UNL     1      -3.849 -10.406  13.950  0.00  0.00    -0.371 OA
ATOM      7  C   UNL     1      -3.340 -10.877  16.222  0.00  0.00    +0.111 C 
ATOM      9  C   UNL     1      -2.208 -11.381  15.346  0.00  0.00    +0.164 C 
ATOM     12  C   UNL     1      -2.427 -10.561  14.083  0.00  0.00    +0.165 C 
ATOM     13  C   UNL     1      -4.464 -10.735  15.209  0.00  0.00    +0.181 C 
ENDROOT
BRANCH   9   2
ATOM      2  O   UNL     1      -0.934 -11.147  15.913  0.00  0.00    -0.388 OA
ATOM     25  H   UNL     1      -0.582 -11.994  16.234  0.00  0.00    +0.210 HD
ENDBRANCH   9   2
BRANCH   7   4
ATOM      4  N   UNL     1      -3.674 -11.774  17.316  0.00  0.00    -0.306 NA
ATOM     24  H   UNL     1      -3.094 -11.568  18.129  0.00  0.00    +0.123 HD
BRANCH   4   8
ATOM      8  C   UNL     1      -5.087 -11.651  17.672  0.00  0.00    +0.054 C 
ATOM     10  C   UNL     1      -5.702 -13.045  17.848  0.00  0.00    +0.019 C 
ATOM     11  C   UNL     1      -5.233 -10.818  18.948  0.00  0.00    +0.019 C 
ATOM     14  C   UNL     1      -7.160 -12.957  18.295  0.00  0.00    +0.002 C 
ATOM     15  C   UNL     1      -6.692 -10.732  19.394  0.00  0.00    +0.002 C 
ATOM     16  C   UNL     1      -7.311 -12.117  19.560  0.00  0.00    +0.000 C 
ENDBRANCH   4   8
ENDBRANCH   7   4
BRANCH  12  17
ATOM     17  C   UNL     1      -1.863 -11.216  12.834  0.00  0.00    +0.138 C 
BRANCH  17   5
ATOM      3  O   UNL     1      -2.100  -9.310  10.701  0.00  0.00    -0.270 OA
ATOM      5  N   UNL     1      -2.827 -11.234  11.773  0.00  0.00    -0.309 N 
ATOM     18  C   UNL     1      -2.869 -10.264  10.776  0.00  0.00    +0.244 C 
ATOM     26  H   UNL     1      -3.535 -11.960  11.814  0.00  0.00    +0.149 HD
BRANCH  18  19
ATOM      6  N   UNL     1      -5.965 -10.688   7.850  0.00  0.00    -0.263 NA
ATOM     19  C   UNL     1      -3.945 -10.411   9.763  0.00  0.00    +0.040 A 
ATOM     20  C   UNL     1      -4.520 -11.655   9.531  0.00  0.00    +0.033 A 
ATOM     21  C   UNL     1      -4.377  -9.305   9.039  0.00  0.00    +0.033 A 
ATOM     22  C   UNL     1      -5.517 -11.740   8.572  0.00  0.00    +0.111 A 
ATOM     23  C   UNL     1      -5.381  -9.495   8.103  0.00  0.00    +0.111 A 
ENDBRANCH  18  19
ENDBRANCH  17   5
ENDBRANCH  12  17
TORSDOF 6
ENDMDL
MODEL 7
REMARK VINA RESULT:      -6.0     26.072     28.244
REMARK  Name = 75367110
REMARK  6 active torsions:
REMARK  status: ('A' for Active; 'I' for Inactive)
REMARK    1  A    between atoms: O_2  and  C_9
REMARK    2  A    between atoms: N_4  and  C_7
REMARK    3  A    between atoms: N_4  and  C_8
REMARK    4  A    between atoms: N_5  and  C_17
REMARK    5  A    between atoms: C_12  and  C_17
REMARK    6  A    between atoms: C_18  and  C_19
REMARK                            x       y       z     vdW  Elec       q    Type
REMARK                         _______ _______ _______ _____ _____    ______ ____
ROOT
ATOM      1  O   UNL     1      -8.624 -11.023  18.765  0.00  0.00    -0.371 OA
ATOM      7  C   UNL     1      -9.265  -9.180  17.411  0.00  0.00    +0.111 C 
ATOM      9  C   UNL     1      -7.757  -9.341  17.348  0.00  0.00    +0.164 C 
ATOM     12  C   UNL     1      -7.598 -10.789  17.787  0.00  0.00    +0.165 C 
ATOM     13  C   UNL     1      -9.599  -9.969  18.666  0.00  0.00    +0.181 C 
ENDROOT
BRANCH   9   2
ATOM      2  O   UNL     1      -7.239  -9.123  16.050  0.00  0.00    -0.388 OA
ATOM     25  H   UNL     1      -7.938  -9.318  15.404  0.00  0.00    +0.210 HD
ENDBRANCH   9   2
BRANCH   7   4
ATOM      4  N   UNL     1      -9.702  -7.795  17.481  0.00  0.00    -0.306 NA
ATOM     24  H   UNL     1      -8.924  -7.195  17.754  0.00  0.00    +0.123 HD
BRANCH   4   8
ATOM      8  C   UNL     1     -10.238  -7.357  16.194  0.00  0.00    +0.054 C 
ATOM     10  C   UNL     1     -10.923  -8.534  15.488  0.00  0.00    +0.019 C 
ATOM     11  C   UNL     1     -11.214  -6.195  16.404  0.00  0.00    +0.019 C 
ATOM     14  C   UNL     1     -11.564  -8.096  14.172  0.00  0.00    +0.002 C 
ATOM     15  C   UNL     1     -11.855  -5.760  15.087  0.00  0.00    +0.002 C 
ATOM     16  C   UNL     1     -12.528  -6.931  14.376  0.00  0.00    +0.000 C 
ENDBRANCH   4   8
ENDBRANCH   7   4
BRANCH  12  17
ATOM     17  C   UNL     1      -6.237 -11.088  18.390  0.00  0.00    +0.138 C 
BRANCH  17   5
ATOM      3  O   UNL     1      -4.844 -12.805  16.559  0.00  0.00    -0.270 OA
ATOM      5  N   UNL     1      -5.177 -10.712  17.501  0.00  0.00    -0.309 N 
ATOM     18  C   UNL     1      -4.555 -11.615  16.644  0.00  0.00    +0.244 C 
ATOM     26  H   UNL     1      -4.844  -9.756  17.569  0.00  0.00    +0.149 HD
BRANCH  18  19
ATOM      6  N   UNL     1      -1.385 -10.059  14.224  0.00  0.00    -0.263 NA
ATOM     19  C   UNL     1      -3.456 -11.073  15.804  0.00  0.00    +0.040 A 
ATOM     20  C   UNL     1      -3.629 -10.937  14.432  0.00  0.00    +0.033 A 
ATOM     21  C   UNL     1      -2.250 -10.703  16.388  0.00  0.00    +0.033 A 
ATOM     22  C   UNL     1      -2.572 -10.431  13.692  0.00  0.00    +0.111 A 
ATOM     23  C   UNL     1      -1.255 -10.206  15.562  0.00  0.00    +0.111 A 
ENDBRANCH  18  19
ENDBRANCH  17   5
ENDBRANCH  12  17
TORSDOF 6
ENDMDL
MODEL 8
REMARK VINA RESULT:      -5.9     27.767     30.496
REMARK  Name = 75367110
REMARK  6 active torsions:
REMARK  status: ('A' for Active; 'I' for Inactive)
REMARK    1  A    between atoms: O_2  and  C_9
REMARK    2  A    between atoms: N_4  and  C_7
REMARK    3  A    between atoms: N_4  and  C_8
REMARK    4  A    between atoms: N_5  and  C_17
REMARK    5  A    between atoms: C_12  and  C_17
REMARK    6  A    between atoms: C_18  and  C_19
REMARK                            x       y       z     vdW  Elec       q    Type
REMARK                         _______ _______ _______ _____ _____    ______ ____
ROOT
ATOM      1  O   UNL     1     -10.091 -12.706  18.463  0.00  0.00    -0.371 OA
ATOM      7  C   UNL     1      -8.616 -11.346  19.734  0.00  0.00    +0.111 C 
ATOM      9  C   UNL     1      -9.969 -10.664  19.649  0.00  0.00    +0.164 C 
ATOM     12  C   UNL     1     -10.870 -11.842  19.306  0.00  0.00    +0.165 C 
ATOM     13  C   UNL     1      -8.705 -12.336  18.585  0.00  0.00    +0.181 C 
ENDROOT
BRANCH   9   2
ATOM      2  O   UNL     1     -10.347 -10.048  20.865  0.00  0.00    -0.388 OA
ATOM     25  H   UNL     1     -10.944  -9.309  20.661  0.00  0.00    +0.210 HD
ENDBRANCH   9   2
BRANCH   7   4
ATOM      4  N   UNL     1      -7.493 -10.431  19.607  0.00  0.00    -0.306 NA
ATOM     24  H   UNL     1      -6.914 -10.466  20.445  0.00  0.00    +0.123 HD
BRANCH   4   8
ATOM      8  C   UNL     1      -6.688 -10.761  18.433  0.00  0.00    +0.054 C 
ATOM     10  C   UNL     1      -6.785  -9.632  17.400  0.00  0.00    +0.019 C 
ATOM     11  C   UNL     1      -5.234 -11.005  18.850  0.00  0.00    +0.019 C 
ATOM     14  C   UNL     1      -5.894  -9.907  16.190  0.00  0.00    +0.002 C 
ATOM     15  C   UNL     1      -4.345 -11.279  17.638  0.00  0.00    +0.002 C 
ATOM     16  C   UNL     1      -4.447 -10.162  16.602  0.00  0.00    +0.000 C 
ENDBRANCH   4   8
ENDBRANCH   7   4
BRANCH  12  17
ATOM     17  C   UNL     1     -12.144 -11.436  18.587  0.00  0.00    +0.138 C 
BRANCH  17   5
ATOM      3  O   UNL     1     -11.645 -10.751  15.845  0.00  0.00    -0.270 OA
ATOM      5  N   UNL     1     -12.037 -10.115  18.040  0.00  0.00    -0.309 N 
ATOM     18  C   UNL     1     -11.792  -9.875  16.692  0.00  0.00    +0.244 C 
ATOM     26  H   UNL     1     -12.082  -9.345  18.699  0.00  0.00    +0.149 HD
BRANCH  18  19
ATOM      6  N   UNL     1     -11.480  -5.765  15.533  0.00  0.00    -0.263 NA
ATOM     19  C   UNL     1     -11.684  -8.450  16.288  0.00  0.00    +0.040 A 
ATOM     20  C   UNL     1     -10.434  -7.870  16.104  0.00  0.00    +0.033 A 
ATOM     21  C   UNL     1     -12.832  -7.690  16.095  0.00  0.00    +0.033 A 
ATOM     22  C   UNL     1     -10.386  -6.535  15.731  0.00  0.00    +0.111 A 
ATOM     23  C   UNL     1     -12.678  -6.364  15.721  0.00  0.00    +0.111 A 
ENDBRANCH  18  19
ENDBRANCH  17   5
ENDBRANCH  12  17
TORSDOF 6
ENDMDL
MODEL 9
REMARK VINA RESULT:      -5.8     27.272     29.377
REMARK  Name = 75367110
REMARK  6 active torsions:
REMARK  status: ('A' for Active; 'I' for Inactive)
REMARK    1  A    between atoms: O_2  and  C_9
REMARK    2  A    between atoms: N_4  and  C_7
REMARK    3  A    between atoms: N_4  and  C_8
REMARK    4  A    between atoms: N_5  and  C_17
REMARK    5  A    between atoms: C_12  and  C_17
REMARK    6  A    between atoms: C_18  and  C_19
REMARK                            x       y       z     vdW  Elec       q    Type
REMARK                         _______ _______ _______ _____ _____    ______ ____
ROOT
ATOM      1  O   UNL     1     -10.538  -8.818  14.789  0.00  0.00    -0.371 OA
ATOM      7  C   UNL     1     -11.853  -6.873  14.430  0.00  0.00    +0.111 C 
ATOM      9  C   UNL     1     -11.169  -6.767  15.781  0.00  0.00    +0.164 C 
ATOM     12  C   UNL     1     -10.025  -7.755  15.610  0.00  0.00    +0.165 C 
ATOM     13  C   UNL     1     -11.748  -8.364  14.157  0.00  0.00    +0.181 C 
ENDROOT
BRANCH   9   2
ATOM      2  O   UNL     1     -10.701  -5.460  16.054  0.00  0.00    -0.388 OA
ATOM     25  H   UNL     1      -9.730  -5.484  16.089  0.00  0.00    +0.210 HD
ENDBRANCH   9   2
BRANCH   7   4
ATOM      4  N   UNL     1     -13.225  -6.393  14.431  0.00  0.00    -0.306 NA
ATOM     24  H   UNL     1     -13.595  -6.390  15.381  0.00  0.00    +0.123 HD
BRANCH   4   8
ATOM      8  C   UNL     1     -13.302  -5.048  13.864  0.00  0.00    +0.054 C 
ATOM     10  C   UNL     1     -12.237  -4.881  12.773  0.00  0.00    +0.019 C 
ATOM     11  C   UNL     1     -14.707  -4.796  13.308  0.00  0.00    +0.019 C 
ATOM     14  C   UNL     1     -12.338  -3.512  12.103  0.00  0.00    +0.002 C 
ATOM     15  C   UNL     1     -14.804  -3.427  12.637  0.00  0.00    +0.002 C 
ATOM     16  C   UNL     1     -13.739  -3.253  11.558  0.00  0.00    +0.000 C 
ENDBRANCH   4   8
ENDBRANCH   7   4
BRANCH  12  17
ATOM     17  C   UNL     1      -9.518  -8.321  16.924  0.00  0.00    +0.138 C 
BRANCH  17   5
ATOM      3  O   UNL     1      -8.334 -10.415  18.490  0.00  0.00    -0.270 OA
ATOM      5  N   UNL     1      -8.190  -8.846  16.789  0.00  0.00    -0.309 N 
ATOM     18  C   UNL     1      -7.697  -9.866  17.596  0.00  0.00    +0.244 C 
ATOM     26  H   UNL     1      -7.587  -8.390  16.113  0.00  0.00    +0.149 HD
BRANCH  18  19
ATOM      6  N   UNL     1      -3.646 -11.053  16.880  0.00  0.00    -0.263 NA
ATOM     19  C   UNL     1      -6.292 -10.280  17.347  0.00  0.00    +0.040 A 
ATOM     20  C   UNL     1      -5.599 -11.008  18.307  0.00  0.00    +0.033 A 
ATOM     21  C   UNL     1      -5.665  -9.937  16.154  0.00  0.00    +0.033 A 
ATOM     22  C   UNL     1      -4.289 -11.367  18.028  0.00  0.00    +0.111 A 
ATOM     23  C   UNL     1      -4.353 -10.343  15.971  0.00  0.00    +0.111 A 
ENDBRANCH  18  19
ENDBRANCH  17   5
ENDBRANCH  12  17
TORSDOF 6
ENDMDL
MODEL 10
REMARK VINA RESULT:      -5.7     26.730     29.523
REMARK  Name = 75367110
REMARK  6 active torsions:
REMARK  status: ('A' for Active; 'I' for Inactive)
REMARK    1  A    between atoms: O_2  and  C_9
REMARK    2  A    between atoms: N_4  and  C_7
REMARK    3  A    between atoms: N_4  and  C_8
REMARK    4  A    between atoms: N_5  and  C_17
REMARK    5  A    between atoms: C_12  and  C_17
REMARK    6  A    between atoms: C_18  and  C_19
REMARK                            x       y       z     vdW  Elec       q    Type
REMARK                         _______ _______ _______ _____ _____    ______ ____
ROOT
ATOM      1  O   UNL     1     -17.673   5.839  25.137  0.00  0.00    -0.371 OA
ATOM      7  C   UNL     1     -16.639   4.063  26.326  0.00  0.00    +0.111 C 
ATOM      9  C   UNL     1     -16.243   3.976  24.864  0.00  0.00    +0.164 C 
ATOM     12  C   UNL     1     -16.521   5.398  24.400  0.00  0.00    +0.165 C 
ATOM     13  C   UNL     1     -17.869   4.952  26.253  0.00  0.00    +0.181 C 
ENDROOT
BRANCH   9   2
ATOM      2  O   UNL     1     -14.887   3.618  24.686  0.00  0.00    -0.388 OA
ATOM     25  H   UNL     1     -14.634   3.821  23.769  0.00  0.00    +0.210 HD
ENDBRANCH   9   2
BRANCH   7   4
ATOM      4  N   UNL     1     -16.910   2.771  26.935  0.00  0.00    -0.306 NA
ATOM     24  H   UNL     1     -16.926   2.043  26.221  0.00  0.00    +0.123 HD
BRANCH   4   8
ATOM      8  C   UNL     1     -15.902   2.453  27.945  0.00  0.00    +0.054 C 
ATOM     10  C   UNL     1     -15.688   3.661  28.865  0.00  0.00    +0.019 C 
ATOM     11  C   UNL     1     -16.336   1.220  28.744  0.00  0.00    +0.019 C 
ATOM     14  C   UNL     1     -14.697   3.341  29.981  0.00  0.00    +0.002 C 
ATOM     15  C   UNL     1     -15.343   0.902  29.861  0.00  0.00    +0.002 C 
ATOM     16  C   UNL     1     -15.119   2.106  30.773  0.00  0.00    +0.000 C 
ENDBRANCH   4   8
ENDBRANCH   7   4
BRANCH  12  17
ATOM     17  C   UNL     1     -16.794   5.503  22.910  0.00  0.00    +0.138 C 
BRANCH  17   5
ATOM      3  O   UNL     1     -14.296   4.563  21.857  0.00  0.00    -0.270 OA
ATOM      5  N   UNL     1     -15.794   6.288  22.249  0.00  0.00    -0.309 N 
ATOM     18  C   UNL     1     -14.606   5.747  21.768  0.00  0.00    +0.244 C 
ATOM     26  H   UNL     1     -15.958   7.288  22.202  0.00  0.00    +0.149 HD
BRANCH  18  19
ATOM      6  N   UNL     1     -11.882   8.494  19.935  0.00  0.00    -0.263 NA
ATOM     19  C   UNL     1     -13.661   6.699  21.130  0.00  0.00    +0.040 A 
ATOM     20  C   UNL     1     -12.297   6.429  21.122  0.00  0.00    +0.033 A 
ATOM     21  C   UNL     1     -14.137   7.866  20.541  0.00  0.00    +0.033 A 
ATOM     22  C   UNL     1     -11.457   7.351  20.518  0.00  0.00    +0.111 A 
ATOM     23  C   UNL     1     -13.215   8.723  19.962  0.00  0.00    +0.111 A 
ENDBRANCH  18  19
ENDBRANCH  17   5
ENDBRANCH  12  17
TORSDOF 6
ENDMDL
