MODEL 1
REMARK VINA RESULT:      -7.2      0.000      0.000
REMARK  Name = 40779549
REMARK  11 active torsions:
REMARK  status: ('A' for Active; 'I' for Inactive)
REMARK    1  A    between atoms: S_1  and  N_9
REMARK    2  A    between atoms: S_1  and  C_24
REMARK    3  A    between atoms: O_5  and  C_28
REMARK    4  A    between atoms: O_5  and  C_33
REMARK    5  A    between atoms: O_6  and  C_31
REMARK    6  A    between atoms: O_6  and  C_34
REMARK    7  A    between atoms: N_8  and  C_22
REMARK    8  A    between atoms: N_9  and  C_18
REMARK    9  A    between atoms: C_12  and  C_19
REMARK   10  A    between atoms: C_13  and  C_18
REMARK   11  A    between atoms: C_21  and  C_23
REMARK                            x       y       z     vdW  Elec       q    Type
REMARK                         _______ _______ _______ _____ _____    ______ ____
ROOT
ATOM      7  N   UNL     1      -5.417 -12.796  17.161  0.00  0.00    -0.297 NA
ATOM     11  C   UNL     1      -5.685 -10.618  18.563  0.00  0.00    +0.002 C 
ATOM     12  C   UNL     1      -7.037 -11.380  18.478  0.00  0.00    +0.055 C 
ATOM     13  C   UNL     1      -4.847 -11.640  16.420  0.00  0.00    +0.072 C 
ATOM     14  C   UNL     1      -5.179 -10.315  17.138  0.00  0.00    +0.024 C 
ATOM     15  C   UNL     1      -4.669 -11.583  19.209  0.00  0.00    +0.019 C 
ATOM     16  C   UNL     1      -6.847 -12.548  17.469  0.00  0.00    +0.094 C 
ATOM     17  C   UNL     1      -4.683 -12.918  18.444  0.00  0.00    +0.085 C 
ENDROOT
BRANCH  12  19
ATOM      8  N   UNL     1      -9.457 -10.746  18.900  0.00  0.00    -0.270 N 
ATOM     10  N   UNL     1     -10.456  -9.941  18.501  0.00  0.00    -0.171 NA
ATOM     19  C   UNL     1      -8.299 -10.576  18.201  0.00  0.00    +0.044 A 
ATOM     20  C   UNL     1      -8.558  -9.589  17.281  0.00  0.00    +0.053 A 
ATOM     21  C   UNL     1      -9.901  -9.236  17.512  0.00  0.00    +0.093 A 
ATOM     22  C   UNL     1      -9.691 -11.678  19.980  0.00  0.00    +0.172 C 
BRANCH  21  23
ATOM     23  C   UNL     1     -10.662  -8.240  16.805  0.00  0.00    +0.006 A 
ATOM     25  C   UNL     1     -12.052  -8.343  16.736  0.00  0.00    +0.059 A 
ATOM     26  C   UNL     1     -10.011  -7.171  16.189  0.00  0.00    +0.014 A 
ATOM     28  C   UNL     1     -12.790  -7.378  16.051  0.00  0.00    +0.162 A 
ATOM     29  C   UNL     1     -10.749  -6.206  15.503  0.00  0.00    +0.050 A 
ATOM     31  C   UNL     1     -12.138  -6.309  15.435  0.00  0.00    +0.162 A 
BRANCH  28   5
ATOM      5  O   UNL     1     -14.146  -7.488  15.991  0.00  0.00    -0.491 OA
ATOM     33  C   UNL     1     -14.681  -8.402  15.036  0.00  0.00    +0.277 C 
ENDBRANCH  28   5
BRANCH  31   6
ATOM      6  O   UNL     1     -12.848  -5.360  14.763  0.00  0.00    -0.491 OA
ATOM     34  C   UNL     1     -12.376  -4.995  13.466  0.00  0.00    +0.277 C 
ENDBRANCH  31   6
ENDBRANCH  21  23
ENDBRANCH  12  19
BRANCH  13  18
ATOM     18  C   UNL     1      -5.280 -11.619  14.953  0.00  0.00    +0.124 C 
BRANCH  18   9
ATOM      9  N   UNL     1      -4.570 -10.536  14.254  0.00  0.00    -0.188 NA
ATOM     35  H   UNL     1      -5.194  -9.832  13.837  0.00  0.00    +0.148 HD
BRANCH   9   1
ATOM      1  S   UNL     1      -3.191 -10.881  13.314  0.00  0.00    +0.065 S 
ATOM      3  O   UNL     1      -3.129 -12.309  13.063  0.00  0.00    -0.153 OA
ATOM      4  O   UNL     1      -2.048 -10.189  13.877  0.00  0.00    -0.153 OA
BRANCH   1  24
ATOM      2  S   UNL     1      -5.228  -9.630  11.618  0.00  0.00    -0.077 S 
ATOM     24  C   UNL     1      -3.584 -10.076  11.790  0.00  0.00    +0.142 A 
ATOM     27  C   UNL     1      -2.834  -9.723  10.690  0.00  0.00    +0.036 A 
ATOM     30  C   UNL     1      -3.620  -9.078   9.692  0.00  0.00    +0.010 A 
ATOM     32  C   UNL     1      -4.941  -8.962  10.067  0.00  0.00    +0.047 A 
ENDBRANCH   1  24
ENDBRANCH   9   1
ENDBRANCH  18   9
ENDBRANCH  13  18
TORSDOF 8
ENDMDL
MODEL 2
REMARK VINA RESULT:      -6.8      4.595      8.048
REMARK  Name = 40779549
REMARK  11 active torsions:
REMARK  status: ('A' for Active; 'I' for Inactive)
REMARK    1  A    between atoms: S_1  and  N_9
REMARK    2  A    between atoms: S_1  and  C_24
REMARK    3  A    between atoms: O_5  and  C_28
REMARK    4  A    between atoms: O_5  and  C_33
REMARK    5  A    between atoms: O_6  and  C_31
REMARK    6  A    between atoms: O_6  and  C_34
REMARK    7  A    between atoms: N_8  and  C_22
REMARK    8  A    between atoms: N_9  and  C_18
REMARK    9  A    between atoms: C_12  and  C_19
REMARK   10  A    between atoms: C_13  and  C_18
REMARK   11  A    between atoms: C_21  and  C_23
REMARK                            x       y       z     vdW  Elec       q    Type
REMARK                         _______ _______ _______ _____ _____    ______ ____
ROOT
ATOM      7  N   UNL     1      -6.102 -10.187   9.289  0.00  0.00    -0.297 NA
ATOM     11  C   UNL     1      -4.249  -8.871  10.559  0.00  0.00    +0.002 C 
ATOM     12  C   UNL     1      -4.453 -10.274  11.196  0.00  0.00    +0.055 C 
ATOM     13  C   UNL     1      -6.591  -8.827   9.636  0.00  0.00    +0.072 C 
ATOM     14  C   UNL     1      -5.589  -8.108  10.564  0.00  0.00    +0.024 C 
ATOM     15  C   UNL     1      -3.865  -9.104   9.083  0.00  0.00    +0.019 C 
ATOM     16  C   UNL     1      -5.700 -10.912  10.520  0.00  0.00    +0.094 C 
ATOM     17  C   UNL     1      -4.903 -10.033   8.431  0.00  0.00    +0.085 C 
ENDROOT
BRANCH  12  19
ATOM      8  N   UNL     1      -3.392 -10.516  13.488  0.00  0.00    -0.270 N 
ATOM     10  N   UNL     1      -3.650 -10.587  14.805  0.00  0.00    -0.171 NA
ATOM     19  C   UNL     1      -4.505 -10.373  12.714  0.00  0.00    +0.044 A 
ATOM     20  C   UNL     1      -5.566 -10.347  13.585  0.00  0.00    +0.053 A 
ATOM     21  C   UNL     1      -4.981 -10.483  14.858  0.00  0.00    +0.093 A 
ATOM     22  C   UNL     1      -2.022 -10.599  13.033  0.00  0.00    +0.172 C 
BRANCH  21  23
ATOM     23  C   UNL     1      -5.668 -10.515  16.122  0.00  0.00    +0.006 A 
ATOM     25  C   UNL     1      -5.027 -11.025  17.252  0.00  0.00    +0.059 A 
ATOM     26  C   UNL     1      -6.975 -10.037  16.219  0.00  0.00    +0.014 A 
ATOM     28  C   UNL     1      -5.693 -11.056  18.477  0.00  0.00    +0.162 A 
ATOM     29  C   UNL     1      -7.641 -10.069  17.444  0.00  0.00    +0.050 A 
ATOM     31  C   UNL     1      -7.001 -10.578  18.573  0.00  0.00    +0.162 A 
BRANCH  28   5
ATOM      5  O   UNL     1      -5.057 -11.555  19.573  0.00  0.00    -0.491 OA
ATOM     33  C   UNL     1      -3.784 -12.163  19.364  0.00  0.00    +0.277 C 
ENDBRANCH  28   5
BRANCH  31   6
ATOM      6  O   UNL     1      -7.661 -10.604  19.764  0.00  0.00    -0.491 OA
ATOM     34  C   UNL     1      -8.955 -11.205  19.774  0.00  0.00    +0.277 C 
ENDBRANCH  31   6
ENDBRANCH  21  23
ENDBRANCH  12  19
BRANCH  13  18
ATOM     18  C   UNL     1      -8.002  -8.848  10.226  0.00  0.00    +0.124 C 
BRANCH  18   9
ATOM      9  N   UNL     1      -8.882  -9.637   9.349  0.00  0.00    -0.188 NA
ATOM     35  H   UNL     1      -8.626 -10.631   9.290  0.00  0.00    +0.148 HD
BRANCH   9   1
ATOM      1  S   UNL     1      -9.446  -8.979   7.882  0.00  0.00    +0.065 S 
ATOM      3  O   UNL     1     -10.746  -9.545   7.573  0.00  0.00    -0.153 OA
ATOM      4  O   UNL     1      -8.379  -9.024   6.901  0.00  0.00    -0.153 OA
BRANCH   1  24
ATOM      2  S   UNL     1     -11.111  -6.955   9.196  0.00  0.00    -0.077 S 
ATOM     24  C   UNL     1      -9.678  -7.281   8.316  0.00  0.00    +0.142 A 
ATOM     27  C   UNL     1      -8.938  -6.141   8.094  0.00  0.00    +0.036 A 
ATOM     30  C   UNL     1      -9.554  -4.985   8.652  0.00  0.00    +0.010 A 
ATOM     32  C   UNL     1     -10.744  -5.285   9.281  0.00  0.00    +0.047 A 
ENDBRANCH   1  24
ENDBRANCH   9   1
ENDBRANCH  18   9
ENDBRANCH  13  18
TORSDOF 8
ENDMDL
MODEL 3
REMARK VINA RESULT:      -6.8      3.524      8.510
REMARK  Name = 40779549
REMARK  11 active torsions:
REMARK  status: ('A' for Active; 'I' for Inactive)
REMARK    1  A    between atoms: S_1  and  N_9
REMARK    2  A    between atoms: S_1  and  C_24
REMARK    3  A    between atoms: O_5  and  C_28
REMARK    4  A    between atoms: O_5  and  C_33
REMARK    5  A    between atoms: O_6  and  C_31
REMARK    6  A    between atoms: O_6  and  C_34
REMARK    7  A    between atoms: N_8  and  C_22
REMARK    8  A    between atoms: N_9  and  C_18
REMARK    9  A    between atoms: C_12  and  C_19
REMARK   10  A    between atoms: C_13  and  C_18
REMARK   11  A    between atoms: C_21  and  C_23
REMARK                            x       y       z     vdW  Elec       q    Type
REMARK                         _______ _______ _______ _____ _____    ______ ____
ROOT
ATOM      7  N   UNL     1      -6.484 -10.571  18.164  0.00  0.00    -0.297 NA
ATOM     11  C   UNL     1      -4.463 -12.098  17.557  0.00  0.00    +0.002 C 
ATOM     12  C   UNL     1      -4.329 -10.715  16.861  0.00  0.00    +0.055 C 
ATOM     13  C   UNL     1      -6.969 -11.901  17.710  0.00  0.00    +0.072 C 
ATOM     14  C   UNL     1      -5.804 -12.745  17.152  0.00  0.00    +0.024 C 
ATOM     15  C   UNL     1      -4.531 -11.827  19.075  0.00  0.00    +0.019 C 
ATOM     16  C   UNL     1      -5.656  -9.943  17.105  0.00  0.00    +0.094 C 
ATOM     17  C   UNL     1      -5.627 -10.784  19.355  0.00  0.00    +0.085 C 
ENDROOT
BRANCH  12  19
ATOM      8  N   UNL     1      -2.597 -10.652  15.007  0.00  0.00    -0.270 N 
ATOM     10  N   UNL     1      -2.431 -10.627  13.674  0.00  0.00    -0.171 NA
ATOM     19  C   UNL     1      -3.902 -10.684  15.400  0.00  0.00    +0.044 A 
ATOM     20  C   UNL     1      -4.642 -10.681  14.243  0.00  0.00    +0.053 A 
ATOM     21  C   UNL     1      -3.685 -10.645  13.212  0.00  0.00    +0.093 A 
ATOM     22  C   UNL     1      -1.432 -10.640  15.863  0.00  0.00    +0.172 C 
BRANCH  21  23
ATOM     23  C   UNL     1      -3.944 -10.626  11.797  0.00  0.00    +0.006 A 
ATOM     25  C   UNL     1      -4.561  -9.518  11.215  0.00  0.00    +0.059 A 
ATOM     26  C   UNL     1      -3.580 -11.716  11.006  0.00  0.00    +0.014 A 
ATOM     28  C   UNL     1      -4.812  -9.500   9.843  0.00  0.00    +0.162 A 
ATOM     29  C   UNL     1      -3.831 -11.699   9.635  0.00  0.00    +0.050 A 
ATOM     31  C   UNL     1      -4.447 -10.591   9.053  0.00  0.00    +0.162 A 
BRANCH  28   5
ATOM      5  O   UNL     1      -5.413  -8.413   9.286  0.00  0.00    -0.491 OA
ATOM     33  C   UNL     1      -6.838  -8.375   9.312  0.00  0.00    +0.277 C 
ENDBRANCH  28   5
BRANCH  31   6
ATOM      6  O   UNL     1      -4.688 -10.584   7.712  0.00  0.00    -0.491 OA
ATOM     34  C   UNL     1      -4.628 -11.841   7.038  0.00  0.00    +0.277 C 
ENDBRANCH  31   6
ENDBRANCH  21  23
ENDBRANCH  12  19
BRANCH  13  18
ATOM     18  C   UNL     1      -8.123 -11.790  16.711  0.00  0.00    +0.124 C 
BRANCH  18   9
ATOM      9  N   UNL     1      -9.353 -11.422  17.430  0.00  0.00    -0.188 NA
ATOM     35  H   UNL     1      -9.986 -12.214  17.602  0.00  0.00    +0.148 HD
BRANCH   9   1
ATOM      1  S   UNL     1     -10.154  -9.963  17.068  0.00  0.00    +0.065 S 
ATOM      3  O   UNL     1     -10.825 -10.090  15.788  0.00  0.00    -0.153 OA
ATOM      4  O   UNL     1      -9.253  -8.853  17.312  0.00  0.00    -0.153 OA
BRANCH   1  24
ATOM      2  S   UNL     1     -10.834 -10.309  19.899  0.00  0.00    -0.077 S 
ATOM     24  C   UNL     1     -11.392  -9.910  18.329  0.00  0.00    +0.142 A 
ATOM     27  C   UNL     1     -12.736  -9.608  18.320  0.00  0.00    +0.036 A 
ATOM     30  C   UNL     1     -13.316  -9.708  19.617  0.00  0.00    +0.010 A 
ATOM     32  C   UNL     1     -12.393 -10.081  20.570  0.00  0.00    +0.047 A 
ENDBRANCH   1  24
ENDBRANCH   9   1
ENDBRANCH  18   9
ENDBRANCH  13  18
TORSDOF 8
ENDMDL
MODEL 4
REMARK VINA RESULT:      -6.7      3.306      8.170
REMARK  Name = 40779549
REMARK  11 active torsions:
REMARK  status: ('A' for Active; 'I' for Inactive)
REMARK    1  A    between atoms: S_1  and  N_9
REMARK    2  A    between atoms: S_1  and  C_24
REMARK    3  A    between atoms: O_5  and  C_28
REMARK    4  A    between atoms: O_5  and  C_33
REMARK    5  A    between atoms: O_6  and  C_31
REMARK    6  A    between atoms: O_6  and  C_34
REMARK    7  A    between atoms: N_8  and  C_22
REMARK    8  A    between atoms: N_9  and  C_18
REMARK    9  A    between atoms: C_12  and  C_19
REMARK   10  A    between atoms: C_13  and  C_18
REMARK   11  A    between atoms: C_21  and  C_23
REMARK                            x       y       z     vdW  Elec       q    Type
REMARK                         _______ _______ _______ _____ _____    ______ ____
ROOT
ATOM      7  N   UNL     1     -11.987  -9.603  16.916  0.00  0.00    -0.297 NA
ATOM     11  C   UNL     1     -10.472  -7.707  15.973  0.00  0.00    +0.002 C 
ATOM     12  C   UNL     1     -10.400  -8.964  15.062  0.00  0.00    +0.055 C 
ATOM     13  C   UNL     1     -11.111  -9.070  17.992  0.00  0.00    +0.072 C 
ATOM     14  C   UNL     1     -10.066  -8.094  17.410  0.00  0.00    +0.024 C 
ATOM     15  C   UNL     1     -11.953  -7.276  16.020  0.00  0.00    +0.019 C 
ATOM     16  C   UNL     1     -11.162 -10.108  15.791  0.00  0.00    +0.094 C 
ATOM     17  C   UNL     1     -12.820  -8.484  16.413  0.00  0.00    +0.085 C 
ENDROOT
BRANCH  12  19
ATOM      8  N   UNL     1      -8.801  -9.766  13.262  0.00  0.00    -0.270 N 
ATOM     10  N   UNL     1      -7.531 -10.129  13.019  0.00  0.00    -0.171 NA
ATOM     19  C   UNL     1      -9.035  -9.410  14.558  0.00  0.00    +0.044 A 
ATOM     20  C   UNL     1      -7.833  -9.549  15.207  0.00  0.00    +0.053 A 
ATOM     21  C   UNL     1      -6.943  -9.994  14.211  0.00  0.00    +0.093 A 
ATOM     22  C   UNL     1      -9.760  -9.788  12.181  0.00  0.00    +0.172 C 
BRANCH  21  23
ATOM     23  C   UNL     1      -5.546 -10.294  14.378  0.00  0.00    +0.006 A 
ATOM     25  C   UNL     1      -4.766 -10.624  13.269  0.00  0.00    +0.059 A 
ATOM     26  C   UNL     1      -4.970 -10.255  15.647  0.00  0.00    +0.014 A 
ATOM     28  C   UNL     1      -3.412 -10.915  13.429  0.00  0.00    +0.162 A 
ATOM     29  C   UNL     1      -3.615 -10.546  15.809  0.00  0.00    +0.050 A 
ATOM     31  C   UNL     1      -2.836 -10.875  14.700  0.00  0.00    +0.162 A 
BRANCH  28   5
ATOM      5  O   UNL     1      -2.661 -11.235  12.340  0.00  0.00    -0.491 OA
ATOM     33  C   UNL     1      -2.304 -10.169  11.461  0.00  0.00    +0.277 C 
ENDBRANCH  28   5
BRANCH  31   6
ATOM      6  O   UNL     1      -1.514 -11.157  14.869  0.00  0.00    -0.491 OA
ATOM     34  C   UNL     1      -0.787 -10.330  15.777  0.00  0.00    +0.277 C 
ENDBRANCH  31   6
ENDBRANCH  21  23
ENDBRANCH  12  19
BRANCH  13  18
ATOM     18  C   UNL     1     -10.458 -10.181  18.816  0.00  0.00    +0.124 C 
BRANCH  18   9
ATOM      9  N   UNL     1      -8.999 -10.131  18.627  0.00  0.00    -0.188 NA
ATOM     35  H   UNL     1      -8.713  -9.917  17.662  0.00  0.00    +0.148 HD
BRANCH   9   1
ATOM      1  S   UNL     1      -7.994 -11.259  19.413  0.00  0.00    +0.065 S 
ATOM      3  O   UNL     1      -8.805 -12.116  20.257  0.00  0.00    -0.153 OA
ATOM      4  O   UNL     1      -6.846 -10.567  19.967  0.00  0.00    -0.153 OA
BRANCH   1  24
ATOM      2  S   UNL     1      -5.800 -12.792  18.217  0.00  0.00    -0.077 S 
ATOM     24  C   UNL     1      -7.408 -12.227  18.055  0.00  0.00    +0.142 A 
ATOM     27  C   UNL     1      -7.981 -12.632  16.870  0.00  0.00    +0.036 A 
ATOM     30  C   UNL     1      -7.088 -13.417  16.084  0.00  0.00    +0.010 A 
ATOM     32  C   UNL     1      -5.866 -13.582  16.700  0.00  0.00    +0.047 A 
ENDBRANCH   1  24
ENDBRANCH   9   1
ENDBRANCH  18   9
ENDBRANCH  13  18
TORSDOF 8
ENDMDL
MODEL 5
REMARK VINA RESULT:      -6.7      3.274      7.998
REMARK  Name = 40779549
REMARK  11 active torsions:
REMARK  status: ('A' for Active; 'I' for Inactive)
REMARK    1  A    between atoms: S_1  and  N_9
REMARK    2  A    between atoms: S_1  and  C_24
REMARK    3  A    between atoms: O_5  and  C_28
REMARK    4  A    between atoms: O_5  and  C_33
REMARK    5  A    between atoms: O_6  and  C_31
REMARK    6  A    between atoms: O_6  and  C_34
REMARK    7  A    between atoms: N_8  and  C_22
REMARK    8  A    between atoms: N_9  and  C_18
REMARK    9  A    between atoms: C_12  and  C_19
REMARK   10  A    between atoms: C_13  and  C_18
REMARK   11  A    between atoms: C_21  and  C_23
REMARK                            x       y       z     vdW  Elec       q    Type
REMARK                         _______ _______ _______ _____ _____    ______ ____
ROOT
ATOM      7  N   UNL     1      -6.358 -10.497  18.117  0.00  0.00    -0.297 NA
ATOM     11  C   UNL     1      -4.450 -12.125  17.417  0.00  0.00    +0.002 C 
ATOM     12  C   UNL     1      -4.238 -10.729  16.770  0.00  0.00    +0.055 C 
ATOM     13  C   UNL     1      -6.935 -11.774  17.623  0.00  0.00    +0.072 C 
ATOM     14  C   UNL     1      -5.836 -12.669  17.013  0.00  0.00    +0.024 C 
ATOM     15  C   UNL     1      -4.475 -11.908  18.944  0.00  0.00    +0.019 C 
ATOM     16  C   UNL     1      -5.509  -9.883  17.066  0.00  0.00    +0.094 C 
ATOM     17  C   UNL     1      -5.497 -10.809  19.283  0.00  0.00    +0.085 C 
ENDROOT
BRANCH  12  19
ATOM      8  N   UNL     1      -2.536 -10.591  14.892  0.00  0.00    -0.270 N 
ATOM     10  N   UNL     1      -2.391 -10.547  13.557  0.00  0.00    -0.171 NA
ATOM     19  C   UNL     1      -3.834 -10.669  15.303  0.00  0.00    +0.044 A 
ATOM     20  C   UNL     1      -4.591 -10.680  14.157  0.00  0.00    +0.053 A 
ATOM     21  C   UNL     1      -3.650 -10.602  13.113  0.00  0.00    +0.093 A 
ATOM     22  C   UNL     1      -1.360 -10.547  15.731  0.00  0.00    +0.172 C 
BRANCH  21  23
ATOM     23  C   UNL     1      -3.930 -10.579  11.702  0.00  0.00    +0.006 A 
ATOM     25  C   UNL     1      -4.662 -11.614  11.118  0.00  0.00    +0.059 A 
ATOM     26  C   UNL     1      -3.472  -9.522  10.916  0.00  0.00    +0.014 A 
ATOM     28  C   UNL     1      -4.934 -11.592   9.751  0.00  0.00    +0.162 A 
ATOM     29  C   UNL     1      -3.743  -9.499   9.548  0.00  0.00    +0.050 A 
ATOM     31  C   UNL     1      -4.474 -10.534   8.965  0.00  0.00    +0.162 A 
BRANCH  28   5
ATOM      5  O   UNL     1      -5.649 -12.607   9.193  0.00  0.00    -0.491 OA
ATOM     33  C   UNL     1      -7.012 -12.737   9.592  0.00  0.00    +0.277 C 
ENDBRANCH  28   5
BRANCH  31   6
ATOM      6  O   UNL     1      -4.734 -10.501   7.629  0.00  0.00    -0.491 OA
ATOM     34  C   UNL     1      -5.896  -9.786   7.212  0.00  0.00    +0.277 C 
ENDBRANCH  31   6
ENDBRANCH  21  23
ENDBRANCH  12  19
BRANCH  13  18
ATOM     18  C   UNL     1      -8.095 -11.552  16.651  0.00  0.00    +0.124 C 
BRANCH  18   9
ATOM      9  N   UNL     1      -9.348 -11.997  17.281  0.00  0.00    -0.188 NA
ATOM     35  H   UNL     1      -9.913 -12.620  16.689  0.00  0.00    +0.148 HD
BRANCH   9   1
ATOM      1  S   UNL     1     -10.269 -10.911  18.218  0.00  0.00    +0.065 S 
ATOM      3  O   UNL     1      -9.545 -10.599  19.437  0.00  0.00    -0.153 OA
ATOM      4  O   UNL     1     -11.638 -11.384  18.284  0.00  0.00    -0.153 OA
BRANCH   1  24
ATOM      2  S   UNL     1     -11.230  -9.586  15.787  0.00  0.00    -0.077 S 
ATOM     24  C   UNL     1     -10.269  -9.467  17.199  0.00  0.00    +0.142 A 
ATOM     27  C   UNL     1      -9.649  -8.242  17.300  0.00  0.00    +0.036 A 
ATOM     30  C   UNL     1      -9.966  -7.389  16.204  0.00  0.00    +0.010 A 
ATOM     32  C   UNL     1     -10.818  -7.995  15.306  0.00  0.00    +0.047 A 
ENDBRANCH   1  24
ENDBRANCH   9   1
ENDBRANCH  18   9
ENDBRANCH  13  18
TORSDOF 8
ENDMDL
MODEL 6
REMARK VINA RESULT:      -6.6      4.679      7.938
REMARK  Name = 40779549
REMARK  11 active torsions:
REMARK  status: ('A' for Active; 'I' for Inactive)
REMARK    1  A    between atoms: S_1  and  N_9
REMARK    2  A    between atoms: S_1  and  C_24
REMARK    3  A    between atoms: O_5  and  C_28
REMARK    4  A    between atoms: O_5  and  C_33
REMARK    5  A    between atoms: O_6  and  C_31
REMARK    6  A    between atoms: O_6  and  C_34
REMARK    7  A    between atoms: N_8  and  C_22
REMARK    8  A    between atoms: N_9  and  C_18
REMARK    9  A    between atoms: C_12  and  C_19
REMARK   10  A    between atoms: C_13  and  C_18
REMARK   11  A    between atoms: C_21  and  C_23
REMARK                            x       y       z     vdW  Elec       q    Type
REMARK                         _______ _______ _______ _____ _____    ______ ____
ROOT
ATOM      7  N   UNL     1      -5.954 -10.220   9.331  0.00  0.00    -0.297 NA
ATOM     11  C   UNL     1      -4.188  -8.841  10.659  0.00  0.00    +0.002 C 
ATOM     12  C   UNL     1      -4.336 -10.264  11.266  0.00  0.00    +0.055 C 
ATOM     13  C   UNL     1      -6.513  -8.891   9.694  0.00  0.00    +0.072 C 
ATOM     14  C   UNL     1      -5.564  -8.144  10.654  0.00  0.00    +0.024 C 
ATOM     15  C   UNL     1      -3.768  -9.027   9.186  0.00  0.00    +0.019 C 
ATOM     16  C   UNL     1      -5.538 -10.948  10.556  0.00  0.00    +0.094 C 
ATOM     17  C   UNL     1      -4.749  -9.992   8.498  0.00  0.00    +0.085 C 
ENDROOT
BRANCH  12  19
ATOM      8  N   UNL     1      -3.307 -10.550  13.568  0.00  0.00    -0.270 N 
ATOM     10  N   UNL     1      -3.584 -10.649  14.879  0.00  0.00    -0.171 NA
ATOM     19  C   UNL     1      -4.409 -10.396  12.781  0.00  0.00    +0.044 A 
ATOM     20  C   UNL     1      -5.484 -10.392  13.637  0.00  0.00    +0.053 A 
ATOM     21  C   UNL     1      -4.916 -10.552  14.915  0.00  0.00    +0.093 A 
ATOM     22  C   UNL     1      -1.930 -10.617  13.132  0.00  0.00    +0.172 C 
BRANCH  21  23
ATOM     23  C   UNL     1      -5.621 -10.614  16.168  0.00  0.00    +0.006 A 
ATOM     25  C   UNL     1      -4.966 -11.060  17.316  0.00  0.00    +0.059 A 
ATOM     26  C   UNL     1      -6.960 -10.228  16.235  0.00  0.00    +0.014 A 
ATOM     28  C   UNL     1      -5.650 -11.120  18.531  0.00  0.00    +0.162 A 
ATOM     29  C   UNL     1      -7.644 -10.288  17.449  0.00  0.00    +0.050 A 
ATOM     31  C   UNL     1      -6.989 -10.734  18.597  0.00  0.00    +0.162 A 
BRANCH  28   5
ATOM      5  O   UNL     1      -5.000 -11.557  19.645  0.00  0.00    -0.491 OA
ATOM     33  C   UNL     1      -3.746 -12.207  19.451  0.00  0.00    +0.277 C 
ENDBRANCH  28   5
BRANCH  31   6
ATOM      6  O   UNL     1      -7.667 -10.789  19.777  0.00  0.00    -0.491 OA
ATOM     34  C   UNL     1      -9.036 -11.189  19.720  0.00  0.00    +0.277 C 
ENDBRANCH  31   6
ENDBRANCH  21  23
ENDBRANCH  12  19
BRANCH  13  18
ATOM     18  C   UNL     1      -7.932  -8.991  10.257  0.00  0.00    +0.124 C 
BRANCH  18   9
ATOM      9  N   UNL     1      -8.894  -8.565   9.228  0.00  0.00    -0.188 NA
ATOM     35  H   UNL     1      -9.568  -7.861   9.555  0.00  0.00    +0.148 HD
BRANCH   9   1
ATOM      1  S   UNL     1      -9.554  -9.705   8.147  0.00  0.00    +0.065 S 
ATOM      3  O   UNL     1     -10.892  -9.287   7.771  0.00  0.00    -0.153 OA
ATOM      4  O   UNL     1      -9.326 -11.039   8.667  0.00  0.00    -0.153 OA
BRANCH   1  24
ATOM      2  S   UNL     1      -8.173  -7.889   6.307  0.00  0.00    -0.077 S 
ATOM     24  C   UNL     1      -8.506  -9.513   6.737  0.00  0.00    +0.142 A 
ATOM     27  C   UNL     1      -7.886 -10.408   5.894  0.00  0.00    +0.036 A 
ATOM     30  C   UNL     1      -7.129  -9.753   4.880  0.00  0.00    +0.010 A 
ATOM     32  C   UNL     1      -7.198  -8.381   4.988  0.00  0.00    +0.047 A 
ENDBRANCH   1  24
ENDBRANCH   9   1
ENDBRANCH  18   9
ENDBRANCH  13  18
TORSDOF 8
ENDMDL
MODEL 7
REMARK VINA RESULT:      -6.5     25.142     28.927
REMARK  Name = 40779549
REMARK  11 active torsions:
REMARK  status: ('A' for Active; 'I' for Inactive)
REMARK    1  A    between atoms: S_1  and  N_9
REMARK    2  A    between atoms: S_1  and  C_24
REMARK    3  A    between atoms: O_5  and  C_28
REMARK    4  A    between atoms: O_5  and  C_33
REMARK    5  A    between atoms: O_6  and  C_31
REMARK    6  A    between atoms: O_6  and  C_34
REMARK    7  A    between atoms: N_8  and  C_22
REMARK    8  A    between atoms: N_9  and  C_18
REMARK    9  A    between atoms: C_12  and  C_19
REMARK   10  A    between atoms: C_13  and  C_18
REMARK   11  A    between atoms: C_21  and  C_23
REMARK                            x       y       z     vdW  Elec       q    Type
REMARK                         _______ _______ _______ _____ _____    ______ ____
ROOT
ATOM      7  N   UNL     1       2.312   5.040  -6.843  0.00  0.00    -0.297 NA
ATOM     11  C   UNL     1       2.603   6.542  -4.736  0.00  0.00    +0.002 C 
ATOM     12  C   UNL     1       3.855   6.641  -5.651  0.00  0.00    +0.055 C 
ATOM     13  C   UNL     1       2.002   4.260  -5.616  0.00  0.00    +0.072 C 
ATOM     14  C   UNL     1       2.367   5.067  -4.352  0.00  0.00    +0.024 C 
ATOM     15  C   UNL     1       1.395   6.989  -5.586  0.00  0.00    +0.019 C 
ATOM     16  C   UNL     1       3.695   5.573  -6.771  0.00  0.00    +0.094 C 
ATOM     17  C   UNL     1       1.376   6.188  -6.899  0.00  0.00    +0.085 C 
ENDROOT
BRANCH  12  19
ATOM      8  N   UNL     1       5.943   7.708  -4.680  0.00  0.00    -0.270 N 
ATOM     10  N   UNL     1       7.133   7.450  -4.112  0.00  0.00    -0.171 NA
ATOM     19  C   UNL     1       5.229   6.590  -4.998  0.00  0.00    +0.044 A 
ATOM     20  C   UNL     1       6.005   5.526  -4.608  0.00  0.00    +0.053 A 
ATOM     21  C   UNL     1       7.165   6.115  -4.070  0.00  0.00    +0.093 A 
ATOM     22  C   UNL     1       5.548   9.081  -4.898  0.00  0.00    +0.172 C 
BRANCH  21  23
ATOM     23  C   UNL     1       8.303   5.427  -3.518  0.00  0.00    +0.006 A 
ATOM     25  C   UNL     1       8.862   5.858  -2.315  0.00  0.00    +0.059 A 
ATOM     26  C   UNL     1       8.846   4.330  -4.186  0.00  0.00    +0.014 A 
ATOM     28  C   UNL     1       9.965   5.192  -1.780  0.00  0.00    +0.162 A 
ATOM     29  C   UNL     1       9.948   3.663  -3.652  0.00  0.00    +0.050 A 
ATOM     31  C   UNL     1      10.508   4.094  -2.449  0.00  0.00    +0.162 A 
BRANCH  28   5
ATOM      5  O   UNL     1      10.502   5.621  -0.605  0.00  0.00    -0.491 OA
ATOM     33  C   UNL     1       9.985   6.832  -0.059  0.00  0.00    +0.277 C 
ENDBRANCH  28   5
BRANCH  31   6
ATOM      6  O   UNL     1      11.584   3.435  -1.936  0.00  0.00    -0.491 OA
ATOM     34  C   UNL     1      11.824   2.113  -2.417  0.00  0.00    +0.277 C 
ENDBRANCH  31   6
ENDBRANCH  21  23
ENDBRANCH  12  19
BRANCH  13  18
ATOM     18  C   UNL     1       2.661   2.880  -5.621  0.00  0.00    +0.124 C 
BRANCH  18   9
ATOM      9  N   UNL     1       1.709   1.891  -6.153  0.00  0.00    -0.188 NA
ATOM     35  H   UNL     1       1.146   2.238  -6.940  0.00  0.00    +0.148 HD
BRANCH   9   1
ATOM      1  S   UNL     1       0.857   0.865  -5.093  0.00  0.00    +0.065 S 
ATOM      3  O   UNL     1       0.197   1.666  -4.079  0.00  0.00    -0.153 OA
ATOM      4  O   UNL     1       1.716  -0.237  -4.706  0.00  0.00    -0.153 OA
BRANCH   1  24
ATOM      2  S   UNL     1      -0.867   1.237  -7.435  0.00  0.00    -0.077 S 
ATOM     24  C   UNL     1      -0.387   0.201  -6.159  0.00  0.00    +0.142 A 
ATOM     27  C   UNL     1      -1.066  -0.998  -6.183  0.00  0.00    +0.036 A 
ATOM     30  C   UNL     1      -1.993  -1.066  -7.263  0.00  0.00    +0.010 A 
ATOM     32  C   UNL     1      -1.986   0.083  -8.024  0.00  0.00    +0.047 A 
ENDBRANCH   1  24
ENDBRANCH   9   1
ENDBRANCH  18   9
ENDBRANCH  13  18
TORSDOF 8
ENDMDL
MODEL 8
REMARK VINA RESULT:      -6.5      4.243      7.767
REMARK  Name = 40779549
REMARK  11 active torsions:
REMARK  status: ('A' for Active; 'I' for Inactive)
REMARK    1  A    between atoms: S_1  and  N_9
REMARK    2  A    between atoms: S_1  and  C_24
REMARK    3  A    between atoms: O_5  and  C_28
REMARK    4  A    between atoms: O_5  and  C_33
REMARK    5  A    between atoms: O_6  and  C_31
REMARK    6  A    between atoms: O_6  and  C_34
REMARK    7  A    between atoms: N_8  and  C_22
REMARK    8  A    between atoms: N_9  and  C_18
REMARK    9  A    between atoms: C_12  and  C_19
REMARK   10  A    between atoms: C_13  and  C_18
REMARK   11  A    between atoms: C_21  and  C_23
REMARK                            x       y       z     vdW  Elec       q    Type
REMARK                         _______ _______ _______ _____ _____    ______ ____
ROOT
ATOM      7  N   UNL     1      -5.999 -10.130   9.245  0.00  0.00    -0.297 NA
ATOM     11  C   UNL     1      -4.140  -8.927  10.615  0.00  0.00    +0.002 C 
ATOM     12  C   UNL     1      -4.462 -10.314  11.236  0.00  0.00    +0.055 C 
ATOM     13  C   UNL     1      -6.423  -8.742   9.568  0.00  0.00    +0.072 C 
ATOM     14  C   UNL     1      -5.431  -8.084  10.550  0.00  0.00    +0.024 C 
ATOM     15  C   UNL     1      -3.693  -9.184   9.160  0.00  0.00    +0.019 C 
ATOM     16  C   UNL     1      -5.707 -10.876  10.493  0.00  0.00    +0.094 C 
ATOM     17  C   UNL     1      -4.749 -10.049   8.452  0.00  0.00    +0.085 C 
ENDROOT
BRANCH  12  19
ATOM      8  N   UNL     1      -3.533 -10.549  13.586  0.00  0.00    -0.270 N 
ATOM     10  N   UNL     1      -3.867 -10.616  14.886  0.00  0.00    -0.171 NA
ATOM     19  C   UNL     1      -4.601 -10.410  12.749  0.00  0.00    +0.044 A 
ATOM     20  C   UNL     1      -5.710 -10.382  13.558  0.00  0.00    +0.053 A 
ATOM     21  C   UNL     1      -5.199 -10.513  14.863  0.00  0.00    +0.093 A 
ATOM     22  C   UNL     1      -2.140 -10.631  13.211  0.00  0.00    +0.172 C 
BRANCH  21  23
ATOM     23  C   UNL     1      -5.957 -10.543  16.086  0.00  0.00    +0.006 A 
ATOM     25  C   UNL     1      -7.034  -9.674  16.260  0.00  0.00    +0.059 A 
ATOM     26  C   UNL     1      -5.615 -11.441  17.097  0.00  0.00    +0.014 A 
ATOM     28  C   UNL     1      -7.770  -9.703  17.445  0.00  0.00    +0.162 A 
ATOM     29  C   UNL     1      -6.349 -11.470  18.283  0.00  0.00    +0.050 A 
ATOM     31  C   UNL     1      -7.427 -10.602  18.457  0.00  0.00    +0.162 A 
BRANCH  28   5
ATOM      5  O   UNL     1      -8.820  -8.851  17.603  0.00  0.00    -0.491 OA
ATOM     33  C   UNL     1      -9.413  -8.326  16.418  0.00  0.00    +0.277 C 
ENDBRANCH  28   5
BRANCH  31   6
ATOM      6  O   UNL     1      -8.137 -10.639  19.618  0.00  0.00    -0.491 OA
ATOM     34  C   UNL     1      -9.143 -11.645  19.730  0.00  0.00    +0.277 C 
ENDBRANCH  31   6
ENDBRANCH  21  23
ENDBRANCH  12  19
BRANCH  13  18
ATOM     18  C   UNL     1      -7.862  -8.678  10.082  0.00  0.00    +0.124 C 
BRANCH  18   9
ATOM      9  N   UNL     1      -8.771  -8.429   8.951  0.00  0.00    -0.188 NA
ATOM     35  H   UNL     1      -8.657  -9.092   8.173  0.00  0.00    +0.148 HD
BRANCH   9   1
ATOM      1  S   UNL     1      -9.107  -6.834   8.456  0.00  0.00    +0.065 S 
ATOM      3  O   UNL     1      -7.873  -6.071   8.433  0.00  0.00    -0.153 OA
ATOM      4  O   UNL     1     -10.256  -6.341   9.191  0.00  0.00    -0.153 OA
BRANCH   1  24
ATOM      2  S   UNL     1      -8.415  -7.676   5.735  0.00  0.00    -0.077 S 
ATOM     24  C   UNL     1      -9.628  -7.079   6.785  0.00  0.00    +0.142 A 
ATOM     27  C   UNL     1     -10.827  -6.889   6.134  0.00  0.00    +0.036 A 
ATOM     30  C   UNL     1     -10.749  -7.237   4.755  0.00  0.00    +0.010 A 
ATOM     32  C   UNL     1      -9.492  -7.681   4.404  0.00  0.00    +0.047 A 
ENDBRANCH   1  24
ENDBRANCH   9   1
ENDBRANCH  18   9
ENDBRANCH  13  18
TORSDOF 8
ENDMDL
MODEL 9
REMARK VINA RESULT:      -6.4      3.292      7.428
REMARK  Name = 40779549
REMARK  11 active torsions:
REMARK  status: ('A' for Active; 'I' for Inactive)
REMARK    1  A    between atoms: S_1  and  N_9
REMARK    2  A    between atoms: S_1  and  C_24
REMARK    3  A    between atoms: O_5  and  C_28
REMARK    4  A    between atoms: O_5  and  C_33
REMARK    5  A    between atoms: O_6  and  C_31
REMARK    6  A    between atoms: O_6  and  C_34
REMARK    7  A    between atoms: N_8  and  C_22
REMARK    8  A    between atoms: N_9  and  C_18
REMARK    9  A    between atoms: C_12  and  C_19
REMARK   10  A    between atoms: C_13  and  C_18
REMARK   11  A    between atoms: C_21  and  C_23
REMARK                            x       y       z     vdW  Elec       q    Type
REMARK                         _______ _______ _______ _____ _____    ______ ____
ROOT
ATOM      7  N   UNL     1      -6.483 -10.789  18.294  0.00  0.00    -0.297 NA
ATOM     11  C   UNL     1      -4.471 -12.256  17.529  0.00  0.00    +0.002 C 
ATOM     12  C   UNL     1      -4.364 -10.828  16.925  0.00  0.00    +0.055 C 
ATOM     13  C   UNL     1      -6.973 -12.089  17.764  0.00  0.00    +0.072 C 
ATOM     14  C   UNL     1      -5.819 -12.884  17.118  0.00  0.00    +0.024 C 
ATOM     15  C   UNL     1      -4.498 -12.089  19.063  0.00  0.00    +0.019 C 
ATOM     16  C   UNL     1      -5.689 -10.084  17.257  0.00  0.00    +0.094 C 
ATOM     17  C   UNL     1      -5.591 -11.075  19.443  0.00  0.00    +0.085 C 
ENDROOT
BRANCH  12  19
ATOM      8  N   UNL     1      -2.686 -10.666  15.028  0.00  0.00    -0.270 N 
ATOM     10  N   UNL     1      -2.558 -10.542  13.696  0.00  0.00    -0.171 NA
ATOM     19  C   UNL     1      -3.980 -10.695  15.458  0.00  0.00    +0.044 A 
ATOM     20  C   UNL     1      -4.753 -10.585  14.328  0.00  0.00    +0.053 A 
ATOM     21  C   UNL     1      -3.825 -10.494  13.273  0.00  0.00    +0.093 A 
ATOM     22  C   UNL     1      -1.497 -10.748  15.846  0.00  0.00    +0.172 C 
BRANCH  21  23
ATOM     23  C   UNL     1      -4.124 -10.360  11.872  0.00  0.00    +0.006 A 
ATOM     25  C   UNL     1      -5.063  -9.420  11.446  0.00  0.00    +0.059 A 
ATOM     26  C   UNL     1      -3.477 -11.171  10.940  0.00  0.00    +0.014 A 
ATOM     28  C   UNL     1      -5.353  -9.290  10.088  0.00  0.00    +0.162 A 
ATOM     29  C   UNL     1      -3.768 -11.042   9.582  0.00  0.00    +0.050 A 
ATOM     31  C   UNL     1      -4.705 -10.101   9.156  0.00  0.00    +0.162 A 
BRANCH  28   5
ATOM      5  O   UNL     1      -6.270  -8.368   9.684  0.00  0.00    -0.491 OA
ATOM     33  C   UNL     1      -7.646  -8.709   9.839  0.00  0.00    +0.277 C 
ENDBRANCH  28   5
BRANCH  31   6
ATOM      6  O   UNL     1      -4.981  -9.984   7.827  0.00  0.00    -0.491 OA
ATOM     34  C   UNL     1      -5.834 -10.973   7.253  0.00  0.00    +0.277 C 
ENDBRANCH  31   6
ENDBRANCH  21  23
ENDBRANCH  12  19
BRANCH  13  18
ATOM     18  C   UNL     1      -8.155 -11.919  16.808  0.00  0.00    +0.124 C 
BRANCH  18   9
ATOM      9  N   UNL     1      -9.237 -11.199  17.498  0.00  0.00    -0.188 NA
ATOM     35  H   UNL     1      -9.943 -11.816  17.921  0.00  0.00    +0.148 HD
BRANCH   9   1
ATOM      1  S   UNL     1      -9.880  -9.771  16.827  0.00  0.00    +0.065 S 
ATOM      3  O   UNL     1      -8.875  -8.726  16.874  0.00  0.00    -0.153 OA
ATOM      4  O   UNL     1     -11.200  -9.539  17.380  0.00  0.00    -0.153 OA
BRANCH   1  24
ATOM      2  S   UNL     1      -9.012  -9.503  14.039  0.00  0.00    -0.077 S 
ATOM     24  C   UNL     1     -10.103 -10.237  15.136  0.00  0.00    +0.142 A 
ATOM     27  C   UNL     1     -10.985 -11.083  14.500  0.00  0.00    +0.036 A 
ATOM     30  C   UNL     1     -10.762 -11.129  13.093  0.00  0.00    +0.010 A 
ATOM     32  C   UNL     1      -9.718 -10.316  12.708  0.00  0.00    +0.047 A 
ENDBRANCH   1  24
ENDBRANCH   9   1
ENDBRANCH  18   9
ENDBRANCH  13  18
TORSDOF 8
ENDMDL
MODEL 10
REMARK VINA RESULT:      -6.4     26.654     29.624
REMARK  Name = 40779549
REMARK  11 active torsions:
REMARK  status: ('A' for Active; 'I' for Inactive)
REMARK    1  A    between atoms: S_1  and  N_9
REMARK    2  A    between atoms: S_1  and  C_24
REMARK    3  A    between atoms: O_5  and  C_28
REMARK    4  A    between atoms: O_5  and  C_33
REMARK    5  A    between atoms: O_6  and  C_31
REMARK    6  A    between atoms: O_6  and  C_34
REMARK    7  A    between atoms: N_8  and  C_22
REMARK    8  A    between atoms: N_9  and  C_18
REMARK    9  A    between atoms: C_12  and  C_19
REMARK   10  A    between atoms: C_13  and  C_18
REMARK   11  A    between atoms: C_21  and  C_23
REMARK                            x       y       z     vdW  Elec       q    Type
REMARK                         _______ _______ _______ _____ _____    ______ ____
ROOT
ATOM      7  N   UNL     1      13.485   9.271   5.831  0.00  0.00    -0.297 NA
ATOM     11  C   UNL     1      15.381   7.595   5.217  0.00  0.00    +0.002 C 
ATOM     12  C   UNL     1      14.832   8.286   3.939  0.00  0.00    +0.055 C 
ATOM     13  C   UNL     1      13.227   7.954   6.471  0.00  0.00    +0.072 C 
ATOM     14  C   UNL     1      14.222   6.894   5.956  0.00  0.00    +0.024 C 
ATOM     15  C   UNL     1      15.896   8.716   6.143  0.00  0.00    +0.019 C 
ATOM     16  C   UNL     1      13.581   9.110   4.359  0.00  0.00    +0.094 C 
ATOM     17  C   UNL     1      14.790   9.769   6.328  0.00  0.00    +0.085 C 
ENDROOT
BRANCH  12  19
ATOM      8  N   UNL     1      15.473   7.278   1.700  0.00  0.00    -0.270 N 
ATOM     10  N   UNL     1      15.051   6.477   0.707  0.00  0.00    -0.171 NA
ATOM     19  C   UNL     1      14.570   7.425   2.711  0.00  0.00    +0.044 A 
ATOM     20  C   UNL     1      13.482   6.667   2.355  0.00  0.00    +0.053 A 
ATOM     21  C   UNL     1      13.834   6.106   1.113  0.00  0.00    +0.093 A 
ATOM     22  C   UNL     1      16.781   7.885   1.609  0.00  0.00    +0.172 C 
BRANCH  21  23
ATOM     23  C   UNL     1      13.030   5.225   0.308  0.00  0.00    +0.006 A 
ATOM     25  C   UNL     1      11.722   5.582  -0.024  0.00  0.00    +0.059 A 
ATOM     26  C   UNL     1      13.557   4.015  -0.142  0.00  0.00    +0.014 A 
ATOM     28  C   UNL     1      10.943   4.729  -0.805  0.00  0.00    +0.162 A 
ATOM     29  C   UNL     1      12.778   3.161  -0.922  0.00  0.00    +0.050 A 
ATOM     31  C   UNL     1      11.471   3.517  -1.254  0.00  0.00    +0.162 A 
BRANCH  28   5
ATOM      5  O   UNL     1       9.668   5.088  -1.123  0.00  0.00    -0.491 OA
ATOM     33  C   UNL     1       9.407   6.480  -1.282  0.00  0.00    +0.277 C 
ENDBRANCH  28   5
BRANCH  31   6
ATOM      6  O   UNL     1      10.719   2.676  -2.017  0.00  0.00    -0.491 OA
ATOM     34  C   UNL     1      11.009   2.636  -3.414  0.00  0.00    +0.277 C 
ENDBRANCH  31   6
ENDBRANCH  21  23
ENDBRANCH  12  19
BRANCH  13  18
ATOM     18  C   UNL     1      11.775   7.502   6.307  0.00  0.00    +0.124 C 
BRANCH  18   9
ATOM      9  N   UNL     1      11.749   6.181   5.658  0.00  0.00    -0.188 NA
ATOM     35  H   UNL     1      12.470   6.060   4.935  0.00  0.00    +0.148 HD
BRANCH   9   1
ATOM      1  S   UNL     1      10.262   5.439   5.283  0.00  0.00    +0.065 S 
ATOM      3  O   UNL     1       9.435   5.396   6.475  0.00  0.00    -0.153 OA
ATOM      4  O   UNL     1      10.513   4.229   4.526  0.00  0.00    -0.153 OA
BRANCH   1  24
ATOM      2  S   UNL     1       8.265   7.535   4.821  0.00  0.00    -0.077 S 
ATOM     24  C   UNL     1       9.548   6.609   4.166  0.00  0.00    +0.142 A 
ATOM     27  C   UNL     1       9.810   6.942   2.856  0.00  0.00    +0.036 A 
ATOM     30  C   UNL     1       8.945   7.970   2.382  0.00  0.00    +0.010 A 
ATOM     32  C   UNL     1       8.055   8.385   3.349  0.00  0.00    +0.047 A 
ENDBRANCH   1  24
ENDBRANCH   9   1
ENDBRANCH  18   9
ENDBRANCH  13  18
TORSDOF 8
ENDMDL
