MODEL 1
REMARK VINA RESULT:      -6.0      0.000      0.000
REMARK  Name = 45783557
REMARK  10 active torsions:
REMARK  status: ('A' for Active; 'I' for Inactive)
REMARK    1  A    between atoms: O_2  and  C_28
REMARK    2  A    between atoms: O_2  and  C_29
REMARK    3  A    between atoms: O_5  and  C_30
REMARK    4  A    between atoms: O_5  and  C_31
REMARK    5  A    between atoms: N_6  and  C_15
REMARK    6  A    between atoms: N_9  and  C_23
REMARK    7  A    between atoms: C_11  and  C_16
REMARK    8  A    between atoms: C_15  and  C_17
REMARK    9  A    between atoms: C_20  and  C_24
REMARK   10  A    between atoms: C_29  and  C_30
REMARK                            x       y       z     vdW  Elec       q    Type
REMARK                         _______ _______ _______ _____ _____    ______ ____
ROOT
ATOM      1  O   UNL     1      -7.484 -10.433  11.299  0.00  0.00    -0.336 OA
ATOM      7  N   UNL     1      -5.838  -9.284  12.294  0.00  0.00    -0.190 NA
ATOM      8  N   UNL     1      -7.498 -10.820  12.645  0.00  0.00    -0.056 NA
ATOM     16  C   UNL     1      -6.478  -9.529  11.177  0.00  0.00    +0.245 A 
ATOM     20  C   UNL     1      -6.499 -10.100  13.166  0.00  0.00    +0.204 A 
ENDROOT
BRANCH  20  24
ATOM     10  N   UNL     1      -6.783  -9.950  16.870  0.00  0.00    -0.221 NA
ATOM     24  C   UNL     1      -6.136 -10.172  14.552  0.00  0.00    +0.041 A 
ATOM     25  C   UNL     1      -4.845 -10.516  14.937  0.00  0.00    +0.018 A 
ATOM     26  C   UNL     1      -7.060  -9.901  15.548  0.00  0.00    +0.126 A 
ATOM     27  C   UNL     1      -4.522 -10.577  16.287  0.00  0.00    +0.068 A 
ATOM     28  C   UNL     1      -5.518 -10.288  17.206  0.00  0.00    +0.215 A 
BRANCH  28   2
ATOM      2  O   UNL     1      -5.223 -10.341  18.544  0.00  0.00    -0.474 OA
BRANCH   2  29
ATOM     29  C   UNL     1      -6.325 -10.446  19.438  0.00  0.00    +0.258 C 
BRANCH  29  30
ATOM     30  C   UNL     1      -6.616 -11.911  19.696  0.00  0.00    +0.200 C 
BRANCH  30   5
ATOM      5  O   UNL     1      -7.971 -12.051  20.105  0.00  0.00    -0.380 OA
ATOM     31  C   UNL     1      -8.820 -11.143  19.415  0.00  0.00    +0.194 C 
ENDBRANCH  30   5
ENDBRANCH  29  30
ENDBRANCH   2  29
ENDBRANCH  28   2
ENDBRANCH  20  24
BRANCH  16  11
ATOM      6  N   UNL     1      -5.337  -9.769   8.980  0.00  0.00    -0.287 NA
ATOM     11  C   UNL     1      -6.254  -8.950   9.796  0.00  0.00    +0.146 C 
ATOM     12  C   UNL     1      -7.549  -8.868   8.968  0.00  0.00    +0.030 C 
ATOM     13  C   UNL     1      -7.245  -9.618   7.679  0.00  0.00    +0.017 C 
ATOM     14  C   UNL     1      -5.733  -9.568   7.585  0.00  0.00    +0.085 C 
BRANCH   6  15
ATOM     15  C   UNL     1      -3.931  -9.454   9.201  0.00  0.00    +0.120 C 
BRANCH  15  17
ATOM     17  C   UNL     1      -3.342 -10.272  10.318  0.00  0.00    -0.033 A 
ATOM     18  C   UNL     1      -3.756 -11.589  10.514  0.00  0.00    +0.007 A 
ATOM     19  C   UNL     1      -2.380  -9.711  11.159  0.00  0.00    +0.007 A 
ATOM     21  C   UNL     1      -3.209 -12.346  11.550  0.00  0.00    +0.033 A 
ATOM     22  C   UNL     1      -1.834 -10.468  12.196  0.00  0.00    +0.033 A 
ATOM     23  C   UNL     1      -2.248 -11.786  12.391  0.00  0.00    +0.126 A 
BRANCH  23   9
ATOM      3  O   UNL     1      -1.571 -12.035  14.580  0.00  0.00    -0.126 OA
ATOM      4  O   UNL     1      -1.339 -13.738  13.215  0.00  0.00    -0.126 OA
ATOM      9  N   UNL     1      -1.693 -12.556  13.446  0.00  0.00    +0.056 N 
ENDBRANCH  23   9
ENDBRANCH  15  17
ENDBRANCH   6  15
ENDBRANCH  16  11
TORSDOF 9
ENDMDL
MODEL 2
REMARK VINA RESULT:      -6.0     27.787     30.060
REMARK  Name = 45783557
REMARK  10 active torsions:
REMARK  status: ('A' for Active; 'I' for Inactive)
REMARK    1  A    between atoms: O_2  and  C_28
REMARK    2  A    between atoms: O_2  and  C_29
REMARK    3  A    between atoms: O_5  and  C_30
REMARK    4  A    between atoms: O_5  and  C_31
REMARK    5  A    between atoms: N_6  and  C_15
REMARK    6  A    between atoms: N_9  and  C_23
REMARK    7  A    between atoms: C_11  and  C_16
REMARK    8  A    between atoms: C_15  and  C_17
REMARK    9  A    between atoms: C_20  and  C_24
REMARK   10  A    between atoms: C_29  and  C_30
REMARK                            x       y       z     vdW  Elec       q    Type
REMARK                         _______ _______ _______ _____ _____    ______ ____
ROOT
ATOM      1  O   UNL     1      15.468   9.725  21.610  0.00  0.00    -0.336 OA
ATOM      7  N   UNL     1      15.354   7.583  20.962  0.00  0.00    -0.190 NA
ATOM      8  N   UNL     1      16.791   9.273  21.522  0.00  0.00    -0.056 NA
ATOM     16  C   UNL     1      14.686   8.668  21.265  0.00  0.00    +0.245 A 
ATOM     20  C   UNL     1      16.641   8.002  21.135  0.00  0.00    +0.204 A 
ENDROOT
BRANCH  20  24
ATOM     10  N   UNL     1      19.955   6.375  21.573  0.00  0.00    -0.221 NA
ATOM     24  C   UNL     1      17.755   7.127  20.912  0.00  0.00    +0.041 A 
ATOM     25  C   UNL     1      17.745   6.207  19.869  0.00  0.00    +0.018 A 
ATOM     26  C   UNL     1      18.874   7.170  21.728  0.00  0.00    +0.126 A 
ATOM     27  C   UNL     1      18.839   5.371  19.677  0.00  0.00    +0.068 A 
ATOM     28  C   UNL     1      19.910   5.494  20.548  0.00  0.00    +0.215 A 
BRANCH  28   2
ATOM      2  O   UNL     1      21.001   4.681  20.379  0.00  0.00    -0.474 OA
BRANCH   2  29
ATOM     29  C   UNL     1      21.681   4.269  21.559  0.00  0.00    +0.258 C 
BRANCH  29  30
ATOM     30  C   UNL     1      22.546   3.066  21.237  0.00  0.00    +0.200 C 
BRANCH  30   5
ATOM      5  O   UNL     1      23.915   3.438  21.340  0.00  0.00    -0.380 OA
ATOM     31  C   UNL     1      24.385   4.032  20.137  0.00  0.00    +0.194 C 
ENDBRANCH  30   5
ENDBRANCH  29  30
ENDBRANCH   2  29
ENDBRANCH  28   2
ENDBRANCH  20  24
BRANCH  16  11
ATOM      6  N   UNL     1      12.635   9.112  19.930  0.00  0.00    -0.287 NA
ATOM     11  C   UNL     1      13.190   8.902  21.281  0.00  0.00    +0.146 C 
ATOM     12  C   UNL     1      12.407   7.702  21.844  0.00  0.00    +0.030 C 
ATOM     13  C   UNL     1      11.394   7.347  20.765  0.00  0.00    +0.017 C 
ATOM     14  C   UNL     1      11.254   8.630  19.971  0.00  0.00    +0.085 C 
BRANCH   6  15
ATOM     15  C   UNL     1      12.717  10.497  19.483  0.00  0.00    +0.120 C 
BRANCH  15  17
ATOM     17  C   UNL     1      13.501  10.628  18.204  0.00  0.00    -0.033 A 
ATOM     18  C   UNL     1      13.579   9.552  17.320  0.00  0.00    +0.007 A 
ATOM     19  C   UNL     1      14.149  11.827  17.905  0.00  0.00    +0.007 A 
ATOM     21  C   UNL     1      14.306   9.675  16.135  0.00  0.00    +0.033 A 
ATOM     22  C   UNL     1      14.876  11.949  16.720  0.00  0.00    +0.033 A 
ATOM     23  C   UNL     1      14.954  10.872  15.835  0.00  0.00    +0.126 A 
BRANCH  23   9
ATOM      3  O   UNL     1      15.136  10.713  13.543  0.00  0.00    -0.126 OA
ATOM      4  O   UNL     1      16.885  11.387  14.686  0.00  0.00    -0.126 OA
ATOM      9  N   UNL     1      15.694  10.996  14.631  0.00  0.00    +0.056 N 
ENDBRANCH  23   9
ENDBRANCH  15  17
ENDBRANCH   6  15
ENDBRANCH  16  11
TORSDOF 9
ENDMDL
MODEL 3
REMARK VINA RESULT:      -5.9      4.484      7.077
REMARK  Name = 45783557
REMARK  10 active torsions:
REMARK  status: ('A' for Active; 'I' for Inactive)
REMARK    1  A    between atoms: O_2  and  C_28
REMARK    2  A    between atoms: O_2  and  C_29
REMARK    3  A    between atoms: O_5  and  C_30
REMARK    4  A    between atoms: O_5  and  C_31
REMARK    5  A    between atoms: N_6  and  C_15
REMARK    6  A    between atoms: N_9  and  C_23
REMARK    7  A    between atoms: C_11  and  C_16
REMARK    8  A    between atoms: C_15  and  C_17
REMARK    9  A    between atoms: C_20  and  C_24
REMARK   10  A    between atoms: C_29  and  C_30
REMARK                            x       y       z     vdW  Elec       q    Type
REMARK                         _______ _______ _______ _____ _____    ______ ____
ROOT
ATOM      1  O   UNL     1      -8.334  -9.788   8.533  0.00  0.00    -0.336 OA
ATOM      7  N   UNL     1      -7.813  -7.652   8.098  0.00  0.00    -0.190 NA
ATOM      8  N   UNL     1      -9.449  -9.029   8.913  0.00  0.00    -0.056 NA
ATOM     16  C   UNL     1      -7.417  -8.900   8.064  0.00  0.00    +0.245 A 
ATOM     20  C   UNL     1      -9.065  -7.781   8.626  0.00  0.00    +0.204 A 
ENDROOT
BRANCH  20  24
ATOM     10  N   UNL     1     -12.064  -5.767   9.504  0.00  0.00    -0.221 NA
ATOM     24  C   UNL     1      -9.906  -6.643   8.856  0.00  0.00    +0.041 A 
ATOM     25  C   UNL     1      -9.429  -5.350   8.667  0.00  0.00    +0.018 A 
ATOM     26  C   UNL     1     -11.219  -6.796   9.271  0.00  0.00    +0.126 A 
ATOM     27  C   UNL     1     -10.268  -4.265   8.897  0.00  0.00    +0.068 A 
ATOM     28  C   UNL     1     -11.565  -4.525   9.310  0.00  0.00    +0.215 A 
BRANCH  28   2
ATOM      2  O   UNL     1     -12.411  -3.472   9.542  0.00  0.00    -0.474 OA
BRANCH   2  29
ATOM     29  C   UNL     1     -13.286  -3.588  10.659  0.00  0.00    +0.258 C 
BRANCH  29  30
ATOM     30  C   UNL     1     -12.487  -3.408  11.935  0.00  0.00    +0.200 C 
BRANCH  30   5
ATOM      5  O   UNL     1     -13.383  -3.196  13.018  0.00  0.00    -0.380 OA
ATOM     31  C   UNL     1     -14.728  -3.457  12.640  0.00  0.00    +0.194 C 
ENDBRANCH  30   5
ENDBRANCH  29  30
ENDBRANCH   2  29
ENDBRANCH  28   2
ENDBRANCH  20  24
BRANCH  16  11
ATOM      6  N   UNL     1      -5.276 -10.003   8.687  0.00  0.00    -0.287 NA
ATOM     11  C   UNL     1      -6.103  -9.478   7.583  0.00  0.00    +0.146 C 
ATOM     12  C   UNL     1      -6.292 -10.675   6.633  0.00  0.00    +0.030 C 
ATOM     13  C   UNL     1      -5.486 -11.807   7.254  0.00  0.00    +0.017 C 
ATOM     14  C   UNL     1      -4.473 -11.088   8.123  0.00  0.00    +0.085 C 
BRANCH   6  15
ATOM     15  C   UNL     1      -4.449  -8.983   9.321  0.00  0.00    +0.120 C 
BRANCH  15  17
ATOM     17  C   UNL     1      -3.785  -9.497  10.570  0.00  0.00    -0.033 A 
ATOM     18  C   UNL     1      -2.394  -9.492  10.675  0.00  0.00    +0.007 A 
ATOM     19  C   UNL     1      -4.562  -9.978  11.624  0.00  0.00    +0.007 A 
ATOM     21  C   UNL     1      -1.780  -9.969  11.833  0.00  0.00    +0.033 A 
ATOM     22  C   UNL     1      -3.948 -10.456  12.782  0.00  0.00    +0.033 A 
ATOM     23  C   UNL     1      -2.556 -10.451  12.887  0.00  0.00    +0.126 A 
BRANCH  23   9
ATOM      3  O   UNL     1      -1.398 -10.118  14.852  0.00  0.00    -0.126 OA
ATOM      4  O   UNL     1      -1.930 -12.172  14.287  0.00  0.00    -0.126 OA
ATOM      9  N   UNL     1      -1.931 -10.937  14.065  0.00  0.00    +0.056 N 
ENDBRANCH  23   9
ENDBRANCH  15  17
ENDBRANCH   6  15
ENDBRANCH  16  11
TORSDOF 9
ENDMDL
MODEL 4
REMARK VINA RESULT:      -5.8      3.349      9.370
REMARK  Name = 45783557
REMARK  10 active torsions:
REMARK  status: ('A' for Active; 'I' for Inactive)
REMARK    1  A    between atoms: O_2  and  C_28
REMARK    2  A    between atoms: O_2  and  C_29
REMARK    3  A    between atoms: O_5  and  C_30
REMARK    4  A    between atoms: O_5  and  C_31
REMARK    5  A    between atoms: N_6  and  C_15
REMARK    6  A    between atoms: N_9  and  C_23
REMARK    7  A    between atoms: C_11  and  C_16
REMARK    8  A    between atoms: C_15  and  C_17
REMARK    9  A    between atoms: C_20  and  C_24
REMARK   10  A    between atoms: C_29  and  C_30
REMARK                            x       y       z     vdW  Elec       q    Type
REMARK                         _______ _______ _______ _____ _____    ______ ____
ROOT
ATOM      1  O   UNL     1      -7.035 -10.809  20.153  0.00  0.00    -0.336 OA
ATOM      7  N   UNL     1      -7.384 -11.529  18.060  0.00  0.00    -0.190 NA
ATOM      8  N   UNL     1      -5.879 -10.485  19.432  0.00  0.00    -0.056 NA
ATOM     16  C   UNL     1      -7.869 -11.421  19.272  0.00  0.00    +0.245 A 
ATOM     20  C   UNL     1      -6.161 -10.942  18.207  0.00  0.00    +0.204 A 
ENDROOT
BRANCH  20  24
ATOM     10  N   UNL     1      -4.872 -10.358  14.769  0.00  0.00    -0.221 NA
ATOM     24  C   UNL     1      -5.243 -10.827  17.111  0.00  0.00    +0.041 A 
ATOM     25  C   UNL     1      -3.884 -11.061  17.287  0.00  0.00    +0.018 A 
ATOM     26  C   UNL     1      -5.683 -10.482  15.843  0.00  0.00    +0.126 A 
ATOM     27  C   UNL     1      -3.018 -10.944  16.206  0.00  0.00    +0.068 A 
ATOM     28  C   UNL     1      -3.558 -10.593  14.979  0.00  0.00    +0.215 A 
BRANCH  28   2
ATOM      2  O   UNL     1      -2.724 -10.471  13.897  0.00  0.00    -0.474 OA
BRANCH   2  29
ATOM     29  C   UNL     1      -3.141 -11.108  12.694  0.00  0.00    +0.258 C 
BRANCH  29  30
ATOM     30  C   UNL     1      -2.429 -10.462  11.521  0.00  0.00    +0.200 C 
BRANCH  30   5
ATOM      5  O   UNL     1      -3.328 -10.379  10.422  0.00  0.00    -0.380 OA
ATOM     31  C   UNL     1      -3.859  -9.068  10.282  0.00  0.00    +0.194 C 
ENDBRANCH  30   5
ENDBRANCH  29  30
ENDBRANCH   2  29
ENDBRANCH  28   2
ENDBRANCH  20  24
BRANCH  16  11
ATOM      6  N   UNL     1     -10.341 -11.402  18.994  0.00  0.00    -0.287 NA
ATOM     11  C   UNL     1      -9.208 -11.874  19.814  0.00  0.00    +0.146 C 
ATOM     12  C   UNL     1      -9.353 -13.407  19.835  0.00  0.00    +0.030 C 
ATOM     13  C   UNL     1     -10.627 -13.697  19.054  0.00  0.00    +0.017 C 
ATOM     14  C   UNL     1     -11.403 -12.398  19.142  0.00  0.00    +0.085 C 
BRANCH   6  15
ATOM     15  C   UNL     1     -10.793 -10.063  19.353  0.00  0.00    +0.120 C 
BRANCH  15  17
ATOM     17  C   UNL     1     -11.038  -9.209  18.138  0.00  0.00    -0.033 A 
ATOM     18  C   UNL     1      -9.999  -8.453  17.595  0.00  0.00    +0.007 A 
ATOM     19  C   UNL     1     -12.305  -9.174  17.556  0.00  0.00    +0.007 A 
ATOM     21  C   UNL     1     -10.228  -7.661  16.470  0.00  0.00    +0.033 A 
ATOM     22  C   UNL     1     -12.533  -8.382  16.430  0.00  0.00    +0.033 A 
ATOM     23  C   UNL     1     -11.494  -7.625  15.887  0.00  0.00    +0.126 A 
BRANCH  23   9
ATOM      3  O   UNL     1     -11.967  -7.377  13.644  0.00  0.00    -0.126 OA
ATOM      4  O   UNL     1     -11.685  -5.571  14.859  0.00  0.00    -0.126 OA
ATOM      9  N   UNL     1     -11.726  -6.820  14.742  0.00  0.00    +0.056 N 
ENDBRANCH  23   9
ENDBRANCH  15  17
ENDBRANCH   6  15
ENDBRANCH  16  11
TORSDOF 9
ENDMDL
MODEL 5
REMARK VINA RESULT:      -5.8      2.658      7.880
REMARK  Name = 45783557
REMARK  10 active torsions:
REMARK  status: ('A' for Active; 'I' for Inactive)
REMARK    1  A    between atoms: O_2  and  C_28
REMARK    2  A    between atoms: O_2  and  C_29
REMARK    3  A    between atoms: O_5  and  C_30
REMARK    4  A    between atoms: O_5  and  C_31
REMARK    5  A    between atoms: N_6  and  C_15
REMARK    6  A    between atoms: N_9  and  C_23
REMARK    7  A    between atoms: C_11  and  C_16
REMARK    8  A    between atoms: C_15  and  C_17
REMARK    9  A    between atoms: C_20  and  C_24
REMARK   10  A    between atoms: C_29  and  C_30
REMARK                            x       y       z     vdW  Elec       q    Type
REMARK                         _______ _______ _______ _____ _____    ______ ____
ROOT
ATOM      1  O   UNL     1      -2.384  -9.898  11.212  0.00  0.00    -0.336 OA
ATOM      7  N   UNL     1      -4.416 -10.459  11.972  0.00  0.00    -0.190 NA
ATOM      8  N   UNL     1      -3.304  -9.205  10.414  0.00  0.00    -0.056 NA
ATOM     16  C   UNL     1      -3.122 -10.612  12.102  0.00  0.00    +0.245 A 
ATOM     20  C   UNL     1      -4.479  -9.588  10.923  0.00  0.00    +0.204 A 
ENDROOT
BRANCH  20  24
ATOM     10  N   UNL     1      -8.139  -9.013  10.610  0.00  0.00    -0.221 NA
ATOM     24  C   UNL     1      -5.733  -9.119  10.408  0.00  0.00    +0.041 A 
ATOM     25  C   UNL     1      -5.789  -8.346   9.253  0.00  0.00    +0.018 A 
ATOM     26  C   UNL     1      -6.926  -9.422  11.043  0.00  0.00    +0.126 A 
ATOM     27  C   UNL     1      -7.018  -7.907   8.776  0.00  0.00    +0.068 A 
ATOM     28  C   UNL     1      -8.154  -8.264   9.485  0.00  0.00    +0.215 A 
BRANCH  28   2
ATOM      2  O   UNL     1      -9.378  -7.843   9.034  0.00  0.00    -0.474 OA
BRANCH   2  29
ATOM     29  C   UNL     1      -9.406  -6.621   8.306  0.00  0.00    +0.258 C 
BRANCH  29  30
ATOM     30  C   UNL     1     -10.508  -5.740   8.861  0.00  0.00    +0.200 C 
BRANCH  30   5
ATOM      5  O   UNL     1     -10.067  -4.388   8.861  0.00  0.00    -0.380 OA
ATOM     31  C   UNL     1     -11.056  -3.517   9.393  0.00  0.00    +0.194 C 
ENDBRANCH  30   5
ENDBRANCH  29  30
ENDBRANCH   2  29
ENDBRANCH  28   2
ENDBRANCH  20  24
BRANCH  16  11
ATOM      6  N   UNL     1      -3.111 -11.718  14.330  0.00  0.00    -0.287 NA
ATOM     11  C   UNL     1      -2.350 -11.459  13.093  0.00  0.00    +0.146 C 
ATOM     12  C   UNL     1      -2.010 -12.856  12.542  0.00  0.00    +0.030 C 
ATOM     13  C   UNL     1      -2.566 -13.833  13.568  0.00  0.00    +0.017 C 
ATOM     14  C   UNL     1      -2.648 -13.010  14.837  0.00  0.00    +0.085 C 
BRANCH   6  15
ATOM     15  C   UNL     1      -2.974 -10.660  15.323  0.00  0.00    +0.120 C 
BRANCH  15  17
ATOM     17  C   UNL     1      -4.139 -10.630  16.276  0.00  0.00    -0.033 A 
ATOM     18  C   UNL     1      -5.312  -9.963  15.925  0.00  0.00    +0.007 A 
ATOM     19  C   UNL     1      -4.044 -11.272  17.512  0.00  0.00    +0.007 A 
ATOM     21  C   UNL     1      -6.391  -9.936  16.809  0.00  0.00    +0.033 A 
ATOM     22  C   UNL     1      -5.122 -11.244  18.396  0.00  0.00    +0.033 A 
ATOM     23  C   UNL     1      -6.296 -10.576  18.045  0.00  0.00    +0.126 A 
BRANCH  23   9
ATOM      3  O   UNL     1      -8.554 -10.419  18.485  0.00  0.00    -0.126 OA
ATOM      4  O   UNL     1      -7.173 -10.654  20.175  0.00  0.00    -0.126 OA
ATOM      9  N   UNL     1      -7.393 -10.548  18.944  0.00  0.00    +0.056 N 
ENDBRANCH  23   9
ENDBRANCH  15  17
ENDBRANCH   6  15
ENDBRANCH  16  11
TORSDOF 9
ENDMDL
MODEL 6
REMARK VINA RESULT:      -5.7      3.070      6.066
REMARK  Name = 45783557
REMARK  10 active torsions:
REMARK  status: ('A' for Active; 'I' for Inactive)
REMARK    1  A    between atoms: O_2  and  C_28
REMARK    2  A    between atoms: O_2  and  C_29
REMARK    3  A    between atoms: O_5  and  C_30
REMARK    4  A    between atoms: O_5  and  C_31
REMARK    5  A    between atoms: N_6  and  C_15
REMARK    6  A    between atoms: N_9  and  C_23
REMARK    7  A    between atoms: C_11  and  C_16
REMARK    8  A    between atoms: C_15  and  C_17
REMARK    9  A    between atoms: C_20  and  C_24
REMARK   10  A    between atoms: C_29  and  C_30
REMARK                            x       y       z     vdW  Elec       q    Type
REMARK                         _______ _______ _______ _____ _____    ______ ____
ROOT
ATOM      1  O   UNL     1      -4.125 -11.098  17.992  0.00  0.00    -0.336 OA
ATOM      7  N   UNL     1      -5.502 -10.587  16.299  0.00  0.00    -0.190 NA
ATOM      8  N   UNL     1      -5.351 -10.754  18.577  0.00  0.00    -0.056 NA
ATOM     16  C   UNL     1      -4.300 -10.972  16.650  0.00  0.00    +0.245 A 
ATOM     20  C   UNL     1      -6.111 -10.466  17.515  0.00  0.00    +0.204 A 
ENDROOT
BRANCH  20  24
ATOM     10  N   UNL     1      -9.668 -10.412  18.593  0.00  0.00    -0.221 NA
ATOM     24  C   UNL     1      -7.479 -10.053  17.634  0.00  0.00    +0.041 A 
ATOM     25  C   UNL     1      -7.955  -8.944  16.944  0.00  0.00    +0.018 A 
ATOM     26  C   UNL     1      -8.368 -10.747  18.438  0.00  0.00    +0.126 A 
ATOM     27  C   UNL     1      -9.287  -8.568  17.078  0.00  0.00    +0.068 A 
ATOM     28  C   UNL     1     -10.095  -9.328  17.907  0.00  0.00    +0.215 A 
BRANCH  28   2
ATOM      2  O   UNL     1     -11.412  -8.978  18.055  0.00  0.00    -0.474 OA
BRANCH   2  29
ATOM     29  C   UNL     1     -12.316  -9.453  17.064  0.00  0.00    +0.258 C 
BRANCH  29  30
ATOM     30  C   UNL     1     -13.083  -8.279  16.489  0.00  0.00    +0.200 C 
BRANCH  30   5
ATOM      5  O   UNL     1     -12.272  -7.624  15.521  0.00  0.00    -0.380 OA
ATOM     31  C   UNL     1     -12.362  -6.210  15.638  0.00  0.00    +0.194 C 
ENDBRANCH  30   5
ENDBRANCH  29  30
ENDBRANCH   2  29
ENDBRANCH  28   2
ENDBRANCH  20  24
BRANCH  16  11
ATOM      6  N   UNL     1      -3.240 -10.764  14.409  0.00  0.00    -0.287 NA
ATOM     11  C   UNL     1      -3.103 -11.293  15.781  0.00  0.00    +0.146 C 
ATOM     12  C   UNL     1      -1.799 -10.669  16.312  0.00  0.00    +0.030 C 
ATOM     13  C   UNL     1      -1.244  -9.857  15.149  0.00  0.00    +0.017 C 
ATOM     14  C   UNL     1      -1.883 -10.495  13.932  0.00  0.00    +0.085 C 
BRANCH   6  15
ATOM     15  C   UNL     1      -3.966 -11.660  13.518  0.00  0.00    +0.120 C 
BRANCH  15  17
ATOM     17  C   UNL     1      -4.476 -10.943  12.296  0.00  0.00    -0.033 A 
ATOM     18  C   UNL     1      -3.967 -11.260  11.037  0.00  0.00    +0.007 A 
ATOM     19  C   UNL     1      -5.458  -9.961  12.424  0.00  0.00    +0.007 A 
ATOM     21  C   UNL     1      -4.439 -10.595   9.905  0.00  0.00    +0.033 A 
ATOM     22  C   UNL     1      -5.931  -9.295  11.293  0.00  0.00    +0.033 A 
ATOM     23  C   UNL     1      -5.421  -9.613  10.033  0.00  0.00    +0.126 A 
BRANCH  23   9
ATOM      3  O   UNL     1      -5.688  -9.433   7.750  0.00  0.00    -0.126 OA
ATOM      4  O   UNL     1      -6.527  -7.857   9.027  0.00  0.00    -0.126 OA
ATOM      9  N   UNL     1      -5.901  -8.935   8.882  0.00  0.00    +0.056 N 
ENDBRANCH  23   9
ENDBRANCH  15  17
ENDBRANCH   6  15
ENDBRANCH  16  11
TORSDOF 9
ENDMDL
MODEL 7
REMARK VINA RESULT:      -5.7      3.333      6.143
REMARK  Name = 45783557
REMARK  10 active torsions:
REMARK  status: ('A' for Active; 'I' for Inactive)
REMARK    1  A    between atoms: O_2  and  C_28
REMARK    2  A    between atoms: O_2  and  C_29
REMARK    3  A    between atoms: O_5  and  C_30
REMARK    4  A    between atoms: O_5  and  C_31
REMARK    5  A    between atoms: N_6  and  C_15
REMARK    6  A    between atoms: N_9  and  C_23
REMARK    7  A    between atoms: C_11  and  C_16
REMARK    8  A    between atoms: C_15  and  C_17
REMARK    9  A    between atoms: C_20  and  C_24
REMARK   10  A    between atoms: C_29  and  C_30
REMARK                            x       y       z     vdW  Elec       q    Type
REMARK                         _______ _______ _______ _____ _____    ______ ____
ROOT
ATOM      1  O   UNL     1      -5.005 -11.987  16.892  0.00  0.00    -0.336 OA
ATOM      7  N   UNL     1      -5.383 -10.204  15.589  0.00  0.00    -0.190 NA
ATOM      8  N   UNL     1      -6.311 -11.567  17.176  0.00  0.00    -0.056 NA
ATOM     16  C   UNL     1      -4.531 -11.131  15.949  0.00  0.00    +0.245 A 
ATOM     20  C   UNL     1      -6.460 -10.512  16.369  0.00  0.00    +0.204 A 
ENDROOT
BRANCH  20  24
ATOM     10  N   UNL     1      -9.498  -8.854  15.011  0.00  0.00    -0.221 NA
ATOM     24  C   UNL     1      -7.671  -9.745  16.318  0.00  0.00    +0.041 A 
ATOM     25  C   UNL     1      -8.194  -9.156  17.465  0.00  0.00    +0.018 A 
ATOM     26  C   UNL     1      -8.355  -9.565  15.127  0.00  0.00    +0.126 A 
ATOM     27  C   UNL     1      -9.369  -8.417  17.386  0.00  0.00    +0.068 A 
ATOM     28  C   UNL     1      -9.977  -8.297  16.146  0.00  0.00    +0.215 A 
BRANCH  28   2
ATOM      2  O   UNL     1     -11.136  -7.573  16.042  0.00  0.00    -0.474 OA
BRANCH   2  29
ATOM     29  C   UNL     1     -10.998  -6.174  15.820  0.00  0.00    +0.258 C 
BRANCH  29  30
ATOM     30  C   UNL     1     -11.964  -5.749  14.731  0.00  0.00    +0.200 C 
BRANCH  30   5
ATOM      5  O   UNL     1     -12.250  -6.868  13.901  0.00  0.00    -0.380 OA
ATOM     31  C   UNL     1     -13.553  -6.779  13.339  0.00  0.00    +0.194 C 
ENDBRANCH  30   5
ENDBRANCH  29  30
ENDBRANCH   2  29
ENDBRANCH  28   2
ENDBRANCH  20  24
BRANCH  16  11
ATOM      6  N   UNL     1      -2.886 -10.857  14.103  0.00  0.00    -0.287 NA
ATOM     11  C   UNL     1      -3.117 -11.375  15.465  0.00  0.00    +0.146 C 
ATOM     12  C   UNL     1      -2.061 -10.670  16.336  0.00  0.00    +0.030 C 
ATOM     13  C   UNL     1      -1.246  -9.825  15.367  0.00  0.00    +0.017 C 
ATOM     14  C   UNL     1      -1.468 -10.502  14.030  0.00  0.00    +0.085 C 
BRANCH   6  15
ATOM     15  C   UNL     1      -3.270 -11.796  13.057  0.00  0.00    +0.120 C 
BRANCH  15  17
ATOM     17  C   UNL     1      -3.922 -11.102  11.891  0.00  0.00    -0.033 A 
ATOM     18  C   UNL     1      -4.723  -9.981  12.104  0.00  0.00    +0.007 A 
ATOM     19  C   UNL     1      -3.724 -11.583  10.596  0.00  0.00    +0.007 A 
ATOM     21  C   UNL     1      -5.327  -9.339  11.023  0.00  0.00    +0.033 A 
ATOM     22  C   UNL     1      -4.329 -10.941   9.514  0.00  0.00    +0.033 A 
ATOM     23  C   UNL     1      -5.130  -9.818   9.728  0.00  0.00    +0.126 A 
BRANCH  23   9
ATOM      3  O   UNL     1      -5.475  -9.550   7.465  0.00  0.00    -0.126 OA
ATOM      4  O   UNL     1      -6.542  -8.222   8.849  0.00  0.00    -0.126 OA
ATOM      9  N   UNL     1      -5.745  -9.166   8.628  0.00  0.00    +0.056 N 
ENDBRANCH  23   9
ENDBRANCH  15  17
ENDBRANCH   6  15
ENDBRANCH  16  11
TORSDOF 9
ENDMDL
MODEL 8
REMARK VINA RESULT:      -5.6     23.112     27.648
REMARK  Name = 45783557
REMARK  10 active torsions:
REMARK  status: ('A' for Active; 'I' for Inactive)
REMARK    1  A    between atoms: O_2  and  C_28
REMARK    2  A    between atoms: O_2  and  C_29
REMARK    3  A    between atoms: O_5  and  C_30
REMARK    4  A    between atoms: O_5  and  C_31
REMARK    5  A    between atoms: N_6  and  C_15
REMARK    6  A    between atoms: N_9  and  C_23
REMARK    7  A    between atoms: C_11  and  C_16
REMARK    8  A    between atoms: C_15  and  C_17
REMARK    9  A    between atoms: C_20  and  C_24
REMARK   10  A    between atoms: C_29  and  C_30
REMARK                            x       y       z     vdW  Elec       q    Type
REMARK                         _______ _______ _______ _____ _____    ______ ____
ROOT
ATOM      1  O   UNL     1     -14.596   8.119  33.786  0.00  0.00    -0.336 OA
ATOM      7  N   UNL     1     -12.854   7.719  32.435  0.00  0.00    -0.190 NA
ATOM      8  N   UNL     1     -13.662   9.131  34.044  0.00  0.00    -0.056 NA
ATOM     16  C   UNL     1     -14.042   7.331  32.828  0.00  0.00    +0.245 A 
ATOM     20  C   UNL     1     -12.664   8.827  33.209  0.00  0.00    +0.204 A 
ENDROOT
BRANCH  20  24
ATOM     10  N   UNL     1     -10.140  11.239  31.929  0.00  0.00    -0.221 NA
ATOM     24  C   UNL     1     -11.463   9.607  33.125  0.00  0.00    +0.041 A 
ATOM     25  C   UNL     1     -10.478   9.513  34.102  0.00  0.00    +0.018 A 
ATOM     26  C   UNL     1     -11.248  10.477  32.068  0.00  0.00    +0.126 A 
ATOM     27  C   UNL     1      -9.324  10.281  33.994  0.00  0.00    +0.068 A 
ATOM     28  C   UNL     1      -9.204  11.121  32.898  0.00  0.00    +0.215 A 
BRANCH  28   2
ATOM      2  O   UNL     1      -8.076  11.887  32.769  0.00  0.00    -0.474 OA
BRANCH   2  29
ATOM     29  C   UNL     1      -8.079  12.861  31.731  0.00  0.00    +0.258 C 
BRANCH  29  30
ATOM     30  C   UNL     1      -6.671  13.392  31.545  0.00  0.00    +0.200 C 
BRANCH  30   5
ATOM      5  O   UNL     1      -5.749  12.316  31.670  0.00  0.00    -0.380 OA
ATOM     31  C   UNL     1      -4.607  12.694  32.427  0.00  0.00    +0.194 C 
ENDBRANCH  30   5
ENDBRANCH  29  30
ENDBRANCH   2  29
ENDBRANCH  28   2
ENDBRANCH  20  24
BRANCH  16  11
ATOM      6  N   UNL     1     -15.218   5.236  33.474  0.00  0.00    -0.287 NA
ATOM     11  C   UNL     1     -14.866   6.148  32.368  0.00  0.00    +0.146 C 
ATOM     12  C   UNL     1     -16.218   6.565  31.760  0.00  0.00    +0.030 C 
ATOM     13  C   UNL     1     -17.265   5.791  32.549  0.00  0.00    +0.017 C 
ATOM     14  C   UNL     1     -16.491   4.615  33.110  0.00  0.00    +0.085 C 
BRANCH   6  15
ATOM     15  C   UNL     1     -14.185   4.246  33.754  0.00  0.00    +0.120 C 
BRANCH  15  17
ATOM     17  C   UNL     1     -14.180   3.138  32.735  0.00  0.00    -0.033 A 
ATOM     18  C   UNL     1     -14.819   1.930  33.012  0.00  0.00    +0.007 A 
ATOM     19  C   UNL     1     -13.534   3.322  31.512  0.00  0.00    +0.007 A 
ATOM     21  C   UNL     1     -14.813   0.904  32.067  0.00  0.00    +0.033 A 
ATOM     22  C   UNL     1     -13.527   2.295  30.566  0.00  0.00    +0.033 A 
ATOM     23  C   UNL     1     -14.167   1.086  30.844  0.00  0.00    +0.126 A 
BRANCH  23   9
ATOM      3  O   UNL     1     -13.156  -0.705  29.805  0.00  0.00    -0.126 OA
ATOM      4  O   UNL     1     -15.159  -0.105  29.138  0.00  0.00    -0.126 OA
ATOM      9  N   UNL     1     -14.160   0.043  29.883  0.00  0.00    +0.056 N 
ENDBRANCH  23   9
ENDBRANCH  15  17
ENDBRANCH   6  15
ENDBRANCH  16  11
TORSDOF 9
ENDMDL
MODEL 9
REMARK VINA RESULT:      -5.6      3.588      6.874
REMARK  Name = 45783557
REMARK  10 active torsions:
REMARK  status: ('A' for Active; 'I' for Inactive)
REMARK    1  A    between atoms: O_2  and  C_28
REMARK    2  A    between atoms: O_2  and  C_29
REMARK    3  A    between atoms: O_5  and  C_30
REMARK    4  A    between atoms: O_5  and  C_31
REMARK    5  A    between atoms: N_6  and  C_15
REMARK    6  A    between atoms: N_9  and  C_23
REMARK    7  A    between atoms: C_11  and  C_16
REMARK    8  A    between atoms: C_15  and  C_17
REMARK    9  A    between atoms: C_20  and  C_24
REMARK   10  A    between atoms: C_29  and  C_30
REMARK                            x       y       z     vdW  Elec       q    Type
REMARK                         _______ _______ _______ _____ _____    ______ ____
ROOT
ATOM      1  O   UNL     1      -6.098 -11.615  13.936  0.00  0.00    -0.336 OA
ATOM      7  N   UNL     1      -6.204  -9.717  15.123  0.00  0.00    -0.190 NA
ATOM      8  N   UNL     1      -7.459 -11.373  14.164  0.00  0.00    -0.056 NA
ATOM     16  C   UNL     1      -5.430 -10.594  14.534  0.00  0.00    +0.245 A 
ATOM     20  C   UNL     1      -7.440 -10.237  14.869  0.00  0.00    +0.204 A 
ENDROOT
BRANCH  20  24
ATOM     10  N   UNL     1     -10.696  -8.443  14.821  0.00  0.00    -0.221 NA
ATOM     24  C   UNL     1      -8.636  -9.598  15.336  0.00  0.00    +0.041 A 
ATOM     25  C   UNL     1      -8.913  -9.501  16.695  0.00  0.00    +0.018 A 
ATOM     26  C   UNL     1      -9.552  -9.058  14.448  0.00  0.00    +0.126 A 
ATOM     27  C   UNL     1     -10.080  -8.876  17.119  0.00  0.00    +0.068 A 
ATOM     28  C   UNL     1     -10.931  -8.368  16.150  0.00  0.00    +0.215 A 
BRANCH  28   2
ATOM      2  O   UNL     1     -12.087  -7.745  16.543  0.00  0.00    -0.474 OA
BRANCH   2  29
ATOM     29  C   UNL     1     -12.327  -6.446  16.014  0.00  0.00    +0.258 C 
BRANCH  29  30
ATOM     30  C   UNL     1     -13.683  -6.429  15.337  0.00  0.00    +0.200 C 
BRANCH  30   5
ATOM      5  O   UNL     1     -13.632  -5.557  14.215  0.00  0.00    -0.380 OA
ATOM     31  C   UNL     1     -12.295  -5.190  13.902  0.00  0.00    +0.194 C 
ENDBRANCH  30   5
ENDBRANCH  29  30
ENDBRANCH   2  29
ENDBRANCH  28   2
ENDBRANCH  20  24
BRANCH  16  11
ATOM      6  N   UNL     1      -3.320 -11.736  15.192  0.00  0.00    -0.287 NA
ATOM     11  C   UNL     1      -3.919 -10.624  14.429  0.00  0.00    +0.146 C 
ATOM     12  C   UNL     1      -3.427 -10.830  12.985  0.00  0.00    +0.030 C 
ATOM     13  C   UNL     1      -2.510 -12.043  13.047  0.00  0.00    +0.017 C 
ATOM     14  C   UNL     1      -2.081 -12.092  14.499  0.00  0.00    +0.085 C 
BRANCH   6  15
ATOM     15  C   UNL     1      -3.089 -11.413  16.595  0.00  0.00    +0.120 C 
BRANCH  15  17
ATOM     17  C   UNL     1      -4.337 -11.577  17.421  0.00  0.00    -0.033 A 
ATOM     18  C   UNL     1      -5.044 -12.779  17.388  0.00  0.00    +0.007 A 
ATOM     19  C   UNL     1      -4.785 -10.525  18.220  0.00  0.00    +0.007 A 
ATOM     21  C   UNL     1      -6.200 -12.930  18.154  0.00  0.00    +0.033 A 
ATOM     22  C   UNL     1      -5.943 -10.676  18.986  0.00  0.00    +0.033 A 
ATOM     23  C   UNL     1      -6.649 -11.879  18.953  0.00  0.00    +0.126 A 
BRANCH  23   9
ATOM      3  O   UNL     1      -8.107 -13.164  20.191  0.00  0.00    -0.126 OA
ATOM      4  O   UNL     1      -8.553 -11.030  19.938  0.00  0.00    -0.126 OA
ATOM      9  N   UNL     1      -7.826 -12.032  19.731  0.00  0.00    +0.056 N 
ENDBRANCH  23   9
ENDBRANCH  15  17
ENDBRANCH   6  15
ENDBRANCH  16  11
TORSDOF 9
ENDMDL
MODEL 10
REMARK VINA RESULT:      -5.6     25.317     28.277
REMARK  Name = 45783557
REMARK  10 active torsions:
REMARK  status: ('A' for Active; 'I' for Inactive)
REMARK    1  A    between atoms: O_2  and  C_28
REMARK    2  A    between atoms: O_2  and  C_29
REMARK    3  A    between atoms: O_5  and  C_30
REMARK    4  A    between atoms: O_5  and  C_31
REMARK    5  A    between atoms: N_6  and  C_15
REMARK    6  A    between atoms: N_9  and  C_23
REMARK    7  A    between atoms: C_11  and  C_16
REMARK    8  A    between atoms: C_15  and  C_17
REMARK    9  A    between atoms: C_20  and  C_24
REMARK   10  A    between atoms: C_29  and  C_30
REMARK                            x       y       z     vdW  Elec       q    Type
REMARK                         _______ _______ _______ _____ _____    ______ ____
ROOT
ATOM      1  O   UNL     1      11.661   9.031   6.780  0.00  0.00    -0.336 OA
ATOM      7  N   UNL     1      12.891   7.432   5.805  0.00  0.00    -0.190 NA
ATOM      8  N   UNL     1      12.939   9.577   6.601  0.00  0.00    -0.056 NA
ATOM     16  C   UNL     1      11.719   7.767   6.285  0.00  0.00    +0.245 A 
ATOM     20  C   UNL     1      13.606   8.574   6.021  0.00  0.00    +0.204 A 
ENDROOT
BRANCH  20  24
ATOM     10  N   UNL     1      16.814   7.920   4.259  0.00  0.00    -0.221 NA
ATOM     24  C   UNL     1      14.986   8.681   5.645  0.00  0.00    +0.041 A 
ATOM     25  C   UNL     1      15.827   9.600   6.263  0.00  0.00    +0.018 A 
ATOM     26  C   UNL     1      15.524   7.871   4.658  0.00  0.00    +0.126 A 
ATOM     27  C   UNL     1      17.161   9.681   5.879  0.00  0.00    +0.068 A 
ATOM     28  C   UNL     1      17.601   8.826   4.881  0.00  0.00    +0.215 A 
BRANCH  28   2
ATOM      2  O   UNL     1      18.912   8.886   4.486  0.00  0.00    -0.474 OA
BRANCH   2  29
ATOM     29  C   UNL     1      19.585   7.644   4.310  0.00  0.00    +0.258 C 
BRANCH  29  30
ATOM     30  C   UNL     1      20.313   7.659   2.980  0.00  0.00    +0.200 C 
BRANCH  30   5
ATOM      5  O   UNL     1      21.518   6.915   3.102  0.00  0.00    -0.380 OA
ATOM     31  C   UNL     1      21.717   6.459   4.434  0.00  0.00    +0.194 C 
ENDBRANCH  30   5
ENDBRANCH  29  30
ENDBRANCH   2  29
ENDBRANCH  28   2
ENDBRANCH  20  24
BRANCH  16  11
ATOM      6  N   UNL     1      10.528   5.696   5.593  0.00  0.00    -0.287 NA
ATOM     11  C   UNL     1      10.445   6.953   6.362  0.00  0.00    +0.146 C 
ATOM     12  C   UNL     1      10.107   6.512   7.798  0.00  0.00    +0.030 C 
ATOM     13  C   UNL     1       9.959   4.999   7.724  0.00  0.00    +0.017 C 
ATOM     14  C   UNL     1       9.645   4.741   6.264  0.00  0.00    +0.085 C 
BRANCH   6  15
ATOM     15  C   UNL     1      10.188   5.859   4.185  0.00  0.00    +0.120 C 
BRANCH  15  17
ATOM     17  C   UNL     1      11.246   5.283   3.282  0.00  0.00    -0.033 A 
ATOM     18  C   UNL     1      12.306   6.080   2.850  0.00  0.00    +0.007 A 
ATOM     19  C   UNL     1      11.164   3.950   2.877  0.00  0.00    +0.007 A 
ATOM     21  C   UNL     1      13.285   5.545   2.014  0.00  0.00    +0.033 A 
ATOM     22  C   UNL     1      12.144   3.415   2.039  0.00  0.00    +0.033 A 
ATOM     23  C   UNL     1      13.204   4.213   1.608  0.00  0.00    +0.126 A 
BRANCH  23   9
ATOM      3  O   UNL     1      13.978   3.608  -0.477  0.00  0.00    -0.126 OA
ATOM      4  O   UNL     1      15.277   3.265   1.259  0.00  0.00    -0.126 OA
ATOM      9  N   UNL     1      14.200   3.669   0.756  0.00  0.00    +0.056 N 
ENDBRANCH  23   9
ENDBRANCH  15  17
ENDBRANCH   6  15
ENDBRANCH  16  11
TORSDOF 9
ENDMDL
