MODEL 1
REMARK VINA RESULT:      -6.4      0.000      0.000
REMARK  Name = 38029756
REMARK  13 active torsions:
REMARK  status: ('A' for Active; 'I' for Inactive)
REMARK    1  A    between atoms: S_1  and  N_7
REMARK    2  A    between atoms: S_1  and  C_21
REMARK    3  A    between atoms: O_3  and  C_20
REMARK    4  A    between atoms: O_3  and  C_22
REMARK    5  A    between atoms: N_7  and  C_15
REMARK    6  A    between atoms: C_8  and  C_12
REMARK    7  A    between atoms: C_9  and  C_15
REMARK    8  A    between atoms: C_11  and  C_16
REMARK    9  A    between atoms: C_12  and  C_17
REMARK   10  A    between atoms: C_12  and  C_18
REMARK   11  A    between atoms: C_13  and  C_19
REMARK   12  A    between atoms: C_16  and  C_20
REMARK   13  A    between atoms: C_22  and  C_25
REMARK                            x       y       z     vdW  Elec       q    Type
REMARK                         _______ _______ _______ _____ _____    ______ ____
ROOT
ATOM      8  C   UNL     1      17.013   7.563  20.628  0.00  0.00    +0.000 C 
ATOM      9  C   UNL     1      15.703   7.285  21.408  0.00  0.00    +0.030 C 
ATOM     10  C   UNL     1      17.884   8.576  21.388  0.00  0.00    +0.012 C 
ATOM     11  C   UNL     1      17.157   9.914  21.615  0.00  0.00    +0.025 C 
ATOM     13  C   UNL     1      15.750   9.709  22.135  0.00  0.00    -0.073 C 
ATOM     14  C   UNL     1      15.120   8.524  22.046  0.00  0.00    -0.023 C 
ATOM     19  C   UNL     1      15.096  10.888  22.803  0.00  0.00    +0.039 C 
ENDROOT
BRANCH   8  12
ATOM     12  C   UNL     1      17.809   6.280  20.376  0.00  0.00    -0.013 C 
ATOM     17  C   UNL     1      17.606   5.799  18.943  0.00  0.00    +0.007 C 
ATOM     18  C   UNL     1      19.290   6.507  20.666  0.00  0.00    +0.007 C 
ENDBRANCH   8  12
BRANCH   9  15
ATOM     15  C   UNL     1      14.650   6.632  20.505  0.00  0.00    +0.113 C 
BRANCH  15   7
ATOM      7  N   UNL     1      13.430   6.385  21.290  0.00  0.00    -0.189 NA
ATOM     29  H   UNL     1      13.473   5.607  21.960  0.00  0.00    +0.148 HD
BRANCH   7   1
ATOM      1  S   UNL     1      11.903   6.777  20.646  0.00  0.00    +0.059 S 
ATOM      5  O   UNL     1      10.890   5.953  21.280  0.00  0.00    -0.153 OA
ATOM      6  O   UNL     1      11.997   6.832  19.200  0.00  0.00    -0.153 OA
BRANCH   1  21
ATOM      2  F   UNL     1      12.415  11.839  20.151  0.00  0.00    -0.205 F 
ATOM     21  C   UNL     1      11.687   8.436  21.214  0.00  0.00    +0.108 A 
ATOM     23  C   UNL     1      12.145   9.504  20.443  0.00  0.00    +0.066 A 
ATOM     24  C   UNL     1      11.058   8.678  22.435  0.00  0.00    +0.029 A 
ATOM     26  C   UNL     1      11.975  10.814  20.892  0.00  0.00    +0.125 A 
ATOM     27  C   UNL     1      10.886   9.988  22.885  0.00  0.00    +0.005 A 
ATOM     28  C   UNL     1      11.345  11.055  22.113  0.00  0.00    +0.038 A 
ENDBRANCH   1  21
ENDBRANCH   7   1
ENDBRANCH  15   7
ENDBRANCH   9  15
BRANCH  11  16
ATOM     16  C   UNL     1      17.152  10.765  20.340  0.00  0.00    +0.128 C 
BRANCH  16  20
ATOM      4  O   UNL     1      17.770  12.969  21.162  0.00  0.00    -0.251 OA
ATOM     20  C   UNL     1      18.025  11.983  20.484  0.00  0.00    +0.308 C 
BRANCH  20   3
ATOM      3  O   UNL     1      19.150  11.800  19.728  0.00  0.00    -0.465 OA
BRANCH   3  22
ATOM     22  C   UNL     1      20.391  11.935  20.428  0.00  0.00    +0.229 C 
ATOM     25  C   UNL     1      20.951  10.556  20.708  0.00  0.00    +0.048 C 
ENDBRANCH   3  22
ENDBRANCH  20   3
ENDBRANCH  16  20
ENDBRANCH  11  16
TORSDOF 9
ENDMDL
MODEL 2
REMARK VINA RESULT:      -5.9      1.841      2.333
REMARK  Name = 38029756
REMARK  13 active torsions:
REMARK  status: ('A' for Active; 'I' for Inactive)
REMARK    1  A    between atoms: S_1  and  N_7
REMARK    2  A    between atoms: S_1  and  C_21
REMARK    3  A    between atoms: O_3  and  C_20
REMARK    4  A    between atoms: O_3  and  C_22
REMARK    5  A    between atoms: N_7  and  C_15
REMARK    6  A    between atoms: C_8  and  C_12
REMARK    7  A    between atoms: C_9  and  C_15
REMARK    8  A    between atoms: C_11  and  C_16
REMARK    9  A    between atoms: C_12  and  C_17
REMARK   10  A    between atoms: C_12  and  C_18
REMARK   11  A    between atoms: C_13  and  C_19
REMARK   12  A    between atoms: C_16  and  C_20
REMARK   13  A    between atoms: C_22  and  C_25
REMARK                            x       y       z     vdW  Elec       q    Type
REMARK                         _______ _______ _______ _____ _____    ______ ____
ROOT
ATOM      8  C   UNL     1      16.805   7.774  20.861  0.00  0.00    +0.000 C 
ATOM      9  C   UNL     1      15.592   7.491  21.782  0.00  0.00    +0.030 C 
ATOM     10  C   UNL     1      17.603   8.980  21.381  0.00  0.00    +0.012 C 
ATOM     11  C   UNL     1      16.745  10.255  21.464  0.00  0.00    +0.025 C 
ATOM     13  C   UNL     1      15.409   9.992  22.127  0.00  0.00    -0.073 C 
ATOM     14  C   UNL     1      14.915   8.749  22.273  0.00  0.00    -0.023 C 
ATOM     19  C   UNL     1      14.670  11.188  22.662  0.00  0.00    +0.039 C 
ENDROOT
BRANCH   8  12
ATOM     12  C   UNL     1      17.725   6.556  20.739  0.00  0.00    -0.013 C 
ATOM     17  C   UNL     1      17.672   5.986  19.326  0.00  0.00    +0.007 C 
ATOM     18  C   UNL     1      19.155   6.930  21.118  0.00  0.00    +0.007 C 
ENDBRANCH   8  12
BRANCH   9  15
ATOM     15  C   UNL     1      14.563   6.597  21.082  0.00  0.00    +0.113 C 
BRANCH  15   7
ATOM      7  N   UNL     1      13.218   6.940  21.569  0.00  0.00    -0.189 NA
ATOM     29  H   UNL     1      12.976   6.600  22.508  0.00  0.00    +0.148 HD
BRANCH   7   1
ATOM      1  S   UNL     1      11.938   7.162  20.467  0.00  0.00    +0.059 S 
ATOM      5  O   UNL     1      10.863   7.885  21.123  0.00  0.00    -0.153 OA
ATOM      6  O   UNL     1      11.668   5.906  19.793  0.00  0.00    -0.153 OA
BRANCH   1  21
ATOM      2  F   UNL     1      14.294   8.075  16.024  0.00  0.00    -0.205 F 
ATOM     21  C   UNL     1      12.671   8.241  19.276  0.00  0.00    +0.108 A 
ATOM     23  C   UNL     1      13.204   7.721  18.096  0.00  0.00    +0.066 A 
ATOM     24  C   UNL     1      12.717   9.615  19.515  0.00  0.00    +0.029 A 
ATOM     26  C   UNL     1      13.783   8.574  17.156  0.00  0.00    +0.125 A 
ATOM     27  C   UNL     1      13.295  10.469  18.575  0.00  0.00    +0.005 A 
ATOM     28  C   UNL     1      13.828   9.947  17.396  0.00  0.00    +0.038 A 
ENDBRANCH   1  21
ENDBRANCH   7   1
ENDBRANCH  15   7
ENDBRANCH   9  15
BRANCH  11  16
ATOM     16  C   UNL     1      16.556  10.886  20.080  0.00  0.00    +0.128 C 
BRANCH  16  20
ATOM      4  O   UNL     1      16.811  13.283  20.402  0.00  0.00    -0.251 OA
ATOM     20  C   UNL     1      17.246  12.220  19.981  0.00  0.00    +0.308 C 
BRANCH  20   3
ATOM      3  O   UNL     1      18.440  12.042  19.339  0.00  0.00    -0.465 OA
BRANCH   3  22
ATOM     22  C   UNL     1      19.587  12.564  20.016  0.00  0.00    +0.229 C 
ATOM     25  C   UNL     1      20.298  11.431  20.727  0.00  0.00    +0.048 C 
ENDBRANCH   3  22
ENDBRANCH  20   3
ENDBRANCH  16  20
ENDBRANCH  11  16
TORSDOF 9
ENDMDL
MODEL 3
REMARK VINA RESULT:      -5.8     27.464     29.650
REMARK  Name = 38029756
REMARK  13 active torsions:
REMARK  status: ('A' for Active; 'I' for Inactive)
REMARK    1  A    between atoms: S_1  and  N_7
REMARK    2  A    between atoms: S_1  and  C_21
REMARK    3  A    between atoms: O_3  and  C_20
REMARK    4  A    between atoms: O_3  and  C_22
REMARK    5  A    between atoms: N_7  and  C_15
REMARK    6  A    between atoms: C_8  and  C_12
REMARK    7  A    between atoms: C_9  and  C_15
REMARK    8  A    between atoms: C_11  and  C_16
REMARK    9  A    between atoms: C_12  and  C_17
REMARK   10  A    between atoms: C_12  and  C_18
REMARK   11  A    between atoms: C_13  and  C_19
REMARK   12  A    between atoms: C_16  and  C_20
REMARK   13  A    between atoms: C_22  and  C_25
REMARK                            x       y       z     vdW  Elec       q    Type
REMARK                         _______ _______ _______ _____ _____    ______ ____
ROOT
ATOM      8  C   UNL     1      -6.338 -10.712  15.508  0.00  0.00    +0.000 C 
ATOM      9  C   UNL     1      -5.384 -10.507  14.305  0.00  0.00    +0.030 C 
ATOM     10  C   UNL     1      -5.756 -10.058  16.771  0.00  0.00    +0.012 C 
ATOM     11  C   UNL     1      -4.375 -10.631  17.140  0.00  0.00    +0.025 C 
ATOM     13  C   UNL     1      -3.458 -10.709  15.936  0.00  0.00    -0.073 C 
ATOM     14  C   UNL     1      -3.925 -10.639  14.677  0.00  0.00    -0.023 C 
ATOM     19  C   UNL     1      -1.985 -10.826  16.213  0.00  0.00    +0.039 C 
ENDROOT
BRANCH   8  12
ATOM     12  C   UNL     1      -7.735 -10.151  15.230  0.00  0.00    -0.013 C 
ATOM     17  C   UNL     1      -8.745 -11.283  15.081  0.00  0.00    +0.007 C 
ATOM     18  C   UNL     1      -8.154  -9.194  16.341  0.00  0.00    +0.007 C 
ENDBRANCH   8  12
BRANCH   9  15
ATOM     15  C   UNL     1      -5.711 -11.481  13.168  0.00  0.00    +0.113 C 
BRANCH  15   7
ATOM      7  N   UNL     1      -4.738 -12.585  13.185  0.00  0.00    -0.189 NA
ATOM     29  H   UNL     1      -4.259 -12.753  14.078  0.00  0.00    +0.148 HD
BRANCH   7   1
ATOM      1  S   UNL     1      -3.908 -13.018  11.761  0.00  0.00    +0.059 S 
ATOM      5  O   UNL     1      -4.853 -13.559  10.802  0.00  0.00    -0.153 OA
ATOM      6  O   UNL     1      -2.717 -13.767  12.115  0.00  0.00    -0.153 OA
BRANCH   1  21
ATOM      2  F   UNL     1      -0.679  -9.055  11.705  0.00  0.00    -0.205 F 
ATOM     21  C   UNL     1      -3.370 -11.444  11.165  0.00  0.00    +0.108 A 
ATOM     23  C   UNL     1      -2.213 -10.859  11.680  0.00  0.00    +0.066 A 
ATOM     24  C   UNL     1      -4.103 -10.785  10.177  0.00  0.00    +0.029 A 
ATOM     26  C   UNL     1      -1.789  -9.616  11.209  0.00  0.00    +0.125 A 
ATOM     27  C   UNL     1      -3.679  -9.543   9.705  0.00  0.00    +0.005 A 
ATOM     28  C   UNL     1      -2.522  -8.959  10.221  0.00  0.00    +0.038 A 
ENDBRANCH   1  21
ENDBRANCH   7   1
ENDBRANCH  15   7
ENDBRANCH   9  15
BRANCH  11  16
ATOM     16  C   UNL     1      -4.505 -11.998  17.820  0.00  0.00    +0.128 C 
BRANCH  16  20
ATOM      4  O   UNL     1      -3.312 -12.153  19.934  0.00  0.00    -0.251 OA
ATOM     20  C   UNL     1      -4.333 -11.892  19.312  0.00  0.00    +0.308 C 
BRANCH  20   3
ATOM      3  O   UNL     1      -5.511 -11.457  19.853  0.00  0.00    -0.465 OA
BRANCH   3  22
ATOM     22  C   UNL     1      -6.664 -12.241  19.531  0.00  0.00    +0.229 C 
ATOM     25  C   UNL     1      -7.865 -11.326  19.415  0.00  0.00    +0.048 C 
ENDBRANCH   3  22
ENDBRANCH  20   3
ENDBRANCH  16  20
ENDBRANCH  11  16
TORSDOF 9
ENDMDL
MODEL 4
REMARK VINA RESULT:      -5.7     26.294     28.121
REMARK  Name = 38029756
REMARK  13 active torsions:
REMARK  status: ('A' for Active; 'I' for Inactive)
REMARK    1  A    between atoms: S_1  and  N_7
REMARK    2  A    between atoms: S_1  and  C_21
REMARK    3  A    between atoms: O_3  and  C_20
REMARK    4  A    between atoms: O_3  and  C_22
REMARK    5  A    between atoms: N_7  and  C_15
REMARK    6  A    between atoms: C_8  and  C_12
REMARK    7  A    between atoms: C_9  and  C_15
REMARK    8  A    between atoms: C_11  and  C_16
REMARK    9  A    between atoms: C_12  and  C_17
REMARK   10  A    between atoms: C_12  and  C_18
REMARK   11  A    between atoms: C_13  and  C_19
REMARK   12  A    between atoms: C_16  and  C_20
REMARK   13  A    between atoms: C_22  and  C_25
REMARK                            x       y       z     vdW  Elec       q    Type
REMARK                         _______ _______ _______ _____ _____    ______ ____
ROOT
ATOM      8  C   UNL     1     -13.191   7.634  20.825  0.00  0.00    +0.000 C 
ATOM      9  C   UNL     1     -12.803   8.916  21.604  0.00  0.00    +0.030 C 
ATOM     10  C   UNL     1     -11.987   7.103  20.032  0.00  0.00    +0.012 C 
ATOM     11  C   UNL     1     -11.446   8.139  19.030  0.00  0.00    +0.025 C 
ATOM     13  C   UNL     1     -11.289   9.506  19.663  0.00  0.00    -0.073 C 
ATOM     14  C   UNL     1     -11.892   9.831  20.821  0.00  0.00    -0.023 C 
ATOM     19  C   UNL     1     -10.384  10.479  18.959  0.00  0.00    +0.039 C 
ENDROOT
BRANCH   8  12
ATOM     12  C   UNL     1     -13.724   6.541  21.755  0.00  0.00    -0.013 C 
ATOM     17  C   UNL     1     -15.030   5.970  21.214  0.00  0.00    +0.007 C 
ATOM     18  C   UNL     1     -12.683   5.439  21.931  0.00  0.00    +0.007 C 
ENDBRANCH   8  12
BRANCH   9  15
ATOM     15  C   UNL     1     -14.048   9.692  22.048  0.00  0.00    +0.113 C 
BRANCH  15   7
ATOM      7  N   UNL     1     -14.041   9.815  23.514  0.00  0.00    -0.189 NA
ATOM     29  H   UNL     1     -14.648   9.163  24.026  0.00  0.00    +0.148 HD
BRANCH   7   1
ATOM      1  S   UNL     1     -13.719  11.319  24.246  0.00  0.00    +0.059 S 
ATOM      5  O   UNL     1     -14.957  11.875  24.762  0.00  0.00    -0.153 OA
ATOM      6  O   UNL     1     -12.878  12.106  23.365  0.00  0.00    -0.153 OA
BRANCH   1  21
ATOM      2  F   UNL     1      -9.216  10.327  26.453  0.00  0.00    -0.205 F 
ATOM     21  C   UNL     1     -12.721  10.843  25.624  0.00  0.00    +0.108 A 
ATOM     23  C   UNL     1     -11.335  10.771  25.492  0.00  0.00    +0.066 A 
ATOM     24  C   UNL     1     -13.321  10.539  26.847  0.00  0.00    +0.029 A 
ATOM     26  C   UNL     1     -10.547  10.395  26.581  0.00  0.00    +0.125 A 
ATOM     27  C   UNL     1     -12.535  10.163  27.936  0.00  0.00    +0.005 A 
ATOM     28  C   UNL     1     -11.148  10.092  27.802  0.00  0.00    +0.038 A 
ENDBRANCH   1  21
ENDBRANCH   7   1
ENDBRANCH  15   7
ENDBRANCH   9  15
BRANCH  11  16
ATOM     16  C   UNL     1     -12.328   8.212  17.779  0.00  0.00    +0.128 C 
BRANCH  16  20
ATOM      4  O   UNL     1     -10.356   7.974  16.376  0.00  0.00    -0.251 OA
ATOM     20  C   UNL     1     -11.504   8.368  16.528  0.00  0.00    +0.308 C 
BRANCH  20   3
ATOM      3  O   UNL     1     -12.256   9.024  15.595  0.00  0.00    -0.465 OA
BRANCH   3  22
ATOM     22  C   UNL     1     -12.504  10.407  15.864  0.00  0.00    +0.229 C 
ATOM     25  C   UNL     1     -11.333  11.225  15.361  0.00  0.00    +0.048 C 
ENDBRANCH   3  22
ENDBRANCH  20   3
ENDBRANCH  16  20
ENDBRANCH  11  16
TORSDOF 9
ENDMDL
MODEL 5
REMARK VINA RESULT:      -5.7     17.073     19.128
REMARK  Name = 38029756
REMARK  13 active torsions:
REMARK  status: ('A' for Active; 'I' for Inactive)
REMARK    1  A    between atoms: S_1  and  N_7
REMARK    2  A    between atoms: S_1  and  C_21
REMARK    3  A    between atoms: O_3  and  C_20
REMARK    4  A    between atoms: O_3  and  C_22
REMARK    5  A    between atoms: N_7  and  C_15
REMARK    6  A    between atoms: C_8  and  C_12
REMARK    7  A    between atoms: C_9  and  C_15
REMARK    8  A    between atoms: C_11  and  C_16
REMARK    9  A    between atoms: C_12  and  C_17
REMARK   10  A    between atoms: C_12  and  C_18
REMARK   11  A    between atoms: C_13  and  C_19
REMARK   12  A    between atoms: C_16  and  C_20
REMARK   13  A    between atoms: C_22  and  C_25
REMARK                            x       y       z     vdW  Elec       q    Type
REMARK                         _______ _______ _______ _____ _____    ______ ____
ROOT
ATOM      8  C   UNL     1      12.483   7.655   2.869  0.00  0.00    +0.000 C 
ATOM      9  C   UNL     1      13.968   7.861   3.260  0.00  0.00    +0.030 C 
ATOM     10  C   UNL     1      11.561   8.105   4.012  0.00  0.00    +0.012 C 
ATOM     11  C   UNL     1      11.833   7.335   5.318  0.00  0.00    +0.025 C 
ATOM     13  C   UNL     1      13.313   7.265   5.632  0.00  0.00    -0.073 C 
ATOM     14  C   UNL     1      14.253   7.516   4.703  0.00  0.00    -0.023 C 
ATOM     19  C   UNL     1      13.690   6.943   7.052  0.00  0.00    +0.039 C 
ENDROOT
BRANCH   8  12
ATOM     12  C   UNL     1      12.123   8.407   1.585  0.00  0.00    -0.013 C 
ATOM     17  C   UNL     1      10.617   8.368   1.349  0.00  0.00    +0.007 C 
ATOM     18  C   UNL     1      12.623   9.847   1.654  0.00  0.00    +0.007 C 
ENDBRANCH   8  12
BRANCH   9  15
ATOM     15  C   UNL     1      14.897   7.052   2.349  0.00  0.00    +0.113 C 
BRANCH  15   7
ATOM      7  N   UNL     1      14.781   5.625   2.688  0.00  0.00    -0.189 NA
ATOM     29  H   UNL     1      15.263   5.322   3.543  0.00  0.00    +0.148 HD
BRANCH   7   1
ATOM      1  S   UNL     1      14.574   4.465   1.457  0.00  0.00    +0.059 S 
ATOM      5  O   UNL     1      14.876   3.148   1.986  0.00  0.00    -0.153 OA
ATOM      6  O   UNL     1      15.226   4.934   0.249  0.00  0.00    -0.153 OA
BRANCH   1  21
ATOM      2  F   UNL     1      10.506   5.520  -1.453  0.00  0.00    -0.205 F 
ATOM     21  C   UNL     1      12.833   4.550   1.171  0.00  0.00    +0.108 A 
ATOM     23  C   UNL     1      12.347   5.011  -0.053  0.00  0.00    +0.066 A 
ATOM     24  C   UNL     1      11.943   4.155   2.170  0.00  0.00    +0.029 A 
ATOM     26  C   UNL     1      10.972   5.078  -0.279  0.00  0.00    +0.125 A 
ATOM     27  C   UNL     1      10.567   4.221   1.945  0.00  0.00    +0.005 A 
ATOM     28  C   UNL     1      10.082   4.682   0.720  0.00  0.00    +0.038 A 
ENDBRANCH   1  21
ENDBRANCH   7   1
ENDBRANCH  15   7
ENDBRANCH   9  15
BRANCH  11  16
ATOM     16  C   UNL     1      11.215   5.933   5.273  0.00  0.00    +0.128 C 
BRANCH  16  20
ATOM      4  O   UNL     1       8.877   5.971   5.943  0.00  0.00    -0.251 OA
ATOM     20  C   UNL     1      10.056   5.808   6.227  0.00  0.00    +0.308 C 
BRANCH  20   3
ATOM      3  O   UNL     1      10.546   5.484   7.461  0.00  0.00    -0.465 OA
BRANCH   3  22
ATOM     22  C   UNL     1       9.861   4.424   8.136  0.00  0.00    +0.229 C 
ATOM     25  C   UNL     1       9.322   4.945   9.452  0.00  0.00    +0.048 C 
ENDBRANCH   3  22
ENDBRANCH  20   3
ENDBRANCH  16  20
ENDBRANCH  11  16
TORSDOF 9
ENDMDL
MODEL 6
REMARK VINA RESULT:      -5.7     17.386     19.495
REMARK  Name = 38029756
REMARK  13 active torsions:
REMARK  status: ('A' for Active; 'I' for Inactive)
REMARK    1  A    between atoms: S_1  and  N_7
REMARK    2  A    between atoms: S_1  and  C_21
REMARK    3  A    between atoms: O_3  and  C_20
REMARK    4  A    between atoms: O_3  and  C_22
REMARK    5  A    between atoms: N_7  and  C_15
REMARK    6  A    between atoms: C_8  and  C_12
REMARK    7  A    between atoms: C_9  and  C_15
REMARK    8  A    between atoms: C_11  and  C_16
REMARK    9  A    between atoms: C_12  and  C_17
REMARK   10  A    between atoms: C_12  and  C_18
REMARK   11  A    between atoms: C_13  and  C_19
REMARK   12  A    between atoms: C_16  and  C_20
REMARK   13  A    between atoms: C_22  and  C_25
REMARK                            x       y       z     vdW  Elec       q    Type
REMARK                         _______ _______ _______ _____ _____    ______ ____
ROOT
ATOM      8  C   UNL     1      10.613   6.390   2.598  0.00  0.00    +0.000 C 
ATOM      9  C   UNL     1      11.915   5.847   3.237  0.00  0.00    +0.030 C 
ATOM     10  C   UNL     1       9.882   5.271   1.838  0.00  0.00    +0.012 C 
ATOM     11  C   UNL     1      10.753   4.658   0.726  0.00  0.00    +0.025 C 
ATOM     13  C   UNL     1      12.151   4.341   1.216  0.00  0.00    -0.073 C 
ATOM     14  C   UNL     1      12.649   4.871   2.348  0.00  0.00    -0.023 C 
ATOM     19  C   UNL     1      12.950   3.363   0.399  0.00  0.00    +0.039 C 
ENDROOT
BRANCH   8  12
ATOM     12  C   UNL     1       9.677   7.003   3.644  0.00  0.00    -0.013 C 
ATOM     17  C   UNL     1       8.624   7.876   2.971  0.00  0.00    +0.007 C 
ATOM     18  C   UNL     1       9.020   5.907   4.477  0.00  0.00    +0.007 C 
ENDBRANCH   8  12
BRANCH   9  15
ATOM     15  C   UNL     1      12.858   6.991   3.626  0.00  0.00    +0.113 C 
BRANCH  15   7
ATOM      7  N   UNL     1      13.051   6.981   5.085  0.00  0.00    -0.189 NA
ATOM     29  H   UNL     1      13.065   6.057   5.533  0.00  0.00    +0.148 HD
BRANCH   7   1
ATOM      1  S   UNL     1      12.525   8.298   6.029  0.00  0.00    +0.059 S 
ATOM      5  O   UNL     1      11.996   9.330   5.156  0.00  0.00    -0.153 OA
ATOM      6  O   UNL     1      13.548   8.621   7.005  0.00  0.00    -0.153 OA
BRANCH   1  21
ATOM      2  F   UNL     1      10.214   4.422   8.430  0.00  0.00    -0.205 F 
ATOM     21  C   UNL     1      11.171   7.588   6.914  0.00  0.00    +0.108 A 
ATOM     23  C   UNL     1      11.228   6.258   7.331  0.00  0.00    +0.066 A 
ATOM     24  C   UNL     1      10.043   8.359   7.197  0.00  0.00    +0.029 A 
ATOM     26  C   UNL     1      10.158   5.699   8.031  0.00  0.00    +0.125 A 
ATOM     27  C   UNL     1       8.972   7.800   7.897  0.00  0.00    +0.005 A 
ATOM     28  C   UNL     1       9.031   6.470   8.313  0.00  0.00    +0.038 A 
ENDBRANCH   1  21
ENDBRANCH   7   1
ENDBRANCH  15   7
ENDBRANCH   9  15
BRANCH  11  16
ATOM     16  C   UNL     1      10.797   5.566  -0.507  0.00  0.00    +0.128 C 
BRANCH  16  20
ATOM      4  O   UNL     1       9.040   5.725  -2.182  0.00  0.00    -0.251 OA
ATOM     20  C   UNL     1       9.887   5.064  -1.597  0.00  0.00    +0.308 C 
BRANCH  20   3
ATOM      3  O   UNL     1      10.169   3.745  -1.821  0.00  0.00    -0.465 OA
BRANCH   3  22
ATOM     22  C   UNL     1      10.957   3.472  -2.983  0.00  0.00    +0.229 C 
ATOM     25  C   UNL     1      11.721   2.182  -2.769  0.00  0.00    +0.048 C 
ENDBRANCH   3  22
ENDBRANCH  20   3
ENDBRANCH  16  20
ENDBRANCH  11  16
TORSDOF 9
ENDMDL
MODEL 7
REMARK VINA RESULT:      -5.6      3.191      5.877
REMARK  Name = 38029756
REMARK  13 active torsions:
REMARK  status: ('A' for Active; 'I' for Inactive)
REMARK    1  A    between atoms: S_1  and  N_7
REMARK    2  A    between atoms: S_1  and  C_21
REMARK    3  A    between atoms: O_3  and  C_20
REMARK    4  A    between atoms: O_3  and  C_22
REMARK    5  A    between atoms: N_7  and  C_15
REMARK    6  A    between atoms: C_8  and  C_12
REMARK    7  A    between atoms: C_9  and  C_15
REMARK    8  A    between atoms: C_11  and  C_16
REMARK    9  A    between atoms: C_12  and  C_17
REMARK   10  A    between atoms: C_12  and  C_18
REMARK   11  A    between atoms: C_13  and  C_19
REMARK   12  A    between atoms: C_16  and  C_20
REMARK   13  A    between atoms: C_22  and  C_25
REMARK                            x       y       z     vdW  Elec       q    Type
REMARK                         _______ _______ _______ _____ _____    ______ ____
ROOT
ATOM      8  C   UNL     1      15.032   9.506  20.476  0.00  0.00    +0.000 C 
ATOM      9  C   UNL     1      15.895  10.736  20.097  0.00  0.00    +0.030 C 
ATOM     10  C   UNL     1      14.787   8.623  19.243  0.00  0.00    +0.012 C 
ATOM     11  C   UNL     1      14.077   9.387  18.110  0.00  0.00    +0.025 C 
ATOM     13  C   UNL     1      14.714  10.739  17.858  0.00  0.00    -0.073 C 
ATOM     14  C   UNL     1      15.534  11.320  18.752  0.00  0.00    -0.023 C 
ATOM     19  C   UNL     1      14.422  11.389  16.534  0.00  0.00    +0.039 C 
ENDROOT
BRANCH   8  12
ATOM     12  C   UNL     1      15.679   8.676  21.588  0.00  0.00    -0.013 C 
ATOM     17  C   UNL     1      14.727   7.583  22.061  0.00  0.00    +0.007 C 
ATOM     18  C   UNL     1      16.996   8.076  21.106  0.00  0.00    +0.007 C 
ENDBRANCH   8  12
BRANCH   9  15
ATOM     15  C   UNL     1      15.802  11.827  21.169  0.00  0.00    +0.113 C 
BRANCH  15   7
ATOM      7  N   UNL     1      14.500  11.728  21.846  0.00  0.00    -0.189 NA
ATOM     29  H   UNL     1      14.209  10.785  22.134  0.00  0.00    +0.148 HD
BRANCH   7   1
ATOM      1  S   UNL     1      13.267  12.852  21.502  0.00  0.00    +0.059 S 
ATOM      5  O   UNL     1      12.476  12.368  20.385  0.00  0.00    -0.153 OA
ATOM      6  O   UNL     1      13.836  14.186  21.469  0.00  0.00    -0.153 OA
BRANCH   1  21
ATOM      2  F   UNL     1       9.793  14.720  24.754  0.00  0.00    -0.205 F 
ATOM     21  C   UNL     1      12.270  12.752  22.958  0.00  0.00    +0.108 A 
ATOM     23  C   UNL     1      11.407  13.797  23.288  0.00  0.00    +0.066 A 
ATOM     24  C   UNL     1      12.347  11.625  23.777  0.00  0.00    +0.029 A 
ATOM     26  C   UNL     1      10.621  13.716  24.438  0.00  0.00    +0.125 A 
ATOM     27  C   UNL     1      11.560  11.544  24.927  0.00  0.00    +0.005 A 
ATOM     28  C   UNL     1      10.697  12.590  25.256  0.00  0.00    +0.038 A 
ENDBRANCH   1  21
ENDBRANCH   7   1
ENDBRANCH  15   7
ENDBRANCH   9  15
BRANCH  11  16
ATOM     16  C   UNL     1      12.578   9.532  18.394  0.00  0.00    +0.128 C 
BRANCH  16  20
ATOM      4  O   UNL     1      12.129   7.280  17.591  0.00  0.00    -0.251 OA
ATOM     20  C   UNL     1      11.877   8.200  18.358  0.00  0.00    +0.308 C 
BRANCH  20   3
ATOM      3  O   UNL     1      10.911   8.194  19.326  0.00  0.00    -0.465 OA
BRANCH   3  22
ATOM     22  C   UNL     1      11.365   7.884  20.647  0.00  0.00    +0.229 C 
ATOM     25  C   UNL     1      10.870   8.951  21.601  0.00  0.00    +0.048 C 
ENDBRANCH   3  22
ENDBRANCH  20   3
ENDBRANCH  16  20
ENDBRANCH  11  16
TORSDOF 9
ENDMDL
MODEL 8
REMARK VINA RESULT:      -5.5     28.254     30.048
REMARK  Name = 38029756
REMARK  13 active torsions:
REMARK  status: ('A' for Active; 'I' for Inactive)
REMARK    1  A    between atoms: S_1  and  N_7
REMARK    2  A    between atoms: S_1  and  C_21
REMARK    3  A    between atoms: O_3  and  C_20
REMARK    4  A    between atoms: O_3  and  C_22
REMARK    5  A    between atoms: N_7  and  C_15
REMARK    6  A    between atoms: C_8  and  C_12
REMARK    7  A    between atoms: C_9  and  C_15
REMARK    8  A    between atoms: C_11  and  C_16
REMARK    9  A    between atoms: C_12  and  C_17
REMARK   10  A    between atoms: C_12  and  C_18
REMARK   11  A    between atoms: C_13  and  C_19
REMARK   12  A    between atoms: C_16  and  C_20
REMARK   13  A    between atoms: C_22  and  C_25
REMARK                            x       y       z     vdW  Elec       q    Type
REMARK                         _______ _______ _______ _____ _____    ______ ____
ROOT
ATOM      8  C   UNL     1      -5.755 -10.808  17.547  0.00  0.00    +0.000 C 
ATOM      9  C   UNL     1      -5.290 -11.445  16.213  0.00  0.00    +0.030 C 
ATOM     10  C   UNL     1      -7.259 -11.046  17.759  0.00  0.00    +0.012 C 
ATOM     11  C   UNL     1      -8.108 -10.460  16.616  0.00  0.00    +0.025 C 
ATOM     13  C   UNL     1      -7.551 -10.828  15.256  0.00  0.00    -0.073 C 
ATOM     14  C   UNL     1      -6.294 -11.278  15.096  0.00  0.00    -0.023 C 
ATOM     19  C   UNL     1      -8.488 -10.708  14.085  0.00  0.00    +0.039 C 
ENDROOT
BRANCH   8  12
ATOM     12  C   UNL     1      -4.970 -11.352  18.743  0.00  0.00    -0.013 C 
ATOM     17  C   UNL     1      -5.747 -11.131  20.036  0.00  0.00    +0.007 C 
ATOM     18  C   UNL     1      -4.658 -12.833  18.545  0.00  0.00    +0.007 C 
ENDBRANCH   8  12
BRANCH   9  15
ATOM     15  C   UNL     1      -3.937 -10.878  15.772  0.00  0.00    +0.113 C 
BRANCH  15   7
ATOM      7  N   UNL     1      -4.086 -10.250  14.450  0.00  0.00    -0.189 NA
ATOM     29  H   UNL     1      -5.016  -9.872  14.230  0.00  0.00    +0.148 HD
BRANCH   7   1
ATOM      1  S   UNL     1      -3.126 -10.769  13.141  0.00  0.00    +0.059 S 
ATOM      5  O   UNL     1      -3.283 -12.202  12.972  0.00  0.00    -0.153 OA
ATOM      6  O   UNL     1      -1.802 -10.190  13.265  0.00  0.00    -0.153 OA
BRANCH   1  21
ATOM      2  F   UNL     1      -7.185  -8.678  10.843  0.00  0.00    -0.205 F 
ATOM     21  C   UNL     1      -3.914  -9.970  11.777  0.00  0.00    +0.108 A 
ATOM     23  C   UNL     1      -5.266  -9.632  11.850  0.00  0.00    +0.066 A 
ATOM     24  C   UNL     1      -3.184  -9.676  10.625  0.00  0.00    +0.029 A 
ATOM     26  C   UNL     1      -5.888  -9.002  10.772  0.00  0.00    +0.125 A 
ATOM     27  C   UNL     1      -3.805  -9.044   9.546  0.00  0.00    +0.005 A 
ATOM     28  C   UNL     1      -5.157  -8.708   9.621  0.00  0.00    +0.038 A 
ENDBRANCH   1  21
ENDBRANCH   7   1
ENDBRANCH  15   7
ENDBRANCH   9  15
BRANCH  11  16
ATOM     16  C   UNL     1      -8.255  -8.942  16.757  0.00  0.00    +0.128 C 
BRANCH  16  20
ATOM      4  O   UNL     1     -10.349  -8.976  17.994  0.00  0.00    -0.251 OA
ATOM     20  C   UNL     1      -9.676  -8.549  17.066  0.00  0.00    +0.308 C 
BRANCH  20   3
ATOM      3  O   UNL     1     -10.084  -7.636  16.134  0.00  0.00    -0.465 OA
BRANCH   3  22
ATOM     22  C   UNL     1     -11.008  -6.649  16.602  0.00  0.00    +0.229 C 
ATOM     25  C   UNL     1     -11.565  -5.893  15.414  0.00  0.00    +0.048 C 
ENDBRANCH   3  22
ENDBRANCH  20   3
ENDBRANCH  16  20
ENDBRANCH  11  16
TORSDOF 9
ENDMDL
MODEL 9
REMARK VINA RESULT:      -5.4     14.980     17.169
REMARK  Name = 38029756
REMARK  13 active torsions:
REMARK  status: ('A' for Active; 'I' for Inactive)
REMARK    1  A    between atoms: S_1  and  N_7
REMARK    2  A    between atoms: S_1  and  C_21
REMARK    3  A    between atoms: O_3  and  C_20
REMARK    4  A    between atoms: O_3  and  C_22
REMARK    5  A    between atoms: N_7  and  C_15
REMARK    6  A    between atoms: C_8  and  C_12
REMARK    7  A    between atoms: C_9  and  C_15
REMARK    8  A    between atoms: C_11  and  C_16
REMARK    9  A    between atoms: C_12  and  C_17
REMARK   10  A    between atoms: C_12  and  C_18
REMARK   11  A    between atoms: C_13  and  C_19
REMARK   12  A    between atoms: C_16  and  C_20
REMARK   13  A    between atoms: C_22  and  C_25
REMARK                            x       y       z     vdW  Elec       q    Type
REMARK                         _______ _______ _______ _____ _____    ______ ____
ROOT
ATOM      8  C   UNL     1       8.975   8.357   4.796  0.00  0.00    +0.000 C 
ATOM      9  C   UNL     1       8.570   8.713   6.249  0.00  0.00    +0.030 C 
ATOM     10  C   UNL     1       8.653   6.884   4.497  0.00  0.00    +0.012 C 
ATOM     11  C   UNL     1       9.378   5.922   5.456  0.00  0.00    +0.025 C 
ATOM     13  C   UNL     1       9.247   6.362   6.899  0.00  0.00    -0.073 C 
ATOM     14  C   UNL     1       8.873   7.610   7.235  0.00  0.00    -0.023 C 
ATOM     19  C   UNL     1       9.514   5.322   7.952  0.00  0.00    +0.039 C 
ENDROOT
BRANCH   8  12
ATOM     12  C   UNL     1       8.279   9.259   3.773  0.00  0.00    -0.013 C 
ATOM     17  C   UNL     1       8.313   8.620   2.389  0.00  0.00    +0.007 C 
ATOM     18  C   UNL     1       6.843   9.542   4.203  0.00  0.00    +0.007 C 
ENDBRANCH   8  12
BRANCH   9  15
ATOM     15  C   UNL     1       9.248  10.009   6.709  0.00  0.00    +0.113 C 
BRANCH  15   7
ATOM      7  N   UNL     1      10.479   9.674   7.442  0.00  0.00    -0.189 NA
ATOM     29  H   UNL     1      10.353   9.224   8.357  0.00  0.00    +0.148 HD
BRANCH   7   1
ATOM      1  S   UNL     1      11.889  10.603   7.218  0.00  0.00    +0.059 S 
ATOM      5  O   UNL     1      12.238  11.251   8.469  0.00  0.00    -0.153 OA
ATOM      6  O   UNL     1      11.755  11.385   6.004  0.00  0.00    -0.153 OA
BRANCH   1  21
ATOM      2  F   UNL     1      16.502   9.053   5.652  0.00  0.00    -0.205 F 
ATOM     21  C   UNL     1      13.097   9.353   6.898  0.00  0.00    +0.108 A 
ATOM     23  C   UNL     1      14.348   9.703   6.391  0.00  0.00    +0.066 A 
ATOM     24  C   UNL     1      12.798   8.014   7.153  0.00  0.00    +0.029 A 
ATOM     26  C   UNL     1      15.301   8.716   6.139  0.00  0.00    +0.125 A 
ATOM     27  C   UNL     1      13.750   7.026   6.901  0.00  0.00    +0.005 A 
ATOM     28  C   UNL     1      15.002   7.378   6.394  0.00  0.00    +0.038 A 
ENDBRANCH   1  21
ENDBRANCH   7   1
ENDBRANCH  15   7
ENDBRANCH   9  15
BRANCH  11  16
ATOM     16  C   UNL     1      10.850   5.755   5.064  0.00  0.00    +0.128 C 
BRANCH  16  20
ATOM      4  O   UNL     1      10.728   4.216   3.184  0.00  0.00    -0.251 OA
ATOM     20  C   UNL     1      10.996   5.325   3.629  0.00  0.00    +0.308 C 
BRANCH  20   3
ATOM      3  O   UNL     1      11.478   6.381   2.908  0.00  0.00    -0.465 OA
BRANCH   3  22
ATOM     22  C   UNL     1      12.545   7.111   3.523  0.00  0.00    +0.229 C 
ATOM     25  C   UNL     1      12.357   8.587   3.245  0.00  0.00    +0.048 C 
ENDBRANCH   3  22
ENDBRANCH  20   3
ENDBRANCH  16  20
ENDBRANCH  11  16
TORSDOF 9
ENDMDL
MODEL 10
REMARK VINA RESULT:      -5.4     27.521     30.122
REMARK  Name = 38029756
REMARK  13 active torsions:
REMARK  status: ('A' for Active; 'I' for Inactive)
REMARK    1  A    between atoms: S_1  and  N_7
REMARK    2  A    between atoms: S_1  and  C_21
REMARK    3  A    between atoms: O_3  and  C_20
REMARK    4  A    between atoms: O_3  and  C_22
REMARK    5  A    between atoms: N_7  and  C_15
REMARK    6  A    between atoms: C_8  and  C_12
REMARK    7  A    between atoms: C_9  and  C_15
REMARK    8  A    between atoms: C_11  and  C_16
REMARK    9  A    between atoms: C_12  and  C_17
REMARK   10  A    between atoms: C_12  and  C_18
REMARK   11  A    between atoms: C_13  and  C_19
REMARK   12  A    between atoms: C_16  and  C_20
REMARK   13  A    between atoms: C_22  and  C_25
REMARK                            x       y       z     vdW  Elec       q    Type
REMARK                         _______ _______ _______ _____ _____    ______ ____
ROOT
ATOM      8  C   UNL     1      -4.997 -12.042  17.378  0.00  0.00    +0.000 C 
ATOM      9  C   UNL     1      -6.400 -12.213  16.744  0.00  0.00    +0.030 C 
ATOM     10  C   UNL     1      -4.350 -10.731  16.903  0.00  0.00    +0.012 C 
ATOM     11  C   UNL     1      -4.203 -10.675  15.371  0.00  0.00    +0.025 C 
ATOM     13  C   UNL     1      -5.479 -11.093  14.668  0.00  0.00    -0.073 C 
ATOM     14  C   UNL     1      -6.455 -11.768  15.301  0.00  0.00    -0.023 C 
ATOM     19  C   UNL     1      -5.627 -10.678  13.230  0.00  0.00    +0.039 C 
ENDROOT
BRANCH   8  12
ATOM     12  C   UNL     1      -5.056 -12.066  18.908  0.00  0.00    -0.013 C 
ATOM     17  C   UNL     1      -3.650 -12.130  19.495  0.00  0.00    +0.007 C 
ATOM     18  C   UNL     1      -5.807 -10.846  19.431  0.00  0.00    +0.007 C 
ENDBRANCH   8  12
BRANCH   9  15
ATOM     15  C   UNL     1      -6.881 -13.664  16.849  0.00  0.00    +0.113 C 
BRANCH  15   7
ATOM      7  N   UNL     1      -6.477 -14.394  15.638  0.00  0.00    -0.189 NA
ATOM     29  H   UNL     1      -7.197 -14.504  14.914  0.00  0.00    +0.148 HD
BRANCH   7   1
ATOM      1  S   UNL     1      -5.267 -15.591  15.721  0.00  0.00    +0.059 S 
ATOM      5  O   UNL     1      -5.837 -16.874  15.352  0.00  0.00    -0.153 OA
ATOM      6  O   UNL     1      -4.543 -15.447  16.970  0.00  0.00    -0.153 OA
BRANCH   1  21
ATOM      2  F   UNL     1      -4.295 -13.428  11.193  0.00  0.00    -0.205 F 
ATOM     21  C   UNL     1      -4.173 -15.089  14.428  0.00  0.00    +0.108 A 
ATOM     23  C   UNL     1      -4.676 -14.444  13.298  0.00  0.00    +0.066 A 
ATOM     24  C   UNL     1      -2.805 -15.337  14.538  0.00  0.00    +0.029 A 
ATOM     26  C   UNL     1      -3.812 -14.047  12.277  0.00  0.00    +0.125 A 
ATOM     27  C   UNL     1      -1.939 -14.940  13.517  0.00  0.00    +0.005 A 
ATOM     28  C   UNL     1      -2.444 -14.296  12.388  0.00  0.00    +0.038 A 
ENDBRANCH   1  21
ENDBRANCH   7   1
ENDBRANCH  15   7
ENDBRANCH   9  15
BRANCH  11  16
ATOM     16  C   UNL     1      -3.014 -11.517  14.898  0.00  0.00    +0.128 C 
BRANCH  16  20
ATOM      4  O   UNL     1      -0.865 -10.628  15.609  0.00  0.00    -0.251 OA
ATOM     20  C   UNL     1      -1.762 -10.690  14.779  0.00  0.00    +0.308 C 
BRANCH  20   3
ATOM      3  O   UNL     1      -1.798 -10.021  13.587  0.00  0.00    -0.465 OA
BRANCH   3  22
ATOM     22  C   UNL     1      -1.831 -10.846  12.418  0.00  0.00    +0.229 C 
ATOM     25  C   UNL     1      -2.558 -10.107  11.314  0.00  0.00    +0.048 C 
ENDBRANCH   3  22
ENDBRANCH  20   3
ENDBRANCH  16  20
ENDBRANCH  11  16
TORSDOF 9
ENDMDL
