MODEL 1
REMARK VINA RESULT:      -7.4      0.000      0.000
REMARK  Name = 75367149
REMARK  6 active torsions:
REMARK  status: ('A' for Active; 'I' for Inactive)
REMARK    1  A    between atoms: O_4  and  C_22
REMARK    2  A    between atoms: O_4  and  C_26
REMARK    3  A    between atoms: N_5  and  C_11
REMARK    4  A    between atoms: C_8  and  C_13
REMARK    5  A    between atoms: C_11  and  C_14
REMARK    6  A    between atoms: C_15  and  C_19
REMARK                            x       y       z     vdW  Elec       q    Type
REMARK                         _______ _______ _______ _____ _____    ______ ____
ROOT
ATOM      3  O   UNL     1      13.430   8.359  15.497  0.00  0.00    -0.377 OA
ATOM      5  N   UNL     1      12.387   8.714  18.140  0.00  0.00    -0.285 NA
ATOM      8  C   UNL     1      13.333   7.613  17.824  0.00  0.00    +0.149 C 
ATOM      9  C   UNL     1      11.639   9.106  16.933  0.00  0.00    +0.113 C 
ATOM     10  C   UNL     1      14.224   8.009  16.630  0.00  0.00    +0.186 C 
ATOM     12  C   UNL     1      12.591   9.472  15.802  0.00  0.00    +0.175 C 
ENDROOT
BRANCH   8  13
ATOM      6  N   UNL     1      15.577   7.407  18.953  0.00  0.00    -0.340 N 
ATOM      7  N   UNL     1      13.839   6.676  20.128  0.00  0.00    -0.238 NA
ATOM     13  C   UNL     1      14.223   7.218  18.994  0.00  0.00    +0.127 A 
ATOM     15  C   UNL     1      16.088   6.956  20.137  0.00  0.00    +0.073 A 
ATOM     16  C   UNL     1      14.998   6.510  20.845  0.00  0.00    +0.139 A 
ATOM     27  H   UNL     1      16.101   7.811  18.188  0.00  0.00    +0.167 HD
BRANCH  15  19
ATOM      1 CL   UNL     1      20.989   8.359  22.128  0.00  0.00    -0.076 Cl
ATOM      2  S   UNL     1      18.108   8.252  21.417  0.00  0.00    -0.075 S 
ATOM     19  C   UNL     1      17.462   6.986  20.461  0.00  0.00    +0.038 A 
ATOM     23  C   UNL     1      18.427   6.074  20.091  0.00  0.00    +0.019 A 
ATOM     24  C   UNL     1      19.713   6.420  20.598  0.00  0.00    +0.028 A 
ATOM     25  C   UNL     1      19.682   7.582  21.338  0.00  0.00    +0.079 A 
ENDBRANCH  15  19
ENDBRANCH   8  13
BRANCH   5  11
ATOM     11  C   UNL     1      11.437   8.339  19.194  0.00  0.00    +0.120 C 
BRANCH  11  14
ATOM     14  C   UNL     1      11.514   9.269  20.375  0.00  0.00    -0.033 A 
ATOM     17  C   UNL     1      10.771   9.000  21.525  0.00  0.00    +0.008 A 
ATOM     18  C   UNL     1      12.329  10.399  20.320  0.00  0.00    +0.008 A 
ATOM     20  C   UNL     1      10.844   9.862  22.619  0.00  0.00    +0.046 A 
ATOM     21  C   UNL     1      12.403  11.261  21.414  0.00  0.00    +0.046 A 
ATOM     22  C   UNL     1      11.660  10.993  22.564  0.00  0.00    +0.120 A 
BRANCH  22   4
ATOM      4  O   UNL     1      11.731  11.833  23.633  0.00  0.00    -0.495 OA
ATOM     26  C   UNL     1      11.222  11.349  24.874  0.00  0.00    +0.277 C 
ENDBRANCH  22   4
ENDBRANCH  11  14
ENDBRANCH   5  11
TORSDOF 5
ENDMDL
MODEL 2
REMARK VINA RESULT:      -7.2      3.675      7.029
REMARK  Name = 75367149
REMARK  6 active torsions:
REMARK  status: ('A' for Active; 'I' for Inactive)
REMARK    1  A    between atoms: O_4  and  C_22
REMARK    2  A    between atoms: O_4  and  C_26
REMARK    3  A    between atoms: N_5  and  C_11
REMARK    4  A    between atoms: C_8  and  C_13
REMARK    5  A    between atoms: C_11  and  C_14
REMARK    6  A    between atoms: C_15  and  C_19
REMARK                            x       y       z     vdW  Elec       q    Type
REMARK                         _______ _______ _______ _____ _____    ______ ____
ROOT
ATOM      3  O   UNL     1      16.034   6.708  21.615  0.00  0.00    -0.377 OA
ATOM      5  N   UNL     1      14.007   7.571  19.785  0.00  0.00    -0.285 NA
ATOM      8  C   UNL     1      13.683   7.234  21.196  0.00  0.00    +0.149 C 
ATOM      9  C   UNL     1      15.209   6.839  19.350  0.00  0.00    +0.113 C 
ATOM     10  C   UNL     1      14.918   7.460  22.090  0.00  0.00    +0.186 C 
ATOM     12  C   UNL     1      16.377   7.108  20.290  0.00  0.00    +0.175 C 
ENDROOT
BRANCH   8  13
ATOM      6  N   UNL     1      12.661   9.332  22.149  0.00  0.00    -0.340 N 
ATOM      7  N   UNL     1      11.284   7.602  21.938  0.00  0.00    -0.238 NA
ATOM     13  C   UNL     1      12.514   8.029  21.759  0.00  0.00    +0.127 A 
ATOM     15  C   UNL     1      11.448   9.762  22.605  0.00  0.00    +0.073 A 
ATOM     16  C   UNL     1      10.614   8.678  22.465  0.00  0.00    +0.139 A 
ATOM     27  H   UNL     1      13.512   9.876  22.101  0.00  0.00    +0.167 HD
BRANCH  15  19
ATOM      1 CL   UNL     1      10.611  14.078  25.864  0.00  0.00    -0.076 Cl
ATOM      2  S   UNL     1      11.107  11.358  24.780  0.00  0.00    -0.075 S 
ATOM     19  C   UNL     1      11.210  11.064  23.097  0.00  0.00    +0.038 A 
ATOM     23  C   UNL     1      11.038  12.216  22.359  0.00  0.00    +0.019 A 
ATOM     24  C   UNL     1      10.818  13.353  23.188  0.00  0.00    +0.028 A 
ATOM     25  C   UNL     1      10.831  13.029  24.527  0.00  0.00    +0.079 A 
ENDBRANCH  15  19
ENDBRANCH   8  13
BRANCH   5  11
ATOM     11  C   UNL     1      12.899   7.259  18.874  0.00  0.00    +0.120 C 
BRANCH  11  14
ATOM     14  C   UNL     1      12.858   8.199  17.699  0.00  0.00    -0.033 A 
ATOM     17  C   UNL     1      11.662   8.404  17.012  0.00  0.00    +0.008 A 
ATOM     18  C   UNL     1      14.016   8.865  17.299  0.00  0.00    +0.008 A 
ATOM     20  C   UNL     1      11.625   9.276  15.923  0.00  0.00    +0.046 A 
ATOM     21  C   UNL     1      13.980   9.736  16.211  0.00  0.00    +0.046 A 
ATOM     22  C   UNL     1      12.784   9.942  15.522  0.00  0.00    +0.120 A 
BRANCH  22   4
ATOM      4  O   UNL     1      12.747  10.793  14.461  0.00  0.00    -0.495 OA
ATOM     26  C   UNL     1      13.773  11.781  14.384  0.00  0.00    +0.277 C 
ENDBRANCH  22   4
ENDBRANCH  11  14
ENDBRANCH   5  11
TORSDOF 5
ENDMDL
MODEL 3
REMARK VINA RESULT:      -6.4     13.614     16.691
REMARK  Name = 75367149
REMARK  6 active torsions:
REMARK  status: ('A' for Active; 'I' for Inactive)
REMARK    1  A    between atoms: O_4  and  C_22
REMARK    2  A    between atoms: O_4  and  C_26
REMARK    3  A    between atoms: N_5  and  C_11
REMARK    4  A    between atoms: C_8  and  C_13
REMARK    5  A    between atoms: C_11  and  C_14
REMARK    6  A    between atoms: C_15  and  C_19
REMARK                            x       y       z     vdW  Elec       q    Type
REMARK                         _______ _______ _______ _____ _____    ______ ____
ROOT
ATOM      3  O   UNL     1       8.798  11.166   2.891  0.00  0.00    -0.377 OA
ATOM      5  N   UNL     1       8.635   8.749   4.418  0.00  0.00    -0.285 NA
ATOM      8  C   UNL     1       9.578   8.881   3.279  0.00  0.00    +0.149 C 
ATOM      9  C   UNL     1       7.484   9.650   4.234  0.00  0.00    +0.113 C 
ATOM     10  C   UNL     1       9.962  10.361   3.079  0.00  0.00    +0.186 C 
ATOM     12  C   UNL     1       7.949  11.087   4.035  0.00  0.00    +0.175 C 
ENDROOT
BRANCH   8  13
ATOM      6  N   UNL     1      11.234   7.150   2.494  0.00  0.00    -0.340 N 
ATOM      7  N   UNL     1      11.695   8.105   4.445  0.00  0.00    -0.238 NA
ATOM     13  C   UNL     1      10.849   8.059   3.441  0.00  0.00    +0.127 A 
ATOM     15  C   UNL     1      12.399   6.581   2.923  0.00  0.00    +0.073 A 
ATOM     16  C   UNL     1      12.663   7.185   4.129  0.00  0.00    +0.139 A 
ATOM     27  H   UNL     1      10.746   6.943   1.632  0.00  0.00    +0.167 HD
BRANCH  15  19
ATOM      1 CL   UNL     1      16.176   3.845   0.059  0.00  0.00    -0.076 Cl
ATOM      2  S   UNL     1      14.661   5.900   1.576  0.00  0.00    -0.075 S 
ATOM     19  C   UNL     1      13.099   5.587   2.204  0.00  0.00    +0.038 A 
ATOM     23  C   UNL     1      12.673   4.309   1.916  0.00  0.00    +0.019 A 
ATOM     24  C   UNL     1      13.641   3.578   1.170  0.00  0.00    +0.028 A 
ATOM     25  C   UNL     1      14.771   4.324   0.916  0.00  0.00    +0.079 A 
ENDBRANCH  15  19
ENDBRANCH   8  13
BRANCH   5  11
ATOM     11  C   UNL     1       8.147   7.373   4.575  0.00  0.00    +0.120 C 
BRANCH  11  14
ATOM     14  C   UNL     1       8.662   6.736   5.838  0.00  0.00    -0.033 A 
ATOM     17  C   UNL     1       9.260   5.477   5.790  0.00  0.00    +0.008 A 
ATOM     18  C   UNL     1       8.541   7.405   7.055  0.00  0.00    +0.008 A 
ATOM     20  C   UNL     1       9.738   4.887   6.960  0.00  0.00    +0.046 A 
ATOM     21  C   UNL     1       9.018   6.816   8.225  0.00  0.00    +0.046 A 
ATOM     22  C   UNL     1       9.616   5.557   8.179  0.00  0.00    +0.120 A 
BRANCH  22   4
ATOM      4  O   UNL     1      10.084   4.981   9.320  0.00  0.00    -0.495 OA
ATOM     26  C   UNL     1       9.114   4.546  10.271  0.00  0.00    +0.277 C 
ENDBRANCH  22   4
ENDBRANCH  11  14
ENDBRANCH   5  11
TORSDOF 5
ENDMDL
MODEL 4
REMARK VINA RESULT:      -6.4     26.587     28.699
REMARK  Name = 75367149
REMARK  6 active torsions:
REMARK  status: ('A' for Active; 'I' for Inactive)
REMARK    1  A    between atoms: O_4  and  C_22
REMARK    2  A    between atoms: O_4  and  C_26
REMARK    3  A    between atoms: N_5  and  C_11
REMARK    4  A    between atoms: C_8  and  C_13
REMARK    5  A    between atoms: C_11  and  C_14
REMARK    6  A    between atoms: C_15  and  C_19
REMARK                            x       y       z     vdW  Elec       q    Type
REMARK                         _______ _______ _______ _____ _____    ______ ____
ROOT
ATOM      3  O   UNL     1      -1.592 -10.718  16.479  0.00  0.00    -0.377 OA
ATOM      5  N   UNL     1      -3.158 -10.657  14.082  0.00  0.00    -0.285 NA
ATOM      8  C   UNL     1      -3.633 -11.365  15.298  0.00  0.00    +0.149 C 
ATOM      9  C   UNL     1      -1.686 -10.598  14.070  0.00  0.00    +0.113 C 
ATOM     10  C   UNL     1      -3.017 -10.724  16.558  0.00  0.00    +0.186 C 
ATOM     12  C   UNL     1      -1.160  -9.961  15.349  0.00  0.00    +0.175 C 
ENDROOT
BRANCH   8  13
ATOM      6  N   UNL     1      -5.847 -10.238  15.724  0.00  0.00    -0.340 N 
ATOM      7  N   UNL     1      -5.942 -12.420  15.326  0.00  0.00    -0.238 NA
ATOM     13  C   UNL     1      -5.148 -11.380  15.442  0.00  0.00    +0.127 A 
ATOM     15  C   UNL     1      -7.169 -10.573  15.790  0.00  0.00    +0.073 A 
ATOM     16  C   UNL     1      -7.203 -11.924  15.542  0.00  0.00    +0.139 A 
ATOM     27  H   UNL     1      -5.454  -9.314  15.852  0.00  0.00    +0.167 HD
BRANCH  15  19
ATOM      1 CL   UNL     1     -11.508  -7.263  15.379  0.00  0.00    -0.076 Cl
ATOM      2  S   UNL     1      -9.321  -9.200  14.850  0.00  0.00    -0.075 S 
ATOM     19  C   UNL     1      -8.201  -9.649  16.066  0.00  0.00    +0.038 A 
ATOM     23  C   UNL     1      -8.453  -9.011  17.261  0.00  0.00    +0.019 A 
ATOM     24  C   UNL     1      -9.579  -8.143  17.178  0.00  0.00    +0.028 A 
ATOM     25  C   UNL     1     -10.146  -8.150  15.922  0.00  0.00    +0.079 A 
ENDBRANCH  15  19
ENDBRANCH   8  13
BRANCH   5  11
ATOM     11  C   UNL     1      -3.622 -11.305  12.849  0.00  0.00    +0.120 C 
BRANCH  11  14
ATOM     14  C   UNL     1      -4.247 -10.318  11.899  0.00  0.00    -0.033 A 
ATOM     17  C   UNL     1      -3.559  -9.924  10.751  0.00  0.00    +0.008 A 
ATOM     18  C   UNL     1      -5.513  -9.798  12.166  0.00  0.00    +0.008 A 
ATOM     20  C   UNL     1      -4.138  -9.010   9.871  0.00  0.00    +0.046 A 
ATOM     21  C   UNL     1      -6.092  -8.885  11.287  0.00  0.00    +0.046 A 
ATOM     22  C   UNL     1      -5.405  -8.490  10.139  0.00  0.00    +0.120 A 
BRANCH  22   4
ATOM      4  O   UNL     1      -5.971  -7.599   9.279  0.00  0.00    -0.495 OA
ATOM     26  C   UNL     1      -7.233  -7.950   8.717  0.00  0.00    +0.277 C 
ENDBRANCH  22   4
ENDBRANCH  11  14
ENDBRANCH   5  11
TORSDOF 5
ENDMDL
MODEL 5
REMARK VINA RESULT:      -6.4      2.458      4.284
REMARK  Name = 75367149
REMARK  6 active torsions:
REMARK  status: ('A' for Active; 'I' for Inactive)
REMARK    1  A    between atoms: O_4  and  C_22
REMARK    2  A    between atoms: O_4  and  C_26
REMARK    3  A    between atoms: N_5  and  C_11
REMARK    4  A    between atoms: C_8  and  C_13
REMARK    5  A    between atoms: C_11  and  C_14
REMARK    6  A    between atoms: C_15  and  C_19
REMARK                            x       y       z     vdW  Elec       q    Type
REMARK                         _______ _______ _______ _____ _____    ______ ____
ROOT
ATOM      3  O   UNL     1      10.822   6.489  21.972  0.00  0.00    -0.377 OA
ATOM      5  N   UNL     1      12.449   8.737  21.267  0.00  0.00    -0.285 NA
ATOM      8  C   UNL     1      13.046   7.401  21.524  0.00  0.00    +0.149 C 
ATOM      9  C   UNL     1      11.178   8.876  21.997  0.00  0.00    +0.113 C 
ATOM     10  C   UNL     1      12.017   6.295  21.216  0.00  0.00    +0.186 C 
ATOM     12  C   UNL     1      10.224   7.742  21.644  0.00  0.00    +0.175 C 
ENDROOT
BRANCH   8  13
ATOM      6  N   UNL     1      15.539   7.093  21.325  0.00  0.00    -0.340 N 
ATOM      7  N   UNL     1      14.396   6.922  19.428  0.00  0.00    -0.238 NA
ATOM     13  C   UNL     1      14.312   7.134  20.723  0.00  0.00    +0.127 A 
ATOM     15  C   UNL     1      16.464   6.838  20.353  0.00  0.00    +0.073 A 
ATOM     16  C   UNL     1      15.736   6.737  19.191  0.00  0.00    +0.139 A 
ATOM     27  H   UNL     1      15.725   7.222  22.311  0.00  0.00    +0.167 HD
BRANCH  15  19
ATOM      1 CL   UNL     1      21.570   7.664  22.141  0.00  0.00    -0.076 Cl
ATOM      2  S   UNL     1      18.658   7.858  21.595  0.00  0.00    -0.075 S 
ATOM     19  C   UNL     1      17.850   6.725  20.597  0.00  0.00    +0.038 A 
ATOM     23  C   UNL     1      18.707   5.762  20.110  0.00  0.00    +0.019 A 
ATOM     24  C   UNL     1      20.044   5.957  20.563  0.00  0.00    +0.028 A 
ATOM     25  C   UNL     1      20.158   7.062  21.379  0.00  0.00    +0.079 A 
ENDBRANCH  15  19
ENDBRANCH   8  13
BRANCH   5  11
ATOM     11  C   UNL     1      13.350   9.828  21.657  0.00  0.00    +0.120 C 
BRANCH  11  14
ATOM     14  C   UNL     1      14.021  10.455  20.465  0.00  0.00    -0.033 A 
ATOM     17  C   UNL     1      15.317  10.958  20.578  0.00  0.00    +0.008 A 
ATOM     18  C   UNL     1      13.347  10.533  19.246  0.00  0.00    +0.008 A 
ATOM     20  C   UNL     1      15.939  11.539  19.473  0.00  0.00    +0.046 A 
ATOM     21  C   UNL     1      13.968  11.113  18.141  0.00  0.00    +0.046 A 
ATOM     22  C   UNL     1      15.265  11.616  18.254  0.00  0.00    +0.120 A 
BRANCH  22   4
ATOM      4  O   UNL     1      15.872  12.182  17.175  0.00  0.00    -0.495 OA
ATOM     26  C   UNL     1      15.366  11.833  15.888  0.00  0.00    +0.277 C 
ENDBRANCH  22   4
ENDBRANCH  11  14
ENDBRANCH   5  11
TORSDOF 5
ENDMDL
MODEL 6
REMARK VINA RESULT:      -6.4      3.689      6.907
REMARK  Name = 75367149
REMARK  6 active torsions:
REMARK  status: ('A' for Active; 'I' for Inactive)
REMARK    1  A    between atoms: O_4  and  C_22
REMARK    2  A    between atoms: O_4  and  C_26
REMARK    3  A    between atoms: N_5  and  C_11
REMARK    4  A    between atoms: C_8  and  C_13
REMARK    5  A    between atoms: C_11  and  C_14
REMARK    6  A    between atoms: C_15  and  C_19
REMARK                            x       y       z     vdW  Elec       q    Type
REMARK                         _______ _______ _______ _____ _____    ______ ____
ROOT
ATOM      3  O   UNL     1      18.133   6.571  21.271  0.00  0.00    -0.377 OA
ATOM      5  N   UNL     1      15.902   7.508  19.740  0.00  0.00    -0.285 NA
ATOM      8  C   UNL     1      16.101   7.926  21.151  0.00  0.00    +0.149 C 
ATOM      9  C   UNL     1      16.533   6.198  19.502  0.00  0.00    +0.113 C 
ATOM     10  C   UNL     1      17.599   7.873  21.512  0.00  0.00    +0.186 C 
ATOM     12  C   UNL     1      18.005   6.228  19.892  0.00  0.00    +0.175 C 
ENDROOT
BRANCH   8  13
ATOM      6  N   UNL     1      14.357   9.502  22.061  0.00  0.00    -0.340 N 
ATOM      7  N   UNL     1      16.161  10.464  21.193  0.00  0.00    -0.238 NA
ATOM     13  C   UNL     1      15.570   9.319  21.455  0.00  0.00    +0.127 A 
ATOM     15  C   UNL     1      14.164  10.847  22.194  0.00  0.00    +0.073 A 
ATOM     16  C   UNL     1      15.290  11.420  21.651  0.00  0.00    +0.139 A 
ATOM     27  H   UNL     1      13.724   8.772  22.360  0.00  0.00    +0.167 HD
BRANCH  15  19
ATOM      1 CL   UNL     1      10.594  13.041  25.715  0.00  0.00    -0.076 Cl
ATOM      2  S   UNL     1      12.987  11.829  24.441  0.00  0.00    -0.075 S 
ATOM     19  C   UNL     1      13.014  11.422  22.778  0.00  0.00    +0.038 A 
ATOM     23  C   UNL     1      11.824  11.725  22.152  0.00  0.00    +0.019 A 
ATOM     24  C   UNL     1      10.878  12.297  23.051  0.00  0.00    +0.028 A 
ATOM     25  C   UNL     1      11.381  12.412  24.329  0.00  0.00    +0.079 A 
ENDBRANCH  15  19
ENDBRANCH   8  13
BRANCH   5  11
ATOM     11  C   UNL     1      14.480   7.428  19.382  0.00  0.00    +0.120 C 
BRANCH  11  14
ATOM     14  C   UNL     1      14.158   8.264  18.173  0.00  0.00    -0.033 A 
ATOM     17  C   UNL     1      14.230   7.703  16.898  0.00  0.00    +0.008 A 
ATOM     18  C   UNL     1      13.788   9.600  18.328  0.00  0.00    +0.008 A 
ATOM     20  C   UNL     1      13.931   8.479  15.778  0.00  0.00    +0.046 A 
ATOM     21  C   UNL     1      13.489  10.375  17.209  0.00  0.00    +0.046 A 
ATOM     22  C   UNL     1      13.561   9.815  15.933  0.00  0.00    +0.120 A 
BRANCH  22   4
ATOM      4  O   UNL     1      13.268  10.571  14.839  0.00  0.00    -0.495 OA
ATOM     26  C   UNL     1      13.933  11.828  14.722  0.00  0.00    +0.277 C 
ENDBRANCH  22   4
ENDBRANCH  11  14
ENDBRANCH   5  11
TORSDOF 5
ENDMDL
MODEL 7
REMARK VINA RESULT:      -6.1     30.713     32.625
REMARK  Name = 75367149
REMARK  6 active torsions:
REMARK  status: ('A' for Active; 'I' for Inactive)
REMARK    1  A    between atoms: O_4  and  C_22
REMARK    2  A    between atoms: O_4  and  C_26
REMARK    3  A    between atoms: N_5  and  C_11
REMARK    4  A    between atoms: C_8  and  C_13
REMARK    5  A    between atoms: C_11  and  C_14
REMARK    6  A    between atoms: C_15  and  C_19
REMARK                            x       y       z     vdW  Elec       q    Type
REMARK                         _______ _______ _______ _____ _____    ______ ____
ROOT
ATOM      3  O   UNL     1     -14.915   8.730  33.972  0.00  0.00    -0.377 OA
ATOM      5  N   UNL     1     -14.363   5.942  33.621  0.00  0.00    -0.285 NA
ATOM      8  C   UNL     1     -15.720   6.498  33.384  0.00  0.00    +0.149 C 
ATOM      9  C   UNL     1     -13.631   6.780  34.586  0.00  0.00    +0.113 C 
ATOM     10  C   UNL     1     -15.621   7.983  32.983  0.00  0.00    +0.186 C 
ATOM     12  C   UNL     1     -13.587   8.230  34.121  0.00  0.00    +0.175 C 
ENDROOT
BRANCH   8  13
ATOM      6  N   UNL     1     -16.126   5.773  31.005  0.00  0.00    -0.340 N 
ATOM      7  N   UNL     1     -17.591   5.028  32.499  0.00  0.00    -0.238 NA
ATOM     13  C   UNL     1     -16.507   5.750  32.318  0.00  0.00    +0.127 A 
ATOM     15  C   UNL     1     -17.023   5.017  30.305  0.00  0.00    +0.073 A 
ATOM     16  C   UNL     1     -17.917   4.569  31.247  0.00  0.00    +0.139 A 
ATOM     27  H   UNL     1     -15.323   6.256  30.625  0.00  0.00    +0.167 HD
BRANCH  15  19
ATOM      1 CL   UNL     1     -15.995   2.948  25.343  0.00  0.00    -0.076 Cl
ATOM      2  S   UNL     1     -16.164   3.432  28.268  0.00  0.00    -0.075 S 
ATOM     19  C   UNL     1     -16.955   4.809  28.909  0.00  0.00    +0.038 A 
ATOM     23  C   UNL     1     -17.473   5.615  27.920  0.00  0.00    +0.019 A 
ATOM     24  C   UNL     1     -17.217   5.096  26.618  0.00  0.00    +0.028 A 
ATOM     25  C   UNL     1     -16.514   3.912  26.662  0.00  0.00    +0.079 A 
ENDBRANCH  15  19
ENDBRANCH   8  13
BRANCH   5  11
ATOM     11  C   UNL     1     -14.410   4.563  34.121  0.00  0.00    +0.120 C 
BRANCH  11  14
ATOM     14  C   UNL     1     -14.200   3.560  33.019  0.00  0.00    -0.033 A 
ATOM     17  C   UNL     1     -13.291   3.828  31.996  0.00  0.00    +0.008 A 
ATOM     18  C   UNL     1     -14.914   2.362  33.022  0.00  0.00    +0.008 A 
ATOM     20  C   UNL     1     -13.097   2.898  30.975  0.00  0.00    +0.046 A 
ATOM     21  C   UNL     1     -14.720   1.431  32.002  0.00  0.00    +0.046 A 
ATOM     22  C   UNL     1     -13.811   1.699  30.977  0.00  0.00    +0.120 A 
BRANCH  22   4
ATOM      4  O   UNL     1     -13.620   0.791  29.982  0.00  0.00    -0.495 OA
ATOM     26  C   UNL     1     -14.258  -0.476  30.127  0.00  0.00    +0.277 C 
ENDBRANCH  22   4
ENDBRANCH  11  14
ENDBRANCH   5  11
TORSDOF 5
ENDMDL
MODEL 8
REMARK VINA RESULT:      -6.1     26.877     28.537
REMARK  Name = 75367149
REMARK  6 active torsions:
REMARK  status: ('A' for Active; 'I' for Inactive)
REMARK    1  A    between atoms: O_4  and  C_22
REMARK    2  A    between atoms: O_4  and  C_26
REMARK    3  A    between atoms: N_5  and  C_11
REMARK    4  A    between atoms: C_8  and  C_13
REMARK    5  A    between atoms: C_11  and  C_14
REMARK    6  A    between atoms: C_15  and  C_19
REMARK                            x       y       z     vdW  Elec       q    Type
REMARK                         _______ _______ _______ _____ _____    ______ ____
ROOT
ATOM      3  O   UNL     1      -3.845 -15.439  15.098  0.00  0.00    -0.377 OA
ATOM      5  N   UNL     1      -4.527 -12.762  15.855  0.00  0.00    -0.285 NA
ATOM      8  C   UNL     1      -3.340 -13.048  15.009  0.00  0.00    +0.149 C 
ATOM      9  C   UNL     1      -4.848 -13.930  16.693  0.00  0.00    +0.113 C 
ATOM     10  C   UNL     1      -3.556 -14.353  14.218  0.00  0.00    +0.186 C 
ATOM     12  C   UNL     1      -5.036 -15.175  15.838  0.00  0.00    +0.175 C 
ENDROOT
BRANCH   8  13
ATOM      6  N   UNL     1      -3.889 -11.536  13.069  0.00  0.00    -0.340 N 
ATOM      7  N   UNL     1      -1.889 -11.234  13.985  0.00  0.00    -0.238 NA
ATOM     13  C   UNL     1      -3.003 -11.930  14.034  0.00  0.00    +0.127 A 
ATOM     15  C   UNL     1      -3.302 -10.526  12.361  0.00  0.00    +0.073 A 
ATOM     16  C   UNL     1      -2.069 -10.358  12.944  0.00  0.00    +0.139 A 
ATOM     27  H   UNL     1      -4.812 -11.920  12.913  0.00  0.00    +0.167 HD
BRANCH  15  19
ATOM      1 CL   UNL     1      -6.918  -8.048   9.084  0.00  0.00    -0.076 Cl
ATOM      2  S   UNL     1      -5.576  -9.439  11.339  0.00  0.00    -0.075 S 
ATOM     19  C   UNL     1      -3.919  -9.865  11.276  0.00  0.00    +0.038 A 
ATOM     23  C   UNL     1      -3.332  -9.487  10.087  0.00  0.00    +0.019 A 
ATOM     24  C   UNL     1      -4.256  -8.839   9.218  0.00  0.00    +0.028 A 
ATOM     25  C   UNL     1      -5.513  -8.746   9.774  0.00  0.00    +0.079 A 
ENDBRANCH  15  19
ENDBRANCH   8  13
BRANCH   5  11
ATOM     11  C   UNL     1      -4.322 -11.593  16.717  0.00  0.00    +0.120 C 
BRANCH  11  14
ATOM     14  C   UNL     1      -5.600 -10.828  16.938  0.00  0.00    -0.033 A 
ATOM     17  C   UNL     1      -6.245 -10.222  15.859  0.00  0.00    +0.008 A 
ATOM     18  C   UNL     1      -6.139 -10.726  18.220  0.00  0.00    +0.008 A 
ATOM     20  C   UNL     1      -7.429  -9.513  16.064  0.00  0.00    +0.046 A 
ATOM     21  C   UNL     1      -7.323 -10.018  18.425  0.00  0.00    +0.046 A 
ATOM     22  C   UNL     1      -7.968  -9.411  17.347  0.00  0.00    +0.120 A 
BRANCH  22   4
ATOM      4  O   UNL     1      -9.124  -8.721  17.546  0.00  0.00    -0.495 OA
ATOM     26  C   UNL     1      -9.619  -7.954  16.450  0.00  0.00    +0.277 C 
ENDBRANCH  22   4
ENDBRANCH  11  14
ENDBRANCH   5  11
TORSDOF 5
ENDMDL
MODEL 9
REMARK VINA RESULT:      -6.1     28.426     30.055
REMARK  Name = 75367149
REMARK  6 active torsions:
REMARK  status: ('A' for Active; 'I' for Inactive)
REMARK    1  A    between atoms: O_4  and  C_22
REMARK    2  A    between atoms: O_4  and  C_26
REMARK    3  A    between atoms: N_5  and  C_11
REMARK    4  A    between atoms: C_8  and  C_13
REMARK    5  A    between atoms: C_11  and  C_14
REMARK    6  A    between atoms: C_15  and  C_19
REMARK                            x       y       z     vdW  Elec       q    Type
REMARK                         _______ _______ _______ _____ _____    ______ ____
ROOT
ATOM      3  O   UNL     1     -10.105 -14.564  19.661  0.00  0.00    -0.377 OA
ATOM      5  N   UNL     1     -10.192 -11.768  19.050  0.00  0.00    -0.285 NA
ATOM      8  C   UNL     1      -9.009 -12.379  19.708  0.00  0.00    +0.149 C 
ATOM      9  C   UNL     1     -11.403 -12.553  19.348  0.00  0.00    +0.113 C 
ATOM     10  C   UNL     1      -8.904 -13.869  19.328  0.00  0.00    +0.186 C 
ATOM     12  C   UNL     1     -11.213 -14.011  18.953  0.00  0.00    +0.175 C 
ENDROOT
BRANCH   8  13
ATOM      6  N   UNL     1      -7.130 -11.813  18.126  0.00  0.00    -0.340 N 
ATOM      7  N   UNL     1      -6.974 -10.929  20.157  0.00  0.00    -0.238 NA
ATOM     13  C   UNL     1      -7.697 -11.689  19.365  0.00  0.00    +0.127 A 
ATOM     15  C   UNL     1      -5.973 -11.087  18.130  0.00  0.00    +0.073 A 
ATOM     16  C   UNL     1      -5.898 -10.552  19.394  0.00  0.00    +0.139 A 
ATOM     27  H   UNL     1      -7.504 -12.342  17.349  0.00  0.00    +0.167 HD
BRANCH  15  19
ATOM      1 CL   UNL     1      -3.953 -10.403  13.090  0.00  0.00    -0.076 Cl
ATOM      2  S   UNL     1      -5.729 -10.641  15.458  0.00  0.00    -0.075 S 
ATOM     19  C   UNL     1      -5.109 -10.979  17.018  0.00  0.00    +0.038 A 
ATOM     23  C   UNL     1      -3.738 -11.117  17.011  0.00  0.00    +0.019 A 
ATOM     24  C   UNL     1      -3.189 -10.943  15.708  0.00  0.00    +0.028 A 
ATOM     25  C   UNL     1      -4.162 -10.678  14.768  0.00  0.00    +0.079 A 
ENDBRANCH  15  19
ENDBRANCH   8  13
BRANCH   5  11
ATOM     11  C   UNL     1     -10.404 -10.379  19.474  0.00  0.00    +0.120 C 
BRANCH  11  14
ATOM     14  C   UNL     1     -10.554  -9.450  18.299  0.00  0.00    -0.033 A 
ATOM     17  C   UNL     1      -9.422  -8.946  17.659  0.00  0.00    +0.008 A 
ATOM     18  C   UNL     1     -11.825  -9.095  17.849  0.00  0.00    +0.008 A 
ATOM     20  C   UNL     1      -9.561  -8.086  16.570  0.00  0.00    +0.046 A 
ATOM     21  C   UNL     1     -11.965  -8.236  16.760  0.00  0.00    +0.046 A 
ATOM     22  C   UNL     1     -10.833  -7.730  16.120  0.00  0.00    +0.120 A 
BRANCH  22   4
ATOM      4  O   UNL     1     -10.969  -6.892  15.056  0.00  0.00    -0.495 OA
ATOM     26  C   UNL     1     -12.125  -6.057  15.031  0.00  0.00    +0.277 C 
ENDBRANCH  22   4
ENDBRANCH  11  14
ENDBRANCH   5  11
TORSDOF 5
ENDMDL
MODEL 10
REMARK VINA RESULT:      -6.0     27.313     28.915
REMARK  Name = 75367149
REMARK  6 active torsions:
REMARK  status: ('A' for Active; 'I' for Inactive)
REMARK    1  A    between atoms: O_4  and  C_22
REMARK    2  A    between atoms: O_4  and  C_26
REMARK    3  A    between atoms: N_5  and  C_11
REMARK    4  A    between atoms: C_8  and  C_13
REMARK    5  A    between atoms: C_11  and  C_14
REMARK    6  A    between atoms: C_15  and  C_19
REMARK                            x       y       z     vdW  Elec       q    Type
REMARK                         _______ _______ _______ _____ _____    ______ ____
ROOT
ATOM      3  O   UNL     1      -7.394 -14.275  17.651  0.00  0.00    -0.377 OA
ATOM      5  N   UNL     1      -7.488 -11.495  16.973  0.00  0.00    -0.285 NA
ATOM      8  C   UNL     1      -6.207 -12.164  17.318  0.00  0.00    +0.149 C 
ATOM      9  C   UNL     1      -8.616 -12.193  17.612  0.00  0.00    +0.113 C 
ATOM     10  C   UNL     1      -6.289 -13.667  16.984  0.00  0.00    +0.186 C 
ATOM     12  C   UNL     1      -8.619 -13.670  17.240  0.00  0.00    +0.175 C 
ENDROOT
BRANCH   8  13
ATOM      6  N   UNL     1      -4.957 -11.447  15.250  0.00  0.00    -0.340 N 
ATOM      7  N   UNL     1      -3.899 -11.116  17.175  0.00  0.00    -0.238 NA
ATOM     13  C   UNL     1      -4.998 -11.567  16.613  0.00  0.00    +0.127 A 
ATOM     15  C   UNL     1      -3.756 -10.883  14.925  0.00  0.00    +0.073 A 
ATOM     16  C   UNL     1      -3.121 -10.688  16.129  0.00  0.00    +0.139 A 
ATOM     27  H   UNL     1      -5.686 -11.720  14.605  0.00  0.00    +0.167 HD
BRANCH  15  19
ATOM      1 CL   UNL     1      -3.711  -9.757   9.570  0.00  0.00    -0.076 Cl
ATOM      2  S   UNL     1      -4.511 -10.347  12.368  0.00  0.00    -0.075 S 
ATOM     19  C   UNL     1      -3.351 -10.605  13.601  0.00  0.00    +0.038 A 
ATOM     23  C   UNL     1      -2.061 -10.503  13.128  0.00  0.00    +0.019 A 
ATOM     24  C   UNL     1      -2.025 -10.210  11.734  0.00  0.00    +0.028 A 
ATOM     25  C   UNL     1      -3.288 -10.098  11.195  0.00  0.00    +0.079 A 
ENDBRANCH  15  19
ENDBRANCH   8  13
BRANCH   5  11
ATOM     11  C   UNL     1      -7.502 -10.085  17.382  0.00  0.00    +0.120 C 
BRANCH  11  14
ATOM     14  C   UNL     1      -8.573  -9.305  16.667  0.00  0.00    -0.033 A 
ATOM     17  C   UNL     1      -9.332  -8.363  17.363  0.00  0.00    +0.008 A 
ATOM     18  C   UNL     1      -8.806  -9.524  15.310  0.00  0.00    +0.008 A 
ATOM     20  C   UNL     1     -10.324  -7.641  16.700  0.00  0.00    +0.046 A 
ATOM     21  C   UNL     1      -9.797  -8.801  14.647  0.00  0.00    +0.046 A 
ATOM     22  C   UNL     1     -10.557  -7.860  15.341  0.00  0.00    +0.120 A 
BRANCH  22   4
ATOM      4  O   UNL     1     -11.524  -7.153  14.695  0.00  0.00    -0.495 OA
ATOM     26  C   UNL     1     -11.712  -5.796  15.092  0.00  0.00    +0.277 C 
ENDBRANCH  22   4
ENDBRANCH  11  14
ENDBRANCH   5  11
TORSDOF 5
ENDMDL
