MODEL 1
REMARK VINA RESULT:      -7.5      0.000      0.000
REMARK  Name = 40780285
REMARK  9 active torsions:
REMARK  status: ('A' for Active; 'I' for Inactive)
REMARK    1  A    between atoms: O_2  and  C_21
REMARK    2  A    between atoms: O_2  and  C_34
REMARK    3  A    between atoms: N_5  and  C_12
REMARK    4  A    between atoms: N_5  and  C_22
REMARK    5  A    between atoms: N_7  and  C_32
REMARK    6  A    between atoms: C_10  and  C_18
REMARK    7  A    between atoms: C_14  and  C_21
REMARK    8  A    between atoms: C_22  and  C_27
REMARK    9  A    between atoms: C_27  and  C_32
REMARK                            x       y       z     vdW  Elec       q    Type
REMARK                         _______ _______ _______ _____ _____    ______ ____
ROOT
ATOM      4  N   UNL     1      15.317   8.845  19.582  0.00  0.00    -0.274 NA
ATOM      6  N   UNL     1      18.586   8.357  21.366  0.00  0.00    -0.356 N 
ATOM      9  C   UNL     1      16.265   9.193  20.686  0.00  0.00    +0.106 C 
ATOM     10  C   UNL     1      14.151   9.763  19.542  0.00  0.00    +0.090 C 
ATOM     11  C   UNL     1      16.765  10.639  20.537  0.00  0.00    +0.044 C 
ATOM     12  C   UNL     1      15.588  11.615  20.541  0.00  0.00    +0.057 C 
ATOM     13  C   UNL     1      14.606  11.238  19.432  0.00  0.00    +0.042 C 
ATOM     14  C   UNL     1      14.973   7.397  19.549  0.00  0.00    +0.172 C 
ATOM     15  C   UNL     1      17.399   8.214  20.703  0.00  0.00    +0.038 A 
ATOM     16  C   UNL     1      16.215   6.497  19.323  0.00  0.00    +0.068 C 
ATOM     17  C   UNL     1      17.390   6.973  20.105  0.00  0.00    -0.016 A 
ATOM     19  C   UNL     1      18.635   6.346  20.381  0.00  0.00    +0.003 A 
ATOM     20  C   UNL     1      19.367   7.237  21.174  0.00  0.00    +0.047 A 
ATOM     25  C   UNL     1      19.214   5.107  20.042  0.00  0.00    +0.010 A 
ATOM     26  C   UNL     1      20.654   6.945  21.642  0.00  0.00    +0.026 A 
ATOM     28  C   UNL     1      20.500   4.804  20.503  0.00  0.00    +0.001 A 
ATOM     31  C   UNL     1      21.207   5.711  21.290  0.00  0.00    +0.002 A 
ATOM     39  H   UNL     1      18.860   9.161  21.914  0.00  0.00    +0.166 HD
ENDROOT
BRANCH  10  18
ATOM      1  F   UNL     1      10.568   8.759  15.282  0.00  0.00    -0.205 F 
ATOM     18  C   UNL     1      13.183   9.492  18.392  0.00  0.00    -0.030 A 
ATOM     23  C   UNL     1      11.921   8.961  18.654  0.00  0.00    +0.008 A 
ATOM     24  C   UNL     1      13.562   9.776  17.080  0.00  0.00    +0.008 A 
ATOM     29  C   UNL     1      11.037   8.713  17.604  0.00  0.00    +0.038 A 
ATOM     30  C   UNL     1      12.679   9.529  16.030  0.00  0.00    +0.038 A 
ATOM     33  C   UNL     1      11.416   8.997  16.291  0.00  0.00    +0.123 A 
ENDBRANCH  10  18
BRANCH  14  21
ATOM      3  O   UNL     1      14.674   7.184  21.933  0.00  0.00    -0.249 OA
ATOM     21  C   UNL     1      14.244   7.001  20.802  0.00  0.00    +0.325 C 
BRANCH  21   2
ATOM      2  O   UNL     1      13.056   6.419  20.472  0.00  0.00    -0.467 OA
ATOM     34  C   UNL     1      11.990   6.627  21.404  0.00  0.00    +0.280 C 
ENDBRANCH  21   2
ENDBRANCH  14  21
BRANCH  12   5
ATOM      5  N   UNL     1      16.071  12.984  20.365  0.00  0.00    -0.313 NA
ATOM     38  H   UNL     1      16.969  13.096  20.837  0.00  0.00    +0.122 HD
BRANCH   5  22
ATOM     22  C   UNL     1      15.127  13.939  20.924  0.00  0.00    +0.083 C 
BRANCH  22  27
ATOM     27  C   UNL     1      14.878  13.638  22.401  0.00  0.00    +0.037 C 
BRANCH  27  32
ATOM     32  C   UNL     1      13.385  13.696  22.731  0.00  0.00    +0.124 C 
BRANCH  32   7
ATOM      7  N   UNL     1      12.712  12.366  22.506  0.00  0.00    -0.337 N 
ATOM      8  N   UNL     1      11.327  10.850  21.658  0.00  0.00    -0.244 NA
ATOM     35  C   UNL     1      12.998  11.195  23.150  0.00  0.00    +0.106 A 
ATOM     36  C   UNL     1      11.703  12.109  21.619  0.00  0.00    +0.199 A 
ATOM     37  C   UNL     1      12.131  10.274  22.609  0.00  0.00    +0.130 A 
ENDBRANCH  32   7
ENDBRANCH  27  32
ENDBRANCH  22  27
ENDBRANCH   5  22
ENDBRANCH  12   5
TORSDOF 8
ENDMDL
MODEL 2
REMARK VINA RESULT:      -7.1     13.555     17.273
REMARK  Name = 40780285
REMARK  9 active torsions:
REMARK  status: ('A' for Active; 'I' for Inactive)
REMARK    1  A    between atoms: O_2  and  C_21
REMARK    2  A    between atoms: O_2  and  C_34
REMARK    3  A    between atoms: N_5  and  C_12
REMARK    4  A    between atoms: N_5  and  C_22
REMARK    5  A    between atoms: N_7  and  C_32
REMARK    6  A    between atoms: C_10  and  C_18
REMARK    7  A    between atoms: C_14  and  C_21
REMARK    8  A    between atoms: C_22  and  C_27
REMARK    9  A    between atoms: C_27  and  C_32
REMARK                            x       y       z     vdW  Elec       q    Type
REMARK                         _______ _______ _______ _____ _____    ______ ____
ROOT
ATOM      4  N   UNL     1      11.895   6.689   5.608  0.00  0.00    -0.274 NA
ATOM      6  N   UNL     1      14.604   7.680   3.201  0.00  0.00    -0.356 N 
ATOM      9  C   UNL     1      12.330   7.160   4.256  0.00  0.00    +0.106 C 
ATOM     10  C   UNL     1      10.443   6.381   5.647  0.00  0.00    +0.090 C 
ATOM     11  C   UNL     1      12.009   6.105   3.185  0.00  0.00    +0.044 C 
ATOM     12  C   UNL     1      10.511   5.800   3.166  0.00  0.00    +0.057 C 
ATOM     13  C   UNL     1      10.063   5.351   4.557  0.00  0.00    +0.042 C 
ATOM     14  C   UNL     1      12.377   7.568   6.709  0.00  0.00    +0.172 C 
ATOM     15  C   UNL     1      13.792   7.492   4.285  0.00  0.00    +0.038 A 
ATOM     16  C   UNL     1      13.924   7.640   6.777  0.00  0.00    +0.068 C 
ATOM     17  C   UNL     1      14.531   7.733   5.421  0.00  0.00    -0.016 A 
ATOM     19  C   UNL     1      15.858   8.045   5.020  0.00  0.00    +0.003 A 
ATOM     20  C   UNL     1      15.876   8.003   3.622  0.00  0.00    +0.047 A 
ATOM     25  C   UNL     1      17.049   8.364   5.704  0.00  0.00    +0.010 A 
ATOM     26  C   UNL     1      17.032   8.265   2.875  0.00  0.00    +0.026 A 
ATOM     28  C   UNL     1      18.210   8.626   4.969  0.00  0.00    +0.001 A 
ATOM     31  C   UNL     1      18.200   8.577   3.577  0.00  0.00    +0.002 A 
ATOM     39  H   UNL     1      14.323   7.593   2.234  0.00  0.00    +0.166 HD
ENDROOT
BRANCH  10  18
ATOM      1  F   UNL     1       8.644   4.358  10.612  0.00  0.00    -0.205 F 
ATOM     18  C   UNL     1       9.958   5.835   6.988  0.00  0.00    -0.030 A 
ATOM     23  C   UNL     1      10.154   4.491   7.305  0.00  0.00    +0.008 A 
ATOM     24  C   UNL     1       9.317   6.679   7.894  0.00  0.00    +0.008 A 
ATOM     29  C   UNL     1       9.710   3.991   8.529  0.00  0.00    +0.038 A 
ATOM     30  C   UNL     1       8.874   6.181   9.119  0.00  0.00    +0.038 A 
ATOM     33  C   UNL     1       9.070   4.837   9.436  0.00  0.00    +0.123 A 
ENDBRANCH  10  18
BRANCH  14  21
ATOM      3  O   UNL     1      10.777   9.198   5.932  0.00  0.00    -0.249 OA
ATOM     21  C   UNL     1      11.781   8.942   6.585  0.00  0.00    +0.325 C 
BRANCH  21   2
ATOM      2  O   UNL     1      12.527   9.829   7.303  0.00  0.00    -0.467 OA
ATOM     34  C   UNL     1      11.791  10.669   8.198  0.00  0.00    +0.280 C 
ENDBRANCH  21   2
ENDBRANCH  14  21
BRANCH  12   5
ATOM      5  N   UNL     1      10.220   4.772   2.168  0.00  0.00    -0.313 NA
ATOM     38  H   UNL     1      10.802   3.952   2.338  0.00  0.00    +0.122 HD
BRANCH   5  22
ATOM     22  C   UNL     1      10.490   5.266   0.826  0.00  0.00    +0.083 C 
BRANCH  22  27
ATOM     27  C   UNL     1      10.956   4.126  -0.075  0.00  0.00    +0.037 C 
BRANCH  27  32
ATOM     32  C   UNL     1      12.287   4.467  -0.751  0.00  0.00    +0.124 C 
BRANCH  32   7
ATOM      7  N   UNL     1      13.464   4.083   0.109  0.00  0.00    -0.337 N 
ATOM      8  N   UNL     1      14.617   3.158   1.768  0.00  0.00    -0.244 NA
ATOM     35  C   UNL     1      14.767   4.438  -0.096  0.00  0.00    +0.106 A 
ATOM     36  C   UNL     1      13.423   3.315   1.240  0.00  0.00    +0.199 A 
ATOM     37  C   UNL     1      15.459   3.856   0.939  0.00  0.00    +0.130 A 
ENDBRANCH  32   7
ENDBRANCH  27  32
ENDBRANCH  22  27
ENDBRANCH   5  22
ENDBRANCH  12   5
TORSDOF 8
ENDMDL
MODEL 3
REMARK VINA RESULT:      -7.1      2.782      7.413
REMARK  Name = 40780285
REMARK  9 active torsions:
REMARK  status: ('A' for Active; 'I' for Inactive)
REMARK    1  A    between atoms: O_2  and  C_21
REMARK    2  A    between atoms: O_2  and  C_34
REMARK    3  A    between atoms: N_5  and  C_12
REMARK    4  A    between atoms: N_5  and  C_22
REMARK    5  A    between atoms: N_7  and  C_32
REMARK    6  A    between atoms: C_10  and  C_18
REMARK    7  A    between atoms: C_14  and  C_21
REMARK    8  A    between atoms: C_22  and  C_27
REMARK    9  A    between atoms: C_27  and  C_32
REMARK                            x       y       z     vdW  Elec       q    Type
REMARK                         _______ _______ _______ _____ _____    ______ ____
ROOT
ATOM      4  N   UNL     1      13.843  10.564  20.775  0.00  0.00    -0.274 NA
ATOM      6  N   UNL     1      11.337  13.348  21.061  0.00  0.00    -0.356 N 
ATOM      9  C   UNL     1      12.816  11.463  20.161  0.00  0.00    +0.106 C 
ATOM     10  C   UNL     1      14.537   9.738  19.755  0.00  0.00    +0.090 C 
ATOM     11  C   UNL     1      13.458  12.387  19.115  0.00  0.00    +0.044 C 
ATOM     12  C   UNL     1      14.143  11.565  18.023  0.00  0.00    +0.057 C 
ATOM     13  C   UNL     1      15.168  10.625  18.656  0.00  0.00    +0.042 C 
ATOM     14  C   UNL     1      13.322   9.805  21.945  0.00  0.00    +0.172 C 
ATOM     15  C   UNL     1      12.121  12.242  21.237  0.00  0.00    +0.038 A 
ATOM     16  C   UNL     1      12.850  10.734  23.093  0.00  0.00    +0.068 C 
ATOM     17  C   UNL     1      12.109  11.917  22.575  0.00  0.00    -0.016 A 
ATOM     19  C   UNL     1      11.316  12.882  23.251  0.00  0.00    +0.003 A 
ATOM     20  C   UNL     1      10.844  13.769  22.278  0.00  0.00    +0.047 A 
ATOM     25  C   UNL     1      10.945  13.091  24.595  0.00  0.00    +0.010 A 
ATOM     26  C   UNL     1      10.020  14.858  22.587  0.00  0.00    +0.026 A 
ATOM     28  C   UNL     1      10.122  14.176  24.917  0.00  0.00    +0.001 A 
ATOM     31  C   UNL     1       9.668  15.044  23.927  0.00  0.00    +0.002 A 
ATOM     39  H   UNL     1      11.144  13.798  20.177  0.00  0.00    +0.166 HD
ENDROOT
BRANCH  10  18
ATOM      1  F   UNL     1      18.630   6.444  21.850  0.00  0.00    -0.205 F 
ATOM     18  C   UNL     1      15.643   8.849  20.321  0.00  0.00    -0.030 A 
ATOM     23  C   UNL     1      16.717   9.420  21.002  0.00  0.00    +0.008 A 
ATOM     24  C   UNL     1      15.578   7.465  20.155  0.00  0.00    +0.008 A 
ATOM     29  C   UNL     1      17.727   8.608  21.519  0.00  0.00    +0.038 A 
ATOM     30  C   UNL     1      16.586   6.653  20.672  0.00  0.00    +0.038 A 
ATOM     33  C   UNL     1      17.661   7.224  21.353  0.00  0.00    +0.123 A 
ENDBRANCH  10  18
BRANCH  14  21
ATOM      3  O   UNL     1      11.182   9.239  20.989  0.00  0.00    -0.249 OA
ATOM     21  C   UNL     1      12.222   8.874  21.521  0.00  0.00    +0.325 C 
BRANCH  21   2
ATOM      2  O   UNL     1      12.570   7.591  21.821  0.00  0.00    -0.467 OA
ATOM     34  C   UNL     1      11.682   6.581  21.331  0.00  0.00    +0.280 C 
ENDBRANCH  21   2
ENDBRANCH  14  21
BRANCH  12   5
ATOM      5  N   UNL     1      14.779  12.452  17.050  0.00  0.00    -0.313 NA
ATOM     38  H   UNL     1      14.122  13.179  16.765  0.00  0.00    +0.122 HD
BRANCH   5  22
ATOM     22  C   UNL     1      15.196  11.710  15.871  0.00  0.00    +0.083 C 
BRANCH  22  27
ATOM     27  C   UNL     1      14.012  10.950  15.276  0.00  0.00    +0.037 C 
BRANCH  27  32
ATOM     32  C   UNL     1      14.231   9.437  15.360  0.00  0.00    +0.124 C 
BRANCH  32   7
ATOM      7  N   UNL     1      13.242   8.780  16.289  0.00  0.00    -0.337 N 
ATOM      8  N   UNL     1      12.405   7.340  17.759  0.00  0.00    -0.244 NA
ATOM     35  C   UNL     1      11.959   9.186  16.522  0.00  0.00    +0.106 A 
ATOM     36  C   UNL     1      13.465   7.669  17.054  0.00  0.00    +0.199 A 
ATOM     37  C   UNL     1      11.463   8.282  17.432  0.00  0.00    +0.130 A 
ENDBRANCH  32   7
ENDBRANCH  27  32
ENDBRANCH  22  27
ENDBRANCH   5  22
ENDBRANCH  12   5
TORSDOF 8
ENDMDL
MODEL 4
REMARK VINA RESULT:      -6.8      1.765      3.098
REMARK  Name = 40780285
REMARK  9 active torsions:
REMARK  status: ('A' for Active; 'I' for Inactive)
REMARK    1  A    between atoms: O_2  and  C_21
REMARK    2  A    between atoms: O_2  and  C_34
REMARK    3  A    between atoms: N_5  and  C_12
REMARK    4  A    between atoms: N_5  and  C_22
REMARK    5  A    between atoms: N_7  and  C_32
REMARK    6  A    between atoms: C_10  and  C_18
REMARK    7  A    between atoms: C_14  and  C_21
REMARK    8  A    between atoms: C_22  and  C_27
REMARK    9  A    between atoms: C_27  and  C_32
REMARK                            x       y       z     vdW  Elec       q    Type
REMARK                         _______ _______ _______ _____ _____    ______ ____
ROOT
ATOM      4  N   UNL     1      15.268   8.849  19.570  0.00  0.00    -0.274 NA
ATOM      6  N   UNL     1      18.568   8.393  21.307  0.00  0.00    -0.356 N 
ATOM      9  C   UNL     1      16.236   9.219  20.650  0.00  0.00    +0.106 C 
ATOM     10  C   UNL     1      14.103   9.767  19.531  0.00  0.00    +0.090 C 
ATOM     11  C   UNL     1      16.734  10.660  20.462  0.00  0.00    +0.044 C 
ATOM     12  C   UNL     1      15.559  11.638  20.466  0.00  0.00    +0.057 C 
ATOM     13  C   UNL     1      14.558  11.239  19.383  0.00  0.00    +0.042 C 
ATOM     14  C   UNL     1      14.923   7.401  19.573  0.00  0.00    +0.172 C 
ATOM     15  C   UNL     1      17.369   8.238  20.668  0.00  0.00    +0.038 A 
ATOM     16  C   UNL     1      16.159   6.495  19.345  0.00  0.00    +0.068 C 
ATOM     17  C   UNL     1      17.348   6.985  20.096  0.00  0.00    -0.016 A 
ATOM     19  C   UNL     1      18.597   6.362  20.364  0.00  0.00    +0.003 A 
ATOM     20  C   UNL     1      19.343   7.268  21.124  0.00  0.00    +0.047 A 
ATOM     25  C   UNL     1      19.169   5.115  20.041  0.00  0.00    +0.010 A 
ATOM     26  C   UNL     1      20.638   6.984  21.576  0.00  0.00    +0.026 A 
ATOM     28  C   UNL     1      20.462   4.820  20.485  0.00  0.00    +0.001 A 
ATOM     31  C   UNL     1      21.184   5.742  21.240  0.00  0.00    +0.002 A 
ATOM     39  H   UNL     1      18.852   9.207  21.833  0.00  0.00    +0.166 HD
ENDROOT
BRANCH  10  18
ATOM      1  F   UNL     1      10.444   8.682  15.357  0.00  0.00    -0.205 F 
ATOM     18  C   UNL     1      13.115   9.474  18.404  0.00  0.00    -0.030 A 
ATOM     23  C   UNL     1      13.478   9.713  17.079  0.00  0.00    +0.008 A 
ATOM     24  C   UNL     1      11.849   8.969  18.700  0.00  0.00    +0.008 A 
ATOM     29  C   UNL     1      12.577   9.445  16.049  0.00  0.00    +0.038 A 
ATOM     30  C   UNL     1      10.947   8.701  17.671  0.00  0.00    +0.038 A 
ATOM     33  C   UNL     1      11.310   8.940  16.345  0.00  0.00    +0.123 A 
ENDBRANCH  10  18
BRANCH  14  21
ATOM      3  O   UNL     1      14.652   7.264  21.966  0.00  0.00    -0.249 OA
ATOM     21  C   UNL     1      14.215   7.032  20.846  0.00  0.00    +0.325 C 
BRANCH  21   2
ATOM      2  O   UNL     1      13.037   6.412  20.549  0.00  0.00    -0.467 OA
ATOM     34  C   UNL     1      11.960   6.671  21.456  0.00  0.00    +0.280 C 
ENDBRANCH  21   2
ENDBRANCH  14  21
BRANCH  12   5
ATOM      5  N   UNL     1      16.041  13.002  20.254  0.00  0.00    -0.313 NA
ATOM     38  H   UNL     1      15.468  13.464  19.547  0.00  0.00    +0.122 HD
BRANCH   5  22
ATOM     22  C   UNL     1      17.424  12.996  19.804  0.00  0.00    +0.083 C 
BRANCH  22  27
ATOM     27  C   UNL     1      17.559  13.767  18.492  0.00  0.00    +0.037 C 
BRANCH  27  32
ATOM     32  C   UNL     1      16.193  14.236  17.987  0.00  0.00    +0.124 C 
BRANCH  32   7
ATOM      7  N   UNL     1      15.731  13.433  16.798  0.00  0.00    -0.337 N 
ATOM      8  N   UNL     1      14.409  12.684  15.177  0.00  0.00    -0.244 NA
ATOM     35  C   UNL     1      16.456  12.486  16.130  0.00  0.00    +0.106 A 
ATOM     36  C   UNL     1      14.510  13.517  16.189  0.00  0.00    +0.199 A 
ATOM     37  C   UNL     1      15.619  12.039  15.135  0.00  0.00    +0.130 A 
ENDBRANCH  32   7
ENDBRANCH  27  32
ENDBRANCH  22  27
ENDBRANCH   5  22
ENDBRANCH  12   5
TORSDOF 8
ENDMDL
MODEL 5
REMARK VINA RESULT:      -6.7      3.531      7.615
REMARK  Name = 40780285
REMARK  9 active torsions:
REMARK  status: ('A' for Active; 'I' for Inactive)
REMARK    1  A    between atoms: O_2  and  C_21
REMARK    2  A    between atoms: O_2  and  C_34
REMARK    3  A    between atoms: N_5  and  C_12
REMARK    4  A    between atoms: N_5  and  C_22
REMARK    5  A    between atoms: N_7  and  C_32
REMARK    6  A    between atoms: C_10  and  C_18
REMARK    7  A    between atoms: C_14  and  C_21
REMARK    8  A    between atoms: C_22  and  C_27
REMARK    9  A    between atoms: C_27  and  C_32
REMARK                            x       y       z     vdW  Elec       q    Type
REMARK                         _______ _______ _______ _____ _____    ______ ____
ROOT
ATOM      4  N   UNL     1      13.669   9.977  20.463  0.00  0.00    -0.274 NA
ATOM      6  N   UNL     1      11.300  12.745  21.377  0.00  0.00    -0.356 N 
ATOM      9  C   UNL     1      12.591  10.946  20.093  0.00  0.00    +0.106 C 
ATOM     10  C   UNL     1      14.195   9.253  19.278  0.00  0.00    +0.090 C 
ATOM     11  C   UNL     1      13.108  11.967  19.067  0.00  0.00    +0.044 C 
ATOM     12  C   UNL     1      13.613  11.255  17.812  0.00  0.00    +0.057 C 
ATOM     13  C   UNL     1      14.691  10.243  18.196  0.00  0.00    +0.042 C 
ATOM     14  C   UNL     1      13.295   9.106  21.611  0.00  0.00    +0.172 C 
ATOM     15  C   UNL     1      12.072  11.617  21.329  0.00  0.00    +0.038 A 
ATOM     16  C   UNL     1      13.010   9.915  22.902  0.00  0.00    +0.068 C 
ATOM     17  C   UNL     1      12.235  11.154  22.615  0.00  0.00    -0.016 A 
ATOM     19  C   UNL     1      11.568  12.053  23.490  0.00  0.00    +0.003 A 
ATOM     20  C   UNL     1      10.991  13.042  22.688  0.00  0.00    +0.047 A 
ATOM     25  C   UNL     1      11.392  12.125  24.887  0.00  0.00    +0.010 A 
ATOM     26  C   UNL     1      10.245  14.102  23.218  0.00  0.00    +0.026 A 
ATOM     28  C   UNL     1      10.649  13.180  25.429  0.00  0.00    +0.001 A 
ATOM     31  C   UNL     1      10.086  14.152  24.606  0.00  0.00    +0.002 A 
ATOM     39  H   UNL     1      10.999  13.286  20.579  0.00  0.00    +0.166 HD
ENDROOT
BRANCH  10  18
ATOM      1  F   UNL     1      18.450   5.711  20.434  0.00  0.00    -0.205 F 
ATOM     18  C   UNL     1      15.344   8.296  19.590  0.00  0.00    -0.030 A 
ATOM     23  C   UNL     1      16.386   8.707  20.421  0.00  0.00    +0.008 A 
ATOM     24  C   UNL     1      15.350   7.013  19.044  0.00  0.00    +0.008 A 
ATOM     29  C   UNL     1      17.436   7.834  20.706  0.00  0.00    +0.038 A 
ATOM     30  C   UNL     1      16.399   6.139  19.329  0.00  0.00    +0.038 A 
ATOM     33  C   UNL     1      17.442   6.550  20.160  0.00  0.00    +0.123 A 
ENDBRANCH  10  18
BRANCH  14  21
ATOM      3  O   UNL     1      11.062   8.663  20.814  0.00  0.00    -0.249 OA
ATOM     21  C   UNL     1      12.122   8.237  21.252  0.00  0.00    +0.325 C 
BRANCH  21   2
ATOM      2  O   UNL     1      12.433   6.931  21.491  0.00  0.00    -0.467 OA
ATOM     34  C   UNL     1      11.326   6.025  21.490  0.00  0.00    +0.280 C 
ENDBRANCH  21   2
ENDBRANCH  14  21
BRANCH  12   5
ATOM      5  N   UNL     1      14.132  12.231  16.855  0.00  0.00    -0.313 NA
ATOM     38  H   UNL     1      13.502  12.300  16.056  0.00  0.00    +0.122 HD
BRANCH   5  22
ATOM     22  C   UNL     1      15.450  11.837  16.380  0.00  0.00    +0.083 C 
BRANCH  22  27
ATOM     27  C   UNL     1      15.747  12.495  15.034  0.00  0.00    +0.037 C 
BRANCH  27  32
ATOM     32  C   UNL     1      14.614  13.438  14.620  0.00  0.00    +0.124 C 
BRANCH  32   7
ATOM      7  N   UNL     1      13.932  12.971  13.360  0.00  0.00    -0.337 N 
ATOM      8  N   UNL     1      12.375  12.102  12.035  0.00  0.00    -0.244 NA
ATOM     35  C   UNL     1      14.438  13.038  12.093  0.00  0.00    +0.106 A 
ATOM     36  C   UNL     1      12.691  12.402  13.275  0.00  0.00    +0.199 A 
ATOM     37  C   UNL     1      13.459  12.497  11.293  0.00  0.00    +0.130 A 
ENDBRANCH  32   7
ENDBRANCH  27  32
ENDBRANCH  22  27
ENDBRANCH   5  22
ENDBRANCH  12   5
TORSDOF 8
ENDMDL
MODEL 6
REMARK VINA RESULT:      -6.7      3.644      7.827
REMARK  Name = 40780285
REMARK  9 active torsions:
REMARK  status: ('A' for Active; 'I' for Inactive)
REMARK    1  A    between atoms: O_2  and  C_21
REMARK    2  A    between atoms: O_2  and  C_34
REMARK    3  A    between atoms: N_5  and  C_12
REMARK    4  A    between atoms: N_5  and  C_22
REMARK    5  A    between atoms: N_7  and  C_32
REMARK    6  A    between atoms: C_10  and  C_18
REMARK    7  A    between atoms: C_14  and  C_21
REMARK    8  A    between atoms: C_22  and  C_27
REMARK    9  A    between atoms: C_27  and  C_32
REMARK                            x       y       z     vdW  Elec       q    Type
REMARK                         _______ _______ _______ _____ _____    ______ ____
ROOT
ATOM      4  N   UNL     1      13.644  10.028  20.417  0.00  0.00    -0.274 NA
ATOM      6  N   UNL     1      11.301  12.815  21.345  0.00  0.00    -0.356 N 
ATOM      9  C   UNL     1      12.587  11.021  20.048  0.00  0.00    +0.106 C 
ATOM     10  C   UNL     1      14.179   9.320  19.228  0.00  0.00    +0.090 C 
ATOM     11  C   UNL     1      13.137  12.053  19.051  0.00  0.00    +0.044 C 
ATOM     12  C   UNL     1      13.654  11.358  17.791  0.00  0.00    +0.057 C 
ATOM     13  C   UNL     1      14.710  10.322  18.175  0.00  0.00    +0.042 C 
ATOM     14  C   UNL     1      13.236   9.142  21.542  0.00  0.00    +0.172 C 
ATOM     15  C   UNL     1      12.057  11.677  21.287  0.00  0.00    +0.038 A 
ATOM     16  C   UNL     1      12.941   9.930  22.843  0.00  0.00    +0.068 C 
ATOM     17  C   UNL     1      12.191  11.187  22.567  0.00  0.00    -0.016 A 
ATOM     19  C   UNL     1      11.522  12.079  23.448  0.00  0.00    +0.003 A 
ATOM     20  C   UNL     1      10.973  13.092  22.655  0.00  0.00    +0.047 A 
ATOM     25  C   UNL     1      11.322  12.127  24.842  0.00  0.00    +0.010 A 
ATOM     26  C   UNL     1      10.234  14.153  23.193  0.00  0.00    +0.026 A 
ATOM     28  C   UNL     1      10.586  13.182  25.392  0.00  0.00    +0.001 A 
ATOM     31  C   UNL     1      10.052  14.179  24.578  0.00  0.00    +0.002 A 
ATOM     39  H   UNL     1      11.022  13.376  20.552  0.00  0.00    +0.166 HD
ENDROOT
BRANCH  10  18
ATOM      1  F   UNL     1      18.359   5.691  20.391  0.00  0.00    -0.205 F 
ATOM     18  C   UNL     1      15.308   8.340  19.542  0.00  0.00    -0.030 A 
ATOM     23  C   UNL     1      15.299   7.063  18.981  0.00  0.00    +0.008 A 
ATOM     24  C   UNL     1      16.347   8.722  20.390  0.00  0.00    +0.008 A 
ATOM     29  C   UNL     1      16.329   6.168  19.268  0.00  0.00    +0.038 A 
ATOM     30  C   UNL     1      17.378   7.828  20.677  0.00  0.00    +0.038 A 
ATOM     33  C   UNL     1      17.369   6.550  20.116  0.00  0.00    +0.123 A 
ENDBRANCH  10  18
BRANCH  14  21
ATOM      3  O   UNL     1      10.963   8.751  20.840  0.00  0.00    -0.249 OA
ATOM     21  C   UNL     1      12.057   8.298  21.147  0.00  0.00    +0.325 C 
BRANCH  21   2
ATOM      2  O   UNL     1      12.407   6.981  21.187  0.00  0.00    -0.467 OA
ATOM     34  C   UNL     1      11.343   6.071  21.488  0.00  0.00    +0.280 C 
ENDBRANCH  21   2
ENDBRANCH  14  21
BRANCH  12   5
ATOM      5  N   UNL     1      14.204  12.344  16.863  0.00  0.00    -0.313 NA
ATOM     38  H   UNL     1      13.650  13.200  16.901  0.00  0.00    +0.122 HD
BRANCH   5  22
ATOM     22  C   UNL     1      14.186  11.836  15.500  0.00  0.00    +0.083 C 
BRANCH  22  27
ATOM     27  C   UNL     1      15.378  12.380  14.715  0.00  0.00    +0.037 C 
BRANCH  27  32
ATOM     32  C   UNL     1      16.699  11.870  15.296  0.00  0.00    +0.124 C 
BRANCH  32   7
ATOM      7  N   UNL     1      17.824  11.972  14.298  0.00  0.00    -0.337 N 
ATOM      8  N   UNL     1      19.860  11.787  13.429  0.00  0.00    -0.244 NA
ATOM     35  C   UNL     1      17.743  12.493  13.037  0.00  0.00    +0.106 A 
ATOM     36  C   UNL     1      19.115  11.561  14.488  0.00  0.00    +0.199 A 
ATOM     37  C   UNL     1      19.011  12.367  12.521  0.00  0.00    +0.130 A 
ENDBRANCH  32   7
ENDBRANCH  27  32
ENDBRANCH  22  27
ENDBRANCH   5  22
ENDBRANCH  12   5
TORSDOF 8
ENDMDL
MODEL 7
REMARK VINA RESULT:      -6.5      1.574      2.929
REMARK  Name = 40780285
REMARK  9 active torsions:
REMARK  status: ('A' for Active; 'I' for Inactive)
REMARK    1  A    between atoms: O_2  and  C_21
REMARK    2  A    between atoms: O_2  and  C_34
REMARK    3  A    between atoms: N_5  and  C_12
REMARK    4  A    between atoms: N_5  and  C_22
REMARK    5  A    between atoms: N_7  and  C_32
REMARK    6  A    between atoms: C_10  and  C_18
REMARK    7  A    between atoms: C_14  and  C_21
REMARK    8  A    between atoms: C_22  and  C_27
REMARK    9  A    between atoms: C_27  and  C_32
REMARK                            x       y       z     vdW  Elec       q    Type
REMARK                         _______ _______ _______ _____ _____    ______ ____
ROOT
ATOM      4  N   UNL     1      15.334   8.847  19.593  0.00  0.00    -0.274 NA
ATOM      6  N   UNL     1      18.613   8.354  21.358  0.00  0.00    -0.356 N 
ATOM      9  C   UNL     1      16.290   9.196  20.689  0.00  0.00    +0.106 C 
ATOM     10  C   UNL     1      14.171   9.769  19.556  0.00  0.00    +0.090 C 
ATOM     11  C   UNL     1      16.795  10.639  20.530  0.00  0.00    +0.044 C 
ATOM     12  C   UNL     1      15.622  11.620  20.537  0.00  0.00    +0.057 C 
ATOM     13  C   UNL     1      14.631  11.241  19.437  0.00  0.00    +0.042 C 
ATOM     14  C   UNL     1      14.985   7.399  19.569  0.00  0.00    +0.172 C 
ATOM     15  C   UNL     1      17.421   8.212  20.704  0.00  0.00    +0.038 A 
ATOM     16  C   UNL     1      16.221   6.494  19.340  0.00  0.00    +0.068 C 
ATOM     17  C   UNL     1      17.403   6.969  20.111  0.00  0.00    -0.016 A 
ATOM     19  C   UNL     1      18.647   6.338  20.383  0.00  0.00    +0.003 A 
ATOM     20  C   UNL     1      19.388   7.230  21.166  0.00  0.00    +0.047 A 
ATOM     25  C   UNL     1      19.219   5.095  20.046  0.00  0.00    +0.010 A 
ATOM     26  C   UNL     1      20.676   6.936  21.627  0.00  0.00    +0.026 A 
ATOM     28  C   UNL     1      20.507   4.790  20.500  0.00  0.00    +0.001 A 
ATOM     31  C   UNL     1      21.223   5.697  21.278  0.00  0.00    +0.002 A 
ATOM     39  H   UNL     1      18.893   9.159  21.901  0.00  0.00    +0.166 HD
ENDROOT
BRANCH  10  18
ATOM      1  F   UNL     1      10.557   8.758  15.324  0.00  0.00    -0.205 F 
ATOM     18  C   UNL     1      13.195   9.496  18.414  0.00  0.00    -0.030 A 
ATOM     23  C   UNL     1      11.927   8.982  18.687  0.00  0.00    +0.008 A 
ATOM     24  C   UNL     1      13.572   9.760  17.097  0.00  0.00    +0.008 A 
ATOM     29  C   UNL     1      11.036   8.733  17.644  0.00  0.00    +0.038 A 
ATOM     30  C   UNL     1      12.681   9.511  16.053  0.00  0.00    +0.038 A 
ATOM     33  C   UNL     1      11.413   8.997  16.326  0.00  0.00    +0.123 A 
ENDBRANCH  10  18
BRANCH  14  21
ATOM      3  O   UNL     1      14.695   7.210  21.956  0.00  0.00    -0.249 OA
ATOM     21  C   UNL     1      14.262   7.012  20.829  0.00  0.00    +0.325 C 
BRANCH  21   2
ATOM      2  O   UNL     1      13.076   6.419  20.509  0.00  0.00    -0.467 OA
ATOM     34  C   UNL     1      12.007   6.647  21.432  0.00  0.00    +0.280 C 
ENDBRANCH  21   2
ENDBRANCH  14  21
BRANCH  12   5
ATOM      5  N   UNL     1      16.109  12.986  20.352  0.00  0.00    -0.313 NA
ATOM     38  H   UNL     1      17.129  12.988  20.328  0.00  0.00    +0.122 HD
BRANCH   5  22
ATOM     22  C   UNL     1      15.665  13.843  21.440  0.00  0.00    +0.083 C 
BRANCH  22  27
ATOM     27  C   UNL     1      16.763  13.974  22.494  0.00  0.00    +0.037 C 
BRANCH  27  32
ATOM     32  C   UNL     1      18.152  13.921  21.852  0.00  0.00    +0.124 C 
BRANCH  32   7
ATOM      7  N   UNL     1      18.967  12.768  22.380  0.00  0.00    -0.337 N 
ATOM      8  N   UNL     1      20.619  11.293  22.555  0.00  0.00    -0.244 NA
ATOM     35  C   UNL     1      18.656  11.982  23.454  0.00  0.00    +0.106 A 
ATOM     36  C   UNL     1      20.154  12.316  21.873  0.00  0.00    +0.199 A 
ATOM     37  C   UNL     1      19.690  11.080  23.542  0.00  0.00    +0.130 A 
ENDBRANCH  32   7
ENDBRANCH  27  32
ENDBRANCH  22  27
ENDBRANCH   5  22
ENDBRANCH  12   5
TORSDOF 8
ENDMDL
MODEL 8
REMARK VINA RESULT:      -6.2     14.198     17.521
REMARK  Name = 40780285
REMARK  9 active torsions:
REMARK  status: ('A' for Active; 'I' for Inactive)
REMARK    1  A    between atoms: O_2  and  C_21
REMARK    2  A    between atoms: O_2  and  C_34
REMARK    3  A    between atoms: N_5  and  C_12
REMARK    4  A    between atoms: N_5  and  C_22
REMARK    5  A    between atoms: N_7  and  C_32
REMARK    6  A    between atoms: C_10  and  C_18
REMARK    7  A    between atoms: C_14  and  C_21
REMARK    8  A    between atoms: C_22  and  C_27
REMARK    9  A    between atoms: C_27  and  C_32
REMARK                            x       y       z     vdW  Elec       q    Type
REMARK                         _______ _______ _______ _____ _____    ______ ____
ROOT
ATOM      4  N   UNL     1      13.188   7.564   5.006  0.00  0.00    -0.274 NA
ATOM      6  N   UNL     1      16.497   7.912   3.263  0.00  0.00    -0.356 N 
ATOM      9  C   UNL     1      13.990   7.796   3.764  0.00  0.00    +0.106 C 
ATOM     10  C   UNL     1      11.739   7.428   4.713  0.00  0.00    +0.090 C 
ATOM     11  C   UNL     1      13.783   6.650   2.762  0.00  0.00    +0.044 C 
ATOM     12  C   UNL     1      12.303   6.514   2.401  0.00  0.00    +0.057 C 
ATOM     13  C   UNL     1      11.483   6.309   3.674  0.00  0.00    +0.042 C 
ATOM     14  C   UNL     1      13.518   8.523   6.096  0.00  0.00    +0.172 C 
ATOM     15  C   UNL     1      15.436   7.964   4.123  0.00  0.00    +0.038 A 
ATOM     16  C   UNL     1      14.999   8.430   6.540  0.00  0.00    +0.068 C 
ATOM     17  C   UNL     1      15.915   8.271   5.377  0.00  0.00    -0.016 A 
ATOM     19  C   UNL     1      17.329   8.375   5.290  0.00  0.00    +0.003 A 
ATOM     20  C   UNL     1      17.668   8.145   3.952  0.00  0.00    +0.047 A 
ATOM     25  C   UNL     1      18.359   8.648   6.212  0.00  0.00    +0.010 A 
ATOM     26  C   UNL     1      18.991   8.172   3.495  0.00  0.00    +0.026 A 
ATOM     28  C   UNL     1      19.685   8.678   5.768  0.00  0.00    +0.001 A 
ATOM     31  C   UNL     1      19.994   8.443   4.430  0.00  0.00    +0.002 A 
ATOM     39  H   UNL     1      16.442   7.728   2.271  0.00  0.00    +0.166 HD
ENDROOT
BRANCH  10  18
ATOM      1  F   UNL     1       8.559   6.304   9.253  0.00  0.00    -0.205 F 
ATOM     18  C   UNL     1      10.880   7.124   5.939  0.00  0.00    -0.030 A 
ATOM     23  C   UNL     1      11.172   6.019   6.738  0.00  0.00    +0.008 A 
ATOM     24  C   UNL     1       9.804   7.952   6.259  0.00  0.00    +0.008 A 
ATOM     29  C   UNL     1      10.388   5.741   7.858  0.00  0.00    +0.038 A 
ATOM     30  C   UNL     1       9.020   7.675   7.378  0.00  0.00    +0.038 A 
ATOM     33  C   UNL     1       9.312   6.570   8.178  0.00  0.00    +0.123 A 
ENDBRANCH  10  18
BRANCH  14  21
ATOM      3  O   UNL     1      12.111  10.241   5.155  0.00  0.00    -0.249 OA
ATOM     21  C   UNL     1      13.167   9.926   5.686  0.00  0.00    +0.325 C 
BRANCH  21   2
ATOM      2  O   UNL     1      14.198  10.762   5.997  0.00  0.00    -0.467 OA
ATOM     34  C   UNL     1      14.504  11.754   5.012  0.00  0.00    +0.280 C 
ENDBRANCH  21   2
ENDBRANCH  14  21
BRANCH  12   5
ATOM      5  N   UNL     1      12.112   5.401   1.473  0.00  0.00    -0.313 NA
ATOM     38  H   UNL     1      11.233   5.520   0.969  0.00  0.00    +0.122 HD
BRANCH   5  22
ATOM     22  C   UNL     1      12.074   4.134   2.188  0.00  0.00    +0.083 C 
BRANCH  22  27
ATOM     27  C   UNL     1      12.913   3.088   1.459  0.00  0.00    +0.037 C 
BRANCH  27  32
ATOM     32  C   UNL     1      14.401   3.448   1.501  0.00  0.00    +0.124 C 
BRANCH  32   7
ATOM      7  N   UNL     1      14.912   3.868   0.147  0.00  0.00    -0.337 N 
ATOM      8  N   UNL     1      14.913   4.337  -2.024  0.00  0.00    -0.244 NA
ATOM     35  C   UNL     1      16.189   4.250  -0.153  0.00  0.00    +0.106 A 
ATOM     36  C   UNL     1      14.183   3.936  -1.008  0.00  0.00    +0.199 A 
ATOM     37  C   UNL     1      16.165   4.535  -1.498  0.00  0.00    +0.130 A 
ENDBRANCH  32   7
ENDBRANCH  27  32
ENDBRANCH  22  27
ENDBRANCH   5  22
ENDBRANCH  12   5
TORSDOF 8
ENDMDL
MODEL 9
REMARK VINA RESULT:      -6.2     29.290     32.645
REMARK  Name = 40780285
REMARK  9 active torsions:
REMARK  status: ('A' for Active; 'I' for Inactive)
REMARK    1  A    between atoms: O_2  and  C_21
REMARK    2  A    between atoms: O_2  and  C_34
REMARK    3  A    between atoms: N_5  and  C_12
REMARK    4  A    between atoms: N_5  and  C_22
REMARK    5  A    between atoms: N_7  and  C_32
REMARK    6  A    between atoms: C_10  and  C_18
REMARK    7  A    between atoms: C_14  and  C_21
REMARK    8  A    between atoms: C_22  and  C_27
REMARK    9  A    between atoms: C_27  and  C_32
REMARK                            x       y       z     vdW  Elec       q    Type
REMARK                         _______ _______ _______ _____ _____    ______ ____
ROOT
ATOM      4  N   UNL     1      -9.739 -10.433  18.419  0.00  0.00    -0.274 NA
ATOM      6  N   UNL     1     -13.376  -9.624  18.898  0.00  0.00    -0.356 N 
ATOM      9  C   UNL     1     -11.049  -9.950  17.882  0.00  0.00    +0.106 C 
ATOM     10  C   UNL     1      -8.641 -10.268  17.434  0.00  0.00    +0.090 C 
ATOM     11  C   UNL     1     -10.956  -8.472  17.473  0.00  0.00    +0.044 C 
ATOM     12  C   UNL     1      -9.864  -8.274  16.422  0.00  0.00    +0.057 C 
ATOM     13  C   UNL     1      -8.534  -8.798  16.961  0.00  0.00    +0.042 C 
ATOM     14  C   UNL     1      -9.829 -11.787  19.033  0.00  0.00    +0.172 C 
ATOM     15  C   UNL     1     -12.125 -10.176  18.900  0.00  0.00    +0.038 A 
ATOM     16  C   UNL     1     -10.807 -11.830  20.234  0.00  0.00    +0.068 C 
ATOM     17  C   UNL     1     -12.042 -11.042  19.968  0.00  0.00    -0.016 A 
ATOM     19  C   UNL     1     -13.277 -10.991  20.669  0.00  0.00    +0.003 A 
ATOM     20  C   UNL     1     -14.096 -10.092  19.976  0.00  0.00    +0.047 A 
ATOM     25  C   UNL     1     -13.787 -11.621  21.821  0.00  0.00    +0.010 A 
ATOM     26  C   UNL     1     -15.401  -9.794  20.385  0.00  0.00    +0.026 A 
ATOM     28  C   UNL     1     -15.090 -11.331  22.241  0.00  0.00    +0.001 A 
ATOM     31  C   UNL     1     -15.882 -10.431  21.532  0.00  0.00    +0.002 A 
ATOM     39  H   UNL     1     -13.727  -8.968  18.214  0.00  0.00    +0.166 HD
ENDROOT
BRANCH  10  18
ATOM      1  F   UNL     1      -3.556 -11.819  19.365  0.00  0.00    -0.205 F 
ATOM     18  C   UNL     1      -7.267 -10.686  17.955  0.00  0.00    -0.030 A 
ATOM     23  C   UNL     1      -6.287 -11.122  17.064  0.00  0.00    +0.008 A 
ATOM     24  C   UNL     1      -6.995 -10.634  19.322  0.00  0.00    +0.008 A 
ATOM     29  C   UNL     1      -5.033 -11.504  17.540  0.00  0.00    +0.038 A 
ATOM     30  C   UNL     1      -5.741 -11.016  19.798  0.00  0.00    +0.038 A 
ATOM     33  C   UNL     1      -4.760 -11.452  18.907  0.00  0.00    +0.123 A 
ENDBRANCH  10  18
BRANCH  14  21
ATOM      3  O   UNL     1     -10.914 -12.575  17.028  0.00  0.00    -0.249 OA
ATOM     21  C   UNL     1     -10.205 -12.810  17.998  0.00  0.00    +0.325 C 
BRANCH  21   2
ATOM      2  O   UNL     1      -9.638 -14.008  18.315  0.00  0.00    -0.467 OA
ATOM     34  C   UNL     1      -8.291 -14.189  17.865  0.00  0.00    +0.280 C 
ENDBRANCH  21   2
ENDBRANCH  14  21
BRANCH  12   5
ATOM      5  N   UNL     1      -9.761  -6.861  16.064  0.00  0.00    -0.313 NA
ATOM     38  H   UNL     1      -9.150  -6.381  16.726  0.00  0.00    +0.122 HD
BRANCH   5  22
ATOM     22  C   UNL     1     -11.069  -6.226  16.088  0.00  0.00    +0.083 C 
BRANCH  22  27
ATOM     27  C   UNL     1     -11.586  -6.020  14.666  0.00  0.00    +0.037 C 
BRANCH  27  32
ATOM     32  C   UNL     1     -13.112  -5.900  14.646  0.00  0.00    +0.124 C 
BRANCH  32   7
ATOM      7  N   UNL     1     -13.576  -4.845  13.676  0.00  0.00    -0.337 N 
ATOM      8  N   UNL     1     -13.482  -3.181  12.207  0.00  0.00    -0.244 NA
ATOM     35  C   UNL     1     -14.871  -4.569  13.338  0.00  0.00    +0.106 A 
ATOM     36  C   UNL     1     -12.779  -3.986  12.972  0.00  0.00    +0.199 A 
ATOM     37  C   UNL     1     -14.788  -3.540  12.430  0.00  0.00    +0.130 A 
ENDBRANCH  32   7
ENDBRANCH  27  32
ENDBRANCH  22  27
ENDBRANCH   5  22
ENDBRANCH  12   5
TORSDOF 8
ENDMDL
MODEL 10
REMARK VINA RESULT:      -6.2     28.322     30.799
REMARK  Name = 40780285
REMARK  9 active torsions:
REMARK  status: ('A' for Active; 'I' for Inactive)
REMARK    1  A    between atoms: O_2  and  C_21
REMARK    2  A    between atoms: O_2  and  C_34
REMARK    3  A    between atoms: N_5  and  C_12
REMARK    4  A    between atoms: N_5  and  C_22
REMARK    5  A    between atoms: N_7  and  C_32
REMARK    6  A    between atoms: C_10  and  C_18
REMARK    7  A    between atoms: C_14  and  C_21
REMARK    8  A    between atoms: C_22  and  C_27
REMARK    9  A    between atoms: C_27  and  C_32
REMARK                            x       y       z     vdW  Elec       q    Type
REMARK                         _______ _______ _______ _____ _____    ______ ____
ROOT
ATOM      4  N   UNL     1      -7.998  -9.538  15.089  0.00  0.00    -0.274 NA
ATOM      6  N   UNL     1      -4.548 -10.754  14.232  0.00  0.00    -0.356 N 
ATOM      9  C   UNL     1      -6.840 -10.454  15.332  0.00  0.00    +0.106 C 
ATOM     10  C   UNL     1      -9.039  -9.669  16.138  0.00  0.00    +0.090 C 
ATOM     11  C   UNL     1      -6.209 -10.178  16.706  0.00  0.00    +0.044 C 
ATOM     12  C   UNL     1      -7.247 -10.352  17.816  0.00  0.00    +0.057 C 
ATOM     13  C   UNL     1      -8.442  -9.439  17.547  0.00  0.00    +0.042 C 
ATOM     14  C   UNL     1      -8.507  -9.608  13.691  0.00  0.00    +0.172 C 
ATOM     15  C   UNL     1      -5.840 -10.307  14.225  0.00  0.00    +0.038 A 
ATOM     16  C   UNL     1      -7.435  -9.202  12.648  0.00  0.00    +0.068 C 
ATOM     17  C   UNL     1      -6.096  -9.758  12.988  0.00  0.00    -0.016 A 
ATOM     19  C   UNL     1      -4.903  -9.837  12.220  0.00  0.00    +0.003 A 
ATOM     20  C   UNL     1      -3.948 -10.466  13.025  0.00  0.00    +0.047 A 
ATOM     25  C   UNL     1      -4.539  -9.443  10.917  0.00  0.00    +0.010 A 
ATOM     26  C   UNL     1      -2.642 -10.717  12.587  0.00  0.00    +0.026 A 
ATOM     28  C   UNL     1      -3.236  -9.687  10.468  0.00  0.00    +0.001 A 
ATOM     31  C   UNL     1      -2.304 -10.314  11.292  0.00  0.00    +0.002 A 
ATOM     39  H   UNL     1      -4.093 -11.223  15.003  0.00  0.00    +0.166 HD
ENDROOT
BRANCH  10  18
ATOM      1  F   UNL     1     -13.395  -6.114  15.528  0.00  0.00    -0.205 F 
ATOM     18  C   UNL     1     -10.215  -8.709  15.973  0.00  0.00    -0.030 A 
ATOM     23  C   UNL     1     -10.009  -7.332  16.061  0.00  0.00    +0.008 A 
ATOM     24  C   UNL     1     -11.496  -9.209  15.736  0.00  0.00    +0.008 A 
ATOM     29  C   UNL     1     -11.083  -6.455  15.910  0.00  0.00    +0.038 A 
ATOM     30  C   UNL     1     -12.570  -8.333  15.585  0.00  0.00    +0.038 A 
ATOM     33  C   UNL     1     -12.364  -6.956  15.673  0.00  0.00    +0.123 A 
ENDBRANCH  10  18
BRANCH  14  21
ATOM      3  O   UNL     1      -8.425 -12.015  13.572  0.00  0.00    -0.249 OA
ATOM     21  C   UNL     1      -9.050 -10.978  13.397  0.00  0.00    +0.325 C 
BRANCH  21   2
ATOM      2  O   UNL     1     -10.322 -10.870  12.918  0.00  0.00    -0.467 OA
ATOM     34  C   UNL     1     -11.182 -11.978  13.202  0.00  0.00    +0.280 C 
ENDBRANCH  21   2
ENDBRANCH  14  21
BRANCH  12   5
ATOM      5  N   UNL     1      -6.646 -10.055  19.116  0.00  0.00    -0.313 NA
ATOM     38  H   UNL     1      -5.782  -9.528  18.984  0.00  0.00    +0.122 HD
BRANCH   5  22
ATOM     22  C   UNL     1      -6.340 -11.283  19.834  0.00  0.00    +0.083 C 
BRANCH  22  27
ATOM     27  C   UNL     1      -7.045 -12.470  19.181  0.00  0.00    +0.037 C 
BRANCH  27  32
ATOM     32  C   UNL     1      -8.237 -12.933  20.021  0.00  0.00    +0.124 C 
BRANCH  32   7
ATOM      7  N   UNL     1      -9.530 -12.327  19.538  0.00  0.00    -0.337 N 
ATOM      8  N   UNL     1     -11.311 -11.001  19.470  0.00  0.00    -0.244 NA
ATOM     35  C   UNL     1     -10.232 -12.698  18.426  0.00  0.00    +0.106 A 
ATOM     36  C   UNL     1     -10.217 -11.305  20.132  0.00  0.00    +0.199 A 
ATOM     37  C   UNL     1     -11.326 -11.866  18.405  0.00  0.00    +0.130 A 
ENDBRANCH  32   7
ENDBRANCH  27  32
ENDBRANCH  22  27
ENDBRANCH   5  22
ENDBRANCH  12   5
TORSDOF 8
ENDMDL
