MODEL 1
REMARK VINA RESULT:      -6.9      0.000      0.000
REMARK  Name = 26743088
REMARK  10 active torsions:
REMARK  status: ('A' for Active; 'I' for Inactive)
REMARK    1  A    between atoms: S_1  and  C_21
REMARK    2  A    between atoms: S_1  and  C_27
REMARK    3  A    between atoms: N_5  and  C_17
REMARK    4  A    between atoms: N_5  and  C_19
REMARK    5  A    between atoms: C_7  and  C_12
REMARK    6  A    between atoms: C_8  and  C_13
REMARK    7  A    between atoms: C_12  and  C_15
REMARK    8  A    between atoms: C_13  and  C_14
REMARK    9  A    between atoms: C_17  and  C_20
REMARK   10  A    between atoms: C_18  and  C_21
REMARK                            x       y       z     vdW  Elec       q    Type
REMARK                         _______ _______ _______ _____ _____    ______ ____
ROOT
ATOM      4  N   UNL     1     -11.668   6.977  19.267  0.00  0.00    -0.316 NA
ATOM      7  C   UNL     1     -12.616   8.871  21.289  0.00  0.00    +0.004 C 
ATOM      8  C   UNL     1     -12.857   7.349  21.428  0.00  0.00    +0.012 C 
ATOM      9  C   UNL     1     -12.436   9.268  19.816  0.00  0.00    +0.019 C 
ATOM     10  C   UNL     1     -11.751   6.586  20.675  0.00  0.00    +0.085 C 
ATOM     11  C   UNL     1     -11.377   8.405  19.130  0.00  0.00    +0.081 C 
ATOM     33  H   UNL     1     -12.543   6.761  18.792  0.00  0.00    +0.122 HD
ENDROOT
BRANCH   7  12
ATOM     12  C   UNL     1     -13.701   9.720  21.951  0.00  0.00    +0.100 C 
BRANCH  12  15
ATOM      2  O   UNL     1     -12.142  11.429  22.578  0.00  0.00    -0.276 OA
ATOM      5  N   UNL     1     -13.779  10.889  24.131  0.00  0.00    -0.300 N 
ATOM     15  C   UNL     1     -13.126  10.758  22.900  0.00  0.00    +0.216 C 
ATOM     19  C   UNL     1     -14.940  10.083  24.490  0.00  0.00    +0.132 C 
BRANCH   5  17
ATOM     17  C   UNL     1     -13.345  11.842  25.150  0.00  0.00    +0.142 C 
BRANCH  17  20
ATOM     20  C   UNL     1     -12.553  11.180  26.238  0.00  0.00    -0.030 A 
ATOM     22  C   UNL     1     -13.088  11.069  27.522  0.00  0.00    +0.005 A 
ATOM     23  C   UNL     1     -11.281  10.674  25.968  0.00  0.00    +0.005 A 
ATOM     24  C   UNL     1     -12.352  10.453  28.535  0.00  0.00    +0.000 A 
ATOM     25  C   UNL     1     -10.545  10.058  26.980  0.00  0.00    +0.000 A 
ATOM     26  C   UNL     1     -11.081   9.949  28.264  0.00  0.00    +0.000 A 
ENDBRANCH  17  20
ENDBRANCH   5  17
ENDBRANCH  12  15
ENDBRANCH   7  12
BRANCH   8  13
ATOM     13  C   UNL     1     -14.246   6.895  20.959  0.00  0.00    +0.064 C 
BRANCH  13  14
ATOM      3  O   UNL     1     -15.921   4.032  22.359  0.00  0.00    -0.359 OA
ATOM      6  N   UNL     1     -15.638   4.901  21.313  0.00  0.00    -0.083 NA
ATOM     14  C   UNL     1     -14.780   5.788  21.823  0.00  0.00    +0.084 A 
ATOM     16  C   UNL     1     -14.487   5.533  23.173  0.00  0.00    +0.071 A 
ATOM     18  C   UNL     1     -15.230   4.419  23.462  0.00  0.00    +0.148 A 
BRANCH  18  21
ATOM     21  C   UNL     1     -15.414   3.604  24.669  0.00  0.00    +0.151 C 
BRANCH  21   1
ATOM      1  S   UNL     1     -16.687   4.268  25.800  0.00  0.00    -0.117 S 
BRANCH   1  27
ATOM     27  C   UNL     1     -16.459   3.219  27.227  0.00  0.00    +0.008 A 
ATOM     28  C   UNL     1     -16.726   1.852  27.139  0.00  0.00    +0.015 A 
ATOM     29  C   UNL     1     -16.014   3.765  28.431  0.00  0.00    +0.015 A 
ATOM     30  C   UNL     1     -16.547   1.033  28.253  0.00  0.00    +0.001 A 
ATOM     31  C   UNL     1     -15.836   2.946  29.546  0.00  0.00    +0.001 A 
ATOM     32  C   UNL     1     -16.103   1.580  29.457  0.00  0.00    +0.000 A 
ENDBRANCH   1  27
ENDBRANCH  21   1
ENDBRANCH  18  21
ENDBRANCH  13  14
ENDBRANCH   8  13
TORSDOF 9
ENDMDL
MODEL 2
REMARK VINA RESULT:      -6.9     27.350     30.157
REMARK  Name = 26743088
REMARK  10 active torsions:
REMARK  status: ('A' for Active; 'I' for Inactive)
REMARK    1  A    between atoms: S_1  and  C_21
REMARK    2  A    between atoms: S_1  and  C_27
REMARK    3  A    between atoms: N_5  and  C_17
REMARK    4  A    between atoms: N_5  and  C_19
REMARK    5  A    between atoms: C_7  and  C_12
REMARK    6  A    between atoms: C_8  and  C_13
REMARK    7  A    between atoms: C_12  and  C_15
REMARK    8  A    between atoms: C_13  and  C_14
REMARK    9  A    between atoms: C_17  and  C_20
REMARK   10  A    between atoms: C_18  and  C_21
REMARK                            x       y       z     vdW  Elec       q    Type
REMARK                         _______ _______ _______ _____ _____    ______ ____
ROOT
ATOM      4  N   UNL     1      12.444   7.168  17.508  0.00  0.00    -0.316 NA
ATOM      7  C   UNL     1      13.464   9.364  19.154  0.00  0.00    +0.004 C 
ATOM      8  C   UNL     1      14.390   8.232  18.649  0.00  0.00    +0.012 C 
ATOM      9  C   UNL     1      12.006   8.888  19.236  0.00  0.00    +0.019 C 
ATOM     10  C   UNL     1      13.817   7.648  17.344  0.00  0.00    +0.085 C 
ATOM     11  C   UNL     1      11.551   8.250  17.924  0.00  0.00    +0.081 C 
ATOM     33  H   UNL     1      12.416   6.419  18.197  0.00  0.00    +0.122 HD
ENDROOT
BRANCH   7  12
ATOM     12  C   UNL     1      13.914   9.968  20.484  0.00  0.00    +0.100 C 
BRANCH  12  15
ATOM      2  O   UNL     1      12.798   8.716  22.196  0.00  0.00    -0.276 OA
ATOM      5  N   UNL     1      12.057  10.885  21.839  0.00  0.00    -0.300 N 
ATOM     15  C   UNL     1      12.882   9.784  21.583  0.00  0.00    +0.216 C 
ATOM     19  C   UNL     1      12.173  12.137  21.100  0.00  0.00    +0.132 C 
BRANCH   5  17
ATOM     17  C   UNL     1      11.016  10.863  22.864  0.00  0.00    +0.142 C 
BRANCH  17  20
ATOM     20  C   UNL     1      11.246  11.904  23.920  0.00  0.00    -0.030 A 
ATOM     22  C   UNL     1      12.384  11.843  24.724  0.00  0.00    +0.005 A 
ATOM     23  C   UNL     1      10.321  12.933  24.099  0.00  0.00    +0.005 A 
ATOM     24  C   UNL     1      12.598  12.811  25.706  0.00  0.00    +0.000 A 
ATOM     25  C   UNL     1      10.535  13.901  25.080  0.00  0.00    +0.000 A 
ATOM     26  C   UNL     1      11.673  13.839  25.884  0.00  0.00    +0.000 A 
ENDBRANCH  17  20
ENDBRANCH   5  17
ENDBRANCH  12  15
ENDBRANCH   7  12
BRANCH   8  13
ATOM     13  C   UNL     1      14.633   7.122  19.681  0.00  0.00    +0.064 C 
BRANCH  13  14
ATOM      3  O   UNL     1      17.848   5.620  19.072  0.00  0.00    -0.359 OA
ATOM      6  N   UNL     1      16.498   5.791  18.792  0.00  0.00    -0.083 NA
ATOM     14  C   UNL     1      16.070   6.686  19.686  0.00  0.00    +0.084 A 
ATOM     16  C   UNL     1      17.095   7.112  20.548  0.00  0.00    +0.071 A 
ATOM     18  C   UNL     1      18.192   6.412  20.120  0.00  0.00    +0.148 A 
BRANCH  18  21
ATOM     21  C   UNL     1      19.594   6.354  20.551  0.00  0.00    +0.151 C 
BRANCH  21   1
ATOM      1  S   UNL     1      19.840   6.902  22.277  0.00  0.00    -0.117 S 
BRANCH   1  27
ATOM     27  C   UNL     1      21.203   5.861  22.776  0.00  0.00    +0.008 A 
ATOM     28  C   UNL     1      21.490   4.697  22.062  0.00  0.00    +0.015 A 
ATOM     29  C   UNL     1      21.981   6.211  23.880  0.00  0.00    +0.015 A 
ATOM     30  C   UNL     1      22.554   3.884  22.452  0.00  0.00    +0.001 A 
ATOM     31  C   UNL     1      23.045   5.397  24.270  0.00  0.00    +0.001 A 
ATOM     32  C   UNL     1      23.331   4.234  23.555  0.00  0.00    +0.000 A 
ENDBRANCH   1  27
ENDBRANCH  21   1
ENDBRANCH  18  21
ENDBRANCH  13  14
ENDBRANCH   8  13
TORSDOF 9
ENDMDL
MODEL 3
REMARK VINA RESULT:      -6.8     19.129     22.576
REMARK  Name = 26743088
REMARK  10 active torsions:
REMARK  status: ('A' for Active; 'I' for Inactive)
REMARK    1  A    between atoms: S_1  and  C_21
REMARK    2  A    between atoms: S_1  and  C_27
REMARK    3  A    between atoms: N_5  and  C_17
REMARK    4  A    between atoms: N_5  and  C_19
REMARK    5  A    between atoms: C_7  and  C_12
REMARK    6  A    between atoms: C_8  and  C_13
REMARK    7  A    between atoms: C_12  and  C_15
REMARK    8  A    between atoms: C_13  and  C_14
REMARK    9  A    between atoms: C_17  and  C_20
REMARK   10  A    between atoms: C_18  and  C_21
REMARK                            x       y       z     vdW  Elec       q    Type
REMARK                         _______ _______ _______ _____ _____    ______ ____
ROOT
ATOM      4  N   UNL     1      -4.563 -11.982  19.325  0.00  0.00    -0.316 NA
ATOM      7  C   UNL     1      -6.757 -10.646  17.921  0.00  0.00    +0.004 C 
ATOM      8  C   UNL     1      -5.540 -11.225  17.159  0.00  0.00    +0.012 C 
ATOM      9  C   UNL     1      -6.387 -10.307  19.373  0.00  0.00    +0.019 C 
ATOM     10  C   UNL     1      -4.938 -12.387  17.969  0.00  0.00    +0.085 C 
ATOM     11  C   UNL     1      -5.722 -11.493  20.071  0.00  0.00    +0.081 C 
ATOM     33  H   UNL     1      -3.850 -11.255  19.288  0.00  0.00    +0.122 HD
ENDROOT
BRANCH   7  12
ATOM     12  C   UNL     1      -7.389  -9.440  17.226  0.00  0.00    +0.100 C 
BRANCH  12  15
ATOM      2  O   UNL     1      -9.601  -9.543  18.143  0.00  0.00    -0.276 OA
ATOM      5  N   UNL     1      -9.422  -9.676  15.834  0.00  0.00    -0.300 N 
ATOM     15  C   UNL     1      -8.901  -9.556  17.127  0.00  0.00    +0.216 C 
ATOM     19  C   UNL     1      -8.575  -9.690  14.648  0.00  0.00    +0.132 C 
BRANCH   5  17
ATOM     17  C   UNL     1     -10.855  -9.797  15.575  0.00  0.00    +0.142 C 
BRANCH  17  20
ATOM     20  C   UNL     1     -11.483  -8.471  15.262  0.00  0.00    -0.030 A 
ATOM     22  C   UNL     1     -11.831  -7.601  16.297  0.00  0.00    +0.005 A 
ATOM     23  C   UNL     1     -11.720  -8.105  13.937  0.00  0.00    +0.005 A 
ATOM     24  C   UNL     1     -12.415  -6.368  16.006  0.00  0.00    +0.000 A 
ATOM     25  C   UNL     1     -12.304  -6.872  13.646  0.00  0.00    +0.000 A 
ATOM     26  C   UNL     1     -12.652  -6.005  14.681  0.00  0.00    +0.000 A 
ENDBRANCH  17  20
ENDBRANCH   5  17
ENDBRANCH  12  15
ENDBRANCH   7  12
BRANCH   8  13
ATOM     13  C   UNL     1      -4.466 -10.183  16.821  0.00  0.00    +0.064 C 
BRANCH  13  14
ATOM      3  O   UNL     1      -1.421 -11.327  15.279  0.00  0.00    -0.359 OA
ATOM      6  N   UNL     1      -2.122 -10.713  16.309  0.00  0.00    -0.083 NA
ATOM     14  C   UNL     1      -3.403 -10.762  15.933  0.00  0.00    +0.084 A 
ATOM     16  C   UNL     1      -3.570 -11.389  14.687  0.00  0.00    +0.071 A 
ATOM     18  C   UNL     1      -2.294 -11.725  14.318  0.00  0.00    +0.148 A 
BRANCH  18  21
ATOM     21  C   UNL     1      -1.717 -12.398  13.148  0.00  0.00    +0.151 C 
BRANCH  21   1
ATOM      1  S   UNL     1      -2.979 -13.044  11.994  0.00  0.00    -0.117 S 
BRANCH   1  27
ATOM     27  C   UNL     1      -3.296 -11.600  10.990  0.00  0.00    +0.008 A 
ATOM     28  C   UNL     1      -4.238 -11.657   9.963  0.00  0.00    +0.015 A 
ATOM     29  C   UNL     1      -2.600 -10.416  11.233  0.00  0.00    +0.015 A 
ATOM     30  C   UNL     1      -4.484 -10.530   9.179  0.00  0.00    +0.001 A 
ATOM     31  C   UNL     1      -2.846  -9.288  10.449  0.00  0.00    +0.001 A 
ATOM     32  C   UNL     1      -3.789  -9.346   9.423  0.00  0.00    +0.000 A 
ENDBRANCH   1  27
ENDBRANCH  21   1
ENDBRANCH  18  21
ENDBRANCH  13  14
ENDBRANCH   8  13
TORSDOF 9
ENDMDL
MODEL 4
REMARK VINA RESULT:      -6.7      3.564      5.682
REMARK  Name = 26743088
REMARK  10 active torsions:
REMARK  status: ('A' for Active; 'I' for Inactive)
REMARK    1  A    between atoms: S_1  and  C_21
REMARK    2  A    between atoms: S_1  and  C_27
REMARK    3  A    between atoms: N_5  and  C_17
REMARK    4  A    between atoms: N_5  and  C_19
REMARK    5  A    between atoms: C_7  and  C_12
REMARK    6  A    between atoms: C_8  and  C_13
REMARK    7  A    between atoms: C_12  and  C_15
REMARK    8  A    between atoms: C_13  and  C_14
REMARK    9  A    between atoms: C_17  and  C_20
REMARK   10  A    between atoms: C_18  and  C_21
REMARK                            x       y       z     vdW  Elec       q    Type
REMARK                         _______ _______ _______ _____ _____    ______ ____
ROOT
ATOM      4  N   UNL     1     -16.921   6.688  24.741  0.00  0.00    -0.316 NA
ATOM      7  C   UNL     1     -16.194   6.559  21.908  0.00  0.00    +0.004 C 
ATOM      8  C   UNL     1     -16.712   5.315  22.670  0.00  0.00    +0.012 C 
ATOM      9  C   UNL     1     -15.553   7.568  22.873  0.00  0.00    +0.019 C 
ATOM     10  C   UNL     1     -17.610   5.768  23.835  0.00  0.00    +0.085 C 
ATOM     11  C   UNL     1     -16.485   7.895  24.039  0.00  0.00    +0.081 C 
ATOM     33  H   UNL     1     -16.115   6.228  25.160  0.00  0.00    +0.122 HD
ENDROOT
BRANCH   7  12
ATOM     12  C   UNL     1     -15.238   6.216  20.766  0.00  0.00    +0.100 C 
BRANCH  12  15
ATOM      2  O   UNL     1     -13.078   5.860  21.742  0.00  0.00    -0.276 OA
ATOM      5  N   UNL     1     -13.377   7.835  20.564  0.00  0.00    -0.300 N 
ATOM     15  C   UNL     1     -13.802   6.604  21.076  0.00  0.00    +0.216 C 
ATOM     19  C   UNL     1     -14.251   8.700  19.780  0.00  0.00    +0.132 C 
BRANCH   5  17
ATOM     17  C   UNL     1     -12.025   8.348  20.778  0.00  0.00    +0.142 C 
BRANCH  17  20
ATOM     20  C   UNL     1     -11.345   8.693  19.486  0.00  0.00    -0.030 A 
ATOM     22  C   UNL     1     -11.297   7.758  18.450  0.00  0.00    +0.005 A 
ATOM     23  C   UNL     1     -10.759   9.948  19.318  0.00  0.00    +0.005 A 
ATOM     24  C   UNL     1     -10.665   8.079  17.249  0.00  0.00    +0.000 A 
ATOM     25  C   UNL     1     -10.127  10.268  18.117  0.00  0.00    +0.000 A 
ATOM     26  C   UNL     1     -10.079   9.334  17.083  0.00  0.00    +0.000 A 
ENDBRANCH  17  20
ENDBRANCH   5  17
ENDBRANCH  12  15
ENDBRANCH   7  12
BRANCH   8  13
ATOM     13  C   UNL     1     -15.598   4.386  23.171  0.00  0.00    +0.064 C 
BRANCH  13  14
ATOM      3  O   UNL     1     -17.206   1.306  24.114  0.00  0.00    -0.359 OA
ATOM      6  N   UNL     1     -16.833   2.261  23.177  0.00  0.00    -0.083 NA
ATOM     14  C   UNL     1     -16.163   3.184  23.872  0.00  0.00    +0.084 A 
ATOM     16  C   UNL     1     -16.082   2.869  25.239  0.00  0.00    +0.071 A 
ATOM     18  C   UNL     1     -16.754   1.679  25.339  0.00  0.00    +0.148 A 
BRANCH  18  21
ATOM     21  C   UNL     1     -17.062   0.775  26.454  0.00  0.00    +0.151 C 
BRANCH  21   1
ATOM      1  S   UNL     1     -17.681   1.646  27.937  0.00  0.00    -0.117 S 
BRANCH   1  27
ATOM     27  C   UNL     1     -16.178   1.808  28.890  0.00  0.00    +0.008 A 
ATOM     28  C   UNL     1     -15.488   0.669  29.303  0.00  0.00    +0.015 A 
ATOM     29  C   UNL     1     -15.697   3.074  29.222  0.00  0.00    +0.015 A 
ATOM     30  C   UNL     1     -14.315   0.795  30.047  0.00  0.00    +0.001 A 
ATOM     31  C   UNL     1     -14.523   3.201  29.967  0.00  0.00    +0.001 A 
ATOM     32  C   UNL     1     -13.833   2.061  30.379  0.00  0.00    +0.000 A 
ENDBRANCH   1  27
ENDBRANCH  21   1
ENDBRANCH  18  21
ENDBRANCH  13  14
ENDBRANCH   8  13
TORSDOF 9
ENDMDL
MODEL 5
REMARK VINA RESULT:      -6.7     19.008     22.603
REMARK  Name = 26743088
REMARK  10 active torsions:
REMARK  status: ('A' for Active; 'I' for Inactive)
REMARK    1  A    between atoms: S_1  and  C_21
REMARK    2  A    between atoms: S_1  and  C_27
REMARK    3  A    between atoms: N_5  and  C_17
REMARK    4  A    between atoms: N_5  and  C_19
REMARK    5  A    between atoms: C_7  and  C_12
REMARK    6  A    between atoms: C_8  and  C_13
REMARK    7  A    between atoms: C_12  and  C_15
REMARK    8  A    between atoms: C_13  and  C_14
REMARK    9  A    between atoms: C_17  and  C_20
REMARK   10  A    between atoms: C_18  and  C_21
REMARK                            x       y       z     vdW  Elec       q    Type
REMARK                         _______ _______ _______ _____ _____    ______ ____
ROOT
ATOM      4  N   UNL     1      -4.583 -11.749  19.608  0.00  0.00    -0.316 NA
ATOM      7  C   UNL     1      -6.714 -11.101  17.707  0.00  0.00    +0.004 C 
ATOM      8  C   UNL     1      -5.287 -11.468  17.232  0.00  0.00    +0.012 C 
ATOM      9  C   UNL     1      -6.690 -10.536  19.135  0.00  0.00    +0.019 C 
ATOM     10  C   UNL     1      -4.615 -12.371  18.282  0.00  0.00    +0.085 C 
ATOM     11  C   UNL     1      -5.934 -11.459  20.089  0.00  0.00    +0.081 C 
ATOM     33  H   UNL     1      -4.040 -10.889  19.577  0.00  0.00    +0.122 HD
ENDROOT
BRANCH   7  12
ATOM     12  C   UNL     1      -7.444 -10.151  16.759  0.00  0.00    +0.100 C 
BRANCH  12  15
ATOM      2  O   UNL     1      -9.297 -11.629  16.404  0.00  0.00    -0.276 OA
ATOM      5  N   UNL     1      -9.802  -9.401  16.805  0.00  0.00    -0.300 N 
ATOM     15  C   UNL     1      -8.923 -10.477  16.637  0.00  0.00    +0.216 C 
ATOM     19  C   UNL     1      -9.336  -8.047  17.079  0.00  0.00    +0.132 C 
BRANCH   5  17
ATOM     17  C   UNL     1     -11.252  -9.553  16.716  0.00  0.00    +0.142 C 
BRANCH  17  20
ATOM     20  C   UNL     1     -11.887  -9.682  18.070  0.00  0.00    -0.030 A 
ATOM     22  C   UNL     1     -13.267  -9.533  18.210  0.00  0.00    +0.005 A 
ATOM     23  C   UNL     1     -11.098  -9.950  19.189  0.00  0.00    +0.005 A 
ATOM     24  C   UNL     1     -13.858  -9.653  19.468  0.00  0.00    +0.000 A 
ATOM     25  C   UNL     1     -11.689 -10.069  20.447  0.00  0.00    +0.000 A 
ATOM     26  C   UNL     1     -13.068  -9.920  20.586  0.00  0.00    +0.000 A 
ENDBRANCH  17  20
ENDBRANCH   5  17
ENDBRANCH  12  15
ENDBRANCH   7  12
BRANCH   8  13
ATOM     13  C   UNL     1      -4.406 -10.251  16.917  0.00  0.00    +0.064 C 
BRANCH  13  14
ATOM      3  O   UNL     1      -1.512 -11.019  14.919  0.00  0.00    -0.359 OA
ATOM      6  N   UNL     1      -2.133 -10.763  16.135  0.00  0.00    -0.083 NA
ATOM     14  C   UNL     1      -3.418 -10.558  15.829  0.00  0.00    +0.084 A 
ATOM     16  C   UNL     1      -3.663 -10.672  14.450  0.00  0.00    +0.071 A 
ATOM     18  C   UNL     1      -2.433 -10.962  13.923  0.00  0.00    +0.148 A 
BRANCH  18  21
ATOM     21  C   UNL     1      -1.942 -11.211  12.562  0.00  0.00    +0.151 C 
BRANCH  21   1
ATOM      1  S   UNL     1      -3.061 -12.267  11.575  0.00  0.00    -0.117 S 
BRANCH   1  27
ATOM     27  C   UNL     1      -3.691 -11.086  10.392  0.00  0.00    +0.008 A 
ATOM     28  C   UNL     1      -3.535  -9.719  10.620  0.00  0.00    +0.015 A 
ATOM     29  C   UNL     1      -4.339 -11.531   9.240  0.00  0.00    +0.015 A 
ATOM     30  C   UNL     1      -4.027  -8.797   9.696  0.00  0.00    +0.001 A 
ATOM     31  C   UNL     1      -4.832 -10.609   8.316  0.00  0.00    +0.001 A 
ATOM     32  C   UNL     1      -4.676  -9.242   8.545  0.00  0.00    +0.000 A 
ENDBRANCH   1  27
ENDBRANCH  21   1
ENDBRANCH  18  21
ENDBRANCH  13  14
ENDBRANCH   8  13
TORSDOF 9
ENDMDL
MODEL 6
REMARK VINA RESULT:      -6.4     18.876     21.987
REMARK  Name = 26743088
REMARK  10 active torsions:
REMARK  status: ('A' for Active; 'I' for Inactive)
REMARK    1  A    between atoms: S_1  and  C_21
REMARK    2  A    between atoms: S_1  and  C_27
REMARK    3  A    between atoms: N_5  and  C_17
REMARK    4  A    between atoms: N_5  and  C_19
REMARK    5  A    between atoms: C_7  and  C_12
REMARK    6  A    between atoms: C_8  and  C_13
REMARK    7  A    between atoms: C_12  and  C_15
REMARK    8  A    between atoms: C_13  and  C_14
REMARK    9  A    between atoms: C_17  and  C_20
REMARK   10  A    between atoms: C_18  and  C_21
REMARK                            x       y       z     vdW  Elec       q    Type
REMARK                         _______ _______ _______ _____ _____    ______ ____
ROOT
ATOM      4  N   UNL     1      -9.674  -8.211   4.436  0.00  0.00    -0.316 NA
ATOM      7  C   UNL     1      -9.675  -6.665   6.922  0.00  0.00    +0.004 C 
ATOM      8  C   UNL     1      -8.438  -7.480   6.475  0.00  0.00    +0.012 C 
ATOM      9  C   UNL     1     -10.964  -7.241   6.316  0.00  0.00    +0.019 C 
ATOM     10  C   UNL     1      -8.439  -7.609   4.941  0.00  0.00    +0.085 C 
ATOM     11  C   UNL     1     -10.842  -7.409   4.802  0.00  0.00    +0.081 C 
ATOM     33  H   UNL     1      -9.779  -9.154   4.805  0.00  0.00    +0.122 HD
ENDROOT
BRANCH   7  12
ATOM     12  C   UNL     1      -9.800  -6.535   8.440  0.00  0.00    +0.100 C 
BRANCH  12  15
ATOM      2  O   UNL     1      -9.140  -4.255   8.769  0.00  0.00    -0.276 OA
ATOM      5  N   UNL     1     -11.296  -4.820   9.412  0.00  0.00    -0.300 N 
ATOM     15  C   UNL     1     -10.032  -5.100   8.882  0.00  0.00    +0.216 C 
ATOM     19  C   UNL     1     -12.334  -5.835   9.537  0.00  0.00    +0.132 C 
BRANCH   5  17
ATOM     17  C   UNL     1     -11.670  -3.488   9.882  0.00  0.00    +0.142 C 
BRANCH  17  20
ATOM     20  C   UNL     1     -12.699  -3.545  10.972  0.00  0.00    -0.030 A 
ATOM     22  C   UNL     1     -12.342  -3.985  12.247  0.00  0.00    +0.005 A 
ATOM     23  C   UNL     1     -14.014  -3.157  10.712  0.00  0.00    +0.005 A 
ATOM     24  C   UNL     1     -13.299  -4.038  13.260  0.00  0.00    +0.000 A 
ATOM     25  C   UNL     1     -14.971  -3.210  11.726  0.00  0.00    +0.000 A 
ATOM     26  C   UNL     1     -14.613  -3.651  12.999  0.00  0.00    +0.000 A 
ENDBRANCH  17  20
ENDBRANCH   5  17
ENDBRANCH  12  15
ENDBRANCH   7  12
BRANCH   8  13
ATOM     13  C   UNL     1      -8.333  -8.861   7.136  0.00  0.00    +0.064 C 
BRANCH  13  14
ATOM      3  O   UNL     1      -4.999  -9.573   8.293  0.00  0.00    -0.359 OA
ATOM      6  N   UNL     1      -6.002  -9.614   7.333  0.00  0.00    -0.083 NA
ATOM     14  C   UNL     1      -7.048  -9.006   7.900  0.00  0.00    +0.084 A 
ATOM     16  C   UNL     1      -6.767  -8.565   9.204  0.00  0.00    +0.071 A 
ATOM     18  C   UNL     1      -5.467  -8.946   9.404  0.00  0.00    +0.148 A 
BRANCH  18  21
ATOM     21  C   UNL     1      -4.529  -8.814  10.525  0.00  0.00    +0.151 C 
BRANCH  21   1
ATOM      1  S   UNL     1      -3.343 -10.201  10.639  0.00  0.00    -0.117 S 
BRANCH   1  27
ATOM     27  C   UNL     1      -3.226 -10.407  12.410  0.00  0.00    +0.008 A 
ATOM     28  C   UNL     1      -4.385 -10.547  13.174  0.00  0.00    +0.015 A 
ATOM     29  C   UNL     1      -1.977 -10.426  13.028  0.00  0.00    +0.015 A 
ATOM     30  C   UNL     1      -4.293 -10.708  14.556  0.00  0.00    +0.001 A 
ATOM     31  C   UNL     1      -1.885 -10.586  14.411  0.00  0.00    +0.001 A 
ATOM     32  C   UNL     1      -3.044 -10.727  15.175  0.00  0.00    +0.000 A 
ENDBRANCH   1  27
ENDBRANCH  21   1
ENDBRANCH  18  21
ENDBRANCH  13  14
ENDBRANCH   8  13
TORSDOF 9
ENDMDL
MODEL 7
REMARK VINA RESULT:      -6.3      3.057      6.373
REMARK  Name = 26743088
REMARK  10 active torsions:
REMARK  status: ('A' for Active; 'I' for Inactive)
REMARK    1  A    between atoms: S_1  and  C_21
REMARK    2  A    between atoms: S_1  and  C_27
REMARK    3  A    between atoms: N_5  and  C_17
REMARK    4  A    between atoms: N_5  and  C_19
REMARK    5  A    between atoms: C_7  and  C_12
REMARK    6  A    between atoms: C_8  and  C_13
REMARK    7  A    between atoms: C_12  and  C_15
REMARK    8  A    between atoms: C_13  and  C_14
REMARK    9  A    between atoms: C_17  and  C_20
REMARK   10  A    between atoms: C_18  and  C_21
REMARK                            x       y       z     vdW  Elec       q    Type
REMARK                         _______ _______ _______ _____ _____    ______ ____
ROOT
ATOM      4  N   UNL     1     -15.959   7.712  24.214  0.00  0.00    -0.316 NA
ATOM      7  C   UNL     1     -15.035   7.506  21.444  0.00  0.00    +0.004 C 
ATOM      8  C   UNL     1     -15.696   6.309  22.169  0.00  0.00    +0.012 C 
ATOM      9  C   UNL     1     -14.397   8.476  22.450  0.00  0.00    +0.019 C 
ATOM     10  C   UNL     1     -16.643   6.835  23.262  0.00  0.00    +0.085 C 
ATOM     11  C   UNL     1     -15.387   8.878  23.542  0.00  0.00    +0.081 C 
ATOM     33  H   UNL     1     -15.221   7.199  24.693  0.00  0.00    +0.122 HD
ENDROOT
BRANCH   7  12
ATOM     12  C   UNL     1     -14.024   7.087  20.377  0.00  0.00    +0.100 C 
BRANCH  12  15
ATOM      2  O   UNL     1     -14.688   8.760  18.795  0.00  0.00    -0.276 OA
ATOM      5  N   UNL     1     -12.410   8.499  19.142  0.00  0.00    -0.300 N 
ATOM     15  C   UNL     1     -13.756   8.190  19.367  0.00  0.00    +0.216 C 
ATOM     19  C   UNL     1     -11.324   7.811  19.830  0.00  0.00    +0.132 C 
BRANCH   5  17
ATOM     17  C   UNL     1     -11.990   9.534  18.201  0.00  0.00    +0.142 C 
BRANCH  17  20
ATOM     20  C   UNL     1     -11.810   8.992  16.813  0.00  0.00    -0.030 A 
ATOM     22  C   UNL     1     -10.577   8.471  16.422  0.00  0.00    +0.005 A 
ATOM     23  C   UNL     1     -12.876   9.010  15.913  0.00  0.00    +0.005 A 
ATOM     24  C   UNL     1     -10.409   7.967  15.132  0.00  0.00    +0.000 A 
ATOM     25  C   UNL     1     -12.708   8.506  14.623  0.00  0.00    +0.000 A 
ATOM     26  C   UNL     1     -11.475   7.985  14.233  0.00  0.00    +0.000 A 
ENDBRANCH  17  20
ENDBRANCH   5  17
ENDBRANCH  12  15
ENDBRANCH   7  12
BRANCH   8  13
ATOM     13  C   UNL     1     -14.691   5.308  22.755  0.00  0.00    +0.064 C 
BRANCH  13  14
ATOM      3  O   UNL     1     -16.601   2.372  23.589  0.00  0.00    -0.359 OA
ATOM      6  N   UNL     1     -16.101   3.297  22.680  0.00  0.00    -0.083 NA
ATOM     14  C   UNL     1     -15.391   4.155  23.416  0.00  0.00    +0.084 A 
ATOM     16  C   UNL     1     -15.406   3.828  24.783  0.00  0.00    +0.071 A 
ATOM     18  C   UNL     1     -16.181   2.699  24.838  0.00  0.00    +0.148 A 
BRANCH  18  21
ATOM     21  C   UNL     1     -16.621   1.820  25.928  0.00  0.00    +0.151 C 
BRANCH  21   1
ATOM      1  S   UNL     1     -17.216   2.733  27.395  0.00  0.00    -0.117 S 
BRANCH   1  27
ATOM     27  C   UNL     1     -15.950   2.327  28.588  0.00  0.00    +0.008 A 
ATOM     28  C   UNL     1     -15.237   3.344  29.222  0.00  0.00    +0.015 A 
ATOM     29  C   UNL     1     -15.673   0.993  28.884  0.00  0.00    +0.015 A 
ATOM     30  C   UNL     1     -14.248   3.027  30.154  0.00  0.00    +0.001 A 
ATOM     31  C   UNL     1     -14.684   0.675  29.815  0.00  0.00    +0.001 A 
ATOM     32  C   UNL     1     -13.972   1.693  30.450  0.00  0.00    +0.000 A 
ENDBRANCH   1  27
ENDBRANCH  21   1
ENDBRANCH  18  21
ENDBRANCH  13  14
ENDBRANCH   8  13
TORSDOF 9
ENDMDL
MODEL 8
REMARK VINA RESULT:      -6.3      3.538      5.102
REMARK  Name = 26743088
REMARK  10 active torsions:
REMARK  status: ('A' for Active; 'I' for Inactive)
REMARK    1  A    between atoms: S_1  and  C_21
REMARK    2  A    between atoms: S_1  and  C_27
REMARK    3  A    between atoms: N_5  and  C_17
REMARK    4  A    between atoms: N_5  and  C_19
REMARK    5  A    between atoms: C_7  and  C_12
REMARK    6  A    between atoms: C_8  and  C_13
REMARK    7  A    between atoms: C_12  and  C_15
REMARK    8  A    between atoms: C_13  and  C_14
REMARK    9  A    between atoms: C_17  and  C_20
REMARK   10  A    between atoms: C_18  and  C_21
REMARK                            x       y       z     vdW  Elec       q    Type
REMARK                         _______ _______ _______ _____ _____    ______ ____
ROOT
ATOM      4  N   UNL     1     -12.871   4.578  22.406  0.00  0.00    -0.316 NA
ATOM      7  C   UNL     1     -14.362   7.089  22.191  0.00  0.00    +0.004 C 
ATOM      8  C   UNL     1     -14.889   5.902  23.033  0.00  0.00    +0.012 C 
ATOM      9  C   UNL     1     -13.415   6.601  21.084  0.00  0.00    +0.019 C 
ATOM     10  C   UNL     1     -13.701   5.050  23.515  0.00  0.00    +0.085 C 
ATOM     11  C   UNL     1     -12.317   5.699  21.645  0.00  0.00    +0.081 C 
ATOM     33  H   UNL     1     -13.419   3.984  21.787  0.00  0.00    +0.122 HD
ENDROOT
BRANCH   7  12
ATOM     12  C   UNL     1     -15.474   7.962  21.610  0.00  0.00    +0.100 C 
BRANCH  12  15
ATOM      2  O   UNL     1     -15.538   7.833  19.218  0.00  0.00    -0.276 OA
ATOM      5  N   UNL     1     -14.402   9.635  20.135  0.00  0.00    -0.300 N 
ATOM     15  C   UNL     1     -15.151   8.456  20.210  0.00  0.00    +0.216 C 
ATOM     19  C   UNL     1     -13.955  10.354  21.322  0.00  0.00    +0.132 C 
BRANCH   5  17
ATOM     17  C   UNL     1     -14.012  10.236  18.862  0.00  0.00    +0.142 C 
BRANCH  17  20
ATOM     20  C   UNL     1     -12.604   9.882  18.482  0.00  0.00    -0.030 A 
ATOM     22  C   UNL     1     -12.317   8.618  17.965  0.00  0.00    +0.005 A 
ATOM     23  C   UNL     1     -11.581  10.816  18.644  0.00  0.00    +0.005 A 
ATOM     24  C   UNL     1     -11.009   8.289  17.611  0.00  0.00    +0.000 A 
ATOM     25  C   UNL     1     -10.272  10.487  18.291  0.00  0.00    +0.000 A 
ATOM     26  C   UNL     1      -9.987   9.223  17.775  0.00  0.00    +0.000 A 
ENDBRANCH  17  20
ENDBRANCH   5  17
ENDBRANCH  12  15
ENDBRANCH   7  12
BRANCH   8  13
ATOM     13  C   UNL     1     -15.920   5.031  22.300  0.00  0.00    +0.064 C 
BRANCH  13  14
ATOM      3  O   UNL     1     -17.035   2.008  23.905  0.00  0.00    -0.359 OA
ATOM      6  N   UNL     1     -16.426   2.693  22.861  0.00  0.00    -0.083 NA
ATOM     14  C   UNL     1     -16.493   3.981  23.208  0.00  0.00    +0.084 A 
ATOM     16  C   UNL     1     -17.126   4.168  24.448  0.00  0.00    +0.071 A 
ATOM     18  C   UNL     1     -17.448   2.897  24.845  0.00  0.00    +0.148 A 
BRANCH  18  21
ATOM     21  C   UNL     1     -18.117   2.338  26.026  0.00  0.00    +0.151 C 
BRANCH  21   1
ATOM      1  S   UNL     1     -17.243   0.897  26.734  0.00  0.00    -0.117 S 
BRANCH   1  27
ATOM     27  C   UNL     1     -16.344   1.666  28.073  0.00  0.00    +0.008 A 
ATOM     28  C   UNL     1     -16.124   3.043  28.066  0.00  0.00    +0.015 A 
ATOM     29  C   UNL     1     -15.862   0.889  29.125  0.00  0.00    +0.015 A 
ATOM     30  C   UNL     1     -15.423   3.643  29.111  0.00  0.00    +0.001 A 
ATOM     31  C   UNL     1     -15.159   1.488  30.171  0.00  0.00    +0.001 A 
ATOM     32  C   UNL     1     -14.940   2.866  30.164  0.00  0.00    +0.000 A 
ENDBRANCH   1  27
ENDBRANCH  21   1
ENDBRANCH  18  21
ENDBRANCH  13  14
ENDBRANCH   8  13
TORSDOF 9
ENDMDL
MODEL 9
REMARK VINA RESULT:      -6.1      5.741      9.455
REMARK  Name = 26743088
REMARK  10 active torsions:
REMARK  status: ('A' for Active; 'I' for Inactive)
REMARK    1  A    between atoms: S_1  and  C_21
REMARK    2  A    between atoms: S_1  and  C_27
REMARK    3  A    between atoms: N_5  and  C_17
REMARK    4  A    between atoms: N_5  and  C_19
REMARK    5  A    between atoms: C_7  and  C_12
REMARK    6  A    between atoms: C_8  and  C_13
REMARK    7  A    between atoms: C_12  and  C_15
REMARK    8  A    between atoms: C_13  and  C_14
REMARK    9  A    between atoms: C_17  and  C_20
REMARK   10  A    between atoms: C_18  and  C_21
REMARK                            x       y       z     vdW  Elec       q    Type
REMARK                         _______ _______ _______ _____ _____    ______ ____
ROOT
ATOM      4  N   UNL     1     -11.926   9.495  36.985  0.00  0.00    -0.316 NA
ATOM      7  C   UNL     1     -11.723   9.957  34.101  0.00  0.00    +0.004 C 
ATOM      8  C   UNL     1     -12.956   9.262  34.726  0.00  0.00    +0.012 C 
ATOM      9  C   UNL     1     -10.484   9.786  34.993  0.00  0.00    +0.019 C 
ATOM     10  C   UNL     1     -13.126   9.734  36.182  0.00  0.00    +0.085 C 
ATOM     11  C   UNL     1     -10.770  10.203  36.434  0.00  0.00    +0.081 C 
ATOM     33  H   UNL     1     -11.727   8.497  37.027  0.00  0.00    +0.122 HD
ENDROOT
BRANCH   7  12
ATOM     12  C   UNL     1     -11.431   9.504  32.671  0.00  0.00    +0.100 C 
BRANCH  12  15
ATOM      2  O   UNL     1      -9.995  11.252  31.880  0.00  0.00    -0.276 OA
ATOM      5  N   UNL     1     -12.032  11.005  30.798  0.00  0.00    -0.300 N 
ATOM     15  C   UNL     1     -11.073  10.664  31.758  0.00  0.00    +0.216 C 
ATOM     19  C   UNL     1     -13.300  10.297  30.673  0.00  0.00    +0.132 C 
BRANCH   5  17
ATOM     17  C   UNL     1     -11.835  12.097  29.847  0.00  0.00    +0.142 C 
BRANCH  17  20
ATOM     20  C   UNL     1     -11.631  11.595  28.448  0.00  0.00    -0.030 A 
ATOM     22  C   UNL     1     -10.730  10.560  28.202  0.00  0.00    +0.005 A 
ATOM     23  C   UNL     1     -12.344  12.164  27.392  0.00  0.00    +0.005 A 
ATOM     24  C   UNL     1     -10.540  10.093  26.902  0.00  0.00    +0.000 A 
ATOM     25  C   UNL     1     -12.154  11.697  26.091  0.00  0.00    +0.000 A 
ATOM     26  C   UNL     1     -11.252  10.662  25.846  0.00  0.00    +0.000 A 
ENDBRANCH  17  20
ENDBRANCH   5  17
ENDBRANCH  12  15
ENDBRANCH   7  12
BRANCH   8  13
ATOM     13  C   UNL     1     -12.908   7.729  34.654  0.00  0.00    +0.064 C 
BRANCH  13  14
ATOM      3  O   UNL     1     -15.898   7.189  32.724  0.00  0.00    -0.359 OA
ATOM      6  N   UNL     1     -15.007   8.007  33.408  0.00  0.00    -0.083 NA
ATOM     14  C   UNL     1     -14.057   7.182  33.858  0.00  0.00    +0.084 A 
ATOM     16  C   UNL     1     -14.293   5.846  33.492  0.00  0.00    +0.071 A 
ATOM     18  C   UNL     1     -15.462   5.904  32.781  0.00  0.00    +0.148 A 
BRANCH  18  21
ATOM     21  C   UNL     1     -16.292   4.901  32.104  0.00  0.00    +0.151 C 
BRANCH  21   1
ATOM      1  S   UNL     1     -15.675   4.460  30.440  0.00  0.00    -0.117 S 
BRANCH   1  27
ATOM     27  C   UNL     1     -15.364   2.713  30.643  0.00  0.00    +0.008 A 
ATOM     28  C   UNL     1     -15.086   2.195  31.908  0.00  0.00    +0.015 A 
ATOM     29  C   UNL     1     -15.399   1.866  29.535  0.00  0.00    +0.015 A 
ATOM     30  C   UNL     1     -14.843   0.831  32.066  0.00  0.00    +0.001 A 
ATOM     31  C   UNL     1     -15.156   0.501  29.693  0.00  0.00    +0.001 A 
ATOM     32  C   UNL     1     -14.878  -0.016  30.958  0.00  0.00    +0.000 A 
ENDBRANCH   1  27
ENDBRANCH  21   1
ENDBRANCH  18  21
ENDBRANCH  13  14
ENDBRANCH   8  13
TORSDOF 9
ENDMDL
MODEL 10
REMARK VINA RESULT:      -6.1     20.175     23.572
REMARK  Name = 26743088
REMARK  10 active torsions:
REMARK  status: ('A' for Active; 'I' for Inactive)
REMARK    1  A    between atoms: S_1  and  C_21
REMARK    2  A    between atoms: S_1  and  C_27
REMARK    3  A    between atoms: N_5  and  C_17
REMARK    4  A    between atoms: N_5  and  C_19
REMARK    5  A    between atoms: C_7  and  C_12
REMARK    6  A    between atoms: C_8  and  C_13
REMARK    7  A    between atoms: C_12  and  C_15
REMARK    8  A    between atoms: C_13  and  C_14
REMARK    9  A    between atoms: C_17  and  C_20
REMARK   10  A    between atoms: C_18  and  C_21
REMARK                            x       y       z     vdW  Elec       q    Type
REMARK                         _______ _______ _______ _____ _____    ______ ____
ROOT
ATOM      4  N   UNL     1      -7.488  -9.853  18.479  0.00  0.00    -0.316 NA
ATOM      7  C   UNL     1      -5.169 -10.973  17.086  0.00  0.00    +0.004 C 
ATOM      8  C   UNL     1      -6.360 -10.356  16.313  0.00  0.00    +0.012 C 
ATOM      9  C   UNL     1      -5.610 -11.467  18.472  0.00  0.00    +0.019 C 
ATOM     10  C   UNL     1      -7.050  -9.301  17.195  0.00  0.00    +0.085 C 
ATOM     11  C   UNL     1      -6.356 -10.379  19.242  0.00  0.00    +0.081 C 
ATOM     33  H   UNL     1      -8.170 -10.593  18.327  0.00  0.00    +0.122 HD
ENDROOT
BRANCH   7  12
ATOM     12  C   UNL     1      -4.454 -12.082  16.315  0.00  0.00    +0.100 C 
BRANCH  12  15
ATOM      2  O   UNL     1      -2.804 -10.460  15.689  0.00  0.00    -0.276 OA
ATOM      5  N   UNL     1      -2.946 -12.365  14.373  0.00  0.00    -0.300 N 
ATOM     15  C   UNL     1      -3.329 -11.549  15.444  0.00  0.00    +0.216 C 
ATOM     19  C   UNL     1      -3.582 -13.649  14.103  0.00  0.00    +0.132 C 
BRANCH   5  17
ATOM     17  C   UNL     1      -1.881 -11.992  13.446  0.00  0.00    +0.142 C 
BRANCH  17  20
ATOM     20  C   UNL     1      -2.387 -11.128  12.328  0.00  0.00    -0.030 A 
ATOM     22  C   UNL     1      -3.642 -11.372  11.770  0.00  0.00    +0.005 A 
ATOM     23  C   UNL     1      -1.602 -10.080  11.845  0.00  0.00    +0.005 A 
ATOM     24  C   UNL     1      -4.112 -10.570  10.730  0.00  0.00    +0.000 A 
ATOM     25  C   UNL     1      -2.072  -9.277  10.806  0.00  0.00    +0.000 A 
ATOM     26  C   UNL     1      -3.327  -9.523  10.248  0.00  0.00    +0.000 A 
ENDBRANCH  17  20
ENDBRANCH   5  17
ENDBRANCH  12  15
ENDBRANCH   7  12
BRANCH   8  13
ATOM     13  C   UNL     1      -7.375 -11.391  15.808  0.00  0.00    +0.064 C 
BRANCH  13  14
ATOM      3  O   UNL     1      -7.274 -11.486  12.211  0.00  0.00    -0.359 OA
ATOM      6  N   UNL     1      -6.764 -11.803  13.463  0.00  0.00    -0.083 NA
ATOM     14  C   UNL     1      -7.614 -11.248  14.332  0.00  0.00    +0.084 A 
ATOM     16  C   UNL     1      -8.669 -10.575  13.693  0.00  0.00    +0.071 A 
ATOM     18  C   UNL     1      -8.409 -10.755  12.360  0.00  0.00    +0.148 A 
BRANCH  18  21
ATOM     21  C   UNL     1      -9.083 -10.333  11.126  0.00  0.00    +0.151 C 
BRANCH  21   1
ATOM      1  S   UNL     1      -7.928 -10.022   9.744  0.00  0.00    -0.117 S 
BRANCH   1  27
ATOM     27  C   UNL     1      -8.467  -8.407   9.204  0.00  0.00    +0.008 A 
ATOM     28  C   UNL     1      -9.770  -7.983   9.465  0.00  0.00    +0.015 A 
ATOM     29  C   UNL     1      -7.585  -7.570   8.520  0.00  0.00    +0.015 A 
ATOM     30  C   UNL     1     -10.191  -6.722   9.043  0.00  0.00    +0.001 A 
ATOM     31  C   UNL     1      -8.006  -6.309   8.098  0.00  0.00    +0.001 A 
ATOM     32  C   UNL     1      -9.309  -5.885   8.359  0.00  0.00    +0.000 A 
ENDBRANCH   1  27
ENDBRANCH  21   1
ENDBRANCH  18  21
ENDBRANCH  13  14
ENDBRANCH   8  13
TORSDOF 9
ENDMDL
