MODEL 1
REMARK VINA RESULT:      -7.3      0.000      0.000
REMARK  Name = 26743189
REMARK  9 active torsions:
REMARK  status: ('A' for Active; 'I' for Inactive)
REMARK    1  A    between atoms: O_3  and  C_20
REMARK    2  A    between atoms: O_3  and  C_24
REMARK    3  A    between atoms: N_5  and  C_19
REMARK    4  A    between atoms: C_8  and  C_14
REMARK    5  A    between atoms: C_9  and  C_13
REMARK    6  A    between atoms: C_13  and  C_15
REMARK    7  A    between atoms: C_14  and  C_16
REMARK    8  A    between atoms: C_18  and  C_20
REMARK    9  A    between atoms: C_19  and  C_21
REMARK                            x       y       z     vdW  Elec       q    Type
REMARK                         _______ _______ _______ _____ _____    ______ ____
ROOT
ATOM      4  N   UNL     1     -18.613   4.605  27.039  0.00  0.00    -0.316 NA
ATOM      8  C   UNL     1     -16.118   3.128  27.588  0.00  0.00    +0.004 C 
ATOM      9  C   UNL     1     -16.475   3.674  26.185  0.00  0.00    +0.012 C 
ATOM     10  C   UNL     1     -16.858   3.955  28.653  0.00  0.00    +0.019 C 
ATOM     11  C   UNL     1     -17.997   3.791  25.991  0.00  0.00    +0.085 C 
ATOM     12  C   UNL     1     -18.356   4.060  28.371  0.00  0.00    +0.081 C 
ATOM     32  H   UNL     1     -19.619   4.651  26.882  0.00  0.00    +0.122 HD
ENDROOT
BRANCH   9  13
ATOM     13  C   UNL     1     -15.849   2.865  25.050  0.00  0.00    +0.064 C 
BRANCH  13  15
ATOM      2  O   UNL     1     -16.108   4.379  21.793  0.00  0.00    -0.356 OA
ATOM      6  N   UNL     1     -16.499   3.455  22.754  0.00  0.00    -0.083 NA
ATOM     15  C   UNL     1     -15.705   3.688  23.803  0.00  0.00    +0.084 A 
ATOM     17  C   UNL     1     -14.801   4.738  23.564  0.00  0.00    +0.074 A 
ATOM     18  C   UNL     1     -15.095   5.138  22.287  0.00  0.00    +0.175 A 
BRANCH  18  20
ATOM     20  C   UNL     1     -14.557   6.171  21.396  0.00  0.00    +0.306 C 
BRANCH  20   3
ATOM      3  O   UNL     1     -13.144   6.299  21.580  0.00  0.00    -0.484 OA
BRANCH   3  24
ATOM     24  C   UNL     1     -12.567   7.437  21.091  0.00  0.00    +0.121 A 
ATOM     27  C   UNL     1     -13.036   8.687  21.496  0.00  0.00    +0.045 A 
ATOM     28  C   UNL     1     -11.511   7.349  20.185  0.00  0.00    +0.045 A 
ATOM     29  C   UNL     1     -12.446   9.848  20.997  0.00  0.00    +0.004 A 
ATOM     30  C   UNL     1     -10.921   8.511  19.685  0.00  0.00    +0.004 A 
ATOM     31  C   UNL     1     -11.389   9.760  20.092  0.00  0.00    +0.000 A 
ENDBRANCH   3  24
ENDBRANCH  20   3
ENDBRANCH  18  20
ENDBRANCH  13  15
ENDBRANCH   9  13
BRANCH   8  14
ATOM     14  C   UNL     1     -16.401   1.631  27.765  0.00  0.00    +0.099 C 
BRANCH  14  16
ATOM      1  O   UNL     1     -16.218   0.172  29.685  0.00  0.00    -0.276 OA
ATOM      5  N   UNL     1     -14.508   1.677  29.230  0.00  0.00    -0.311 N 
ATOM     16  C   UNL     1     -15.729   1.062  28.995  0.00  0.00    +0.214 C 
ATOM     33  H   UNL     1     -14.198   2.418  28.608  0.00  0.00    +0.149 HD
BRANCH   5  19
ATOM     19  C   UNL     1     -13.650   1.332  30.340  0.00  0.00    +0.141 C 
BRANCH  19  21
ATOM      7  N   UNL     1     -14.824   2.336  33.792  0.00  0.00    -0.263 NA
ATOM     21  C   UNL     1     -13.932   2.175  31.550  0.00  0.00    -0.012 A 
ATOM     22  C   UNL     1     -13.593   3.523  31.580  0.00  0.00    +0.008 A 
ATOM     23  C   UNL     1     -14.540   1.634  32.671  0.00  0.00    +0.115 A 
ATOM     25  C   UNL     1     -13.868   4.278  32.715  0.00  0.00    +0.020 A 
ATOM     26  C   UNL     1     -14.479   3.643  33.784  0.00  0.00    +0.111 A 
ENDBRANCH  19  21
ENDBRANCH   5  19
ENDBRANCH  14  16
ENDBRANCH   8  14
TORSDOF 9
ENDMDL
MODEL 2
REMARK VINA RESULT:      -7.1      1.567      2.231
REMARK  Name = 26743189
REMARK  9 active torsions:
REMARK  status: ('A' for Active; 'I' for Inactive)
REMARK    1  A    between atoms: O_3  and  C_20
REMARK    2  A    between atoms: O_3  and  C_24
REMARK    3  A    between atoms: N_5  and  C_19
REMARK    4  A    between atoms: C_8  and  C_14
REMARK    5  A    between atoms: C_9  and  C_13
REMARK    6  A    between atoms: C_13  and  C_15
REMARK    7  A    between atoms: C_14  and  C_16
REMARK    8  A    between atoms: C_18  and  C_20
REMARK    9  A    between atoms: C_19  and  C_21
REMARK                            x       y       z     vdW  Elec       q    Type
REMARK                         _______ _______ _______ _____ _____    ______ ____
ROOT
ATOM      4  N   UNL     1     -18.469   4.829  28.599  0.00  0.00    -0.316 NA
ATOM      8  C   UNL     1     -15.797   3.575  28.607  0.00  0.00    +0.004 C 
ATOM      9  C   UNL     1     -16.704   3.603  27.354  0.00  0.00    +0.012 C 
ATOM     10  C   UNL     1     -16.182   4.743  29.532  0.00  0.00    +0.019 C 
ATOM     11  C   UNL     1     -18.193   3.683  27.732  0.00  0.00    +0.085 C 
ATOM     12  C   UNL     1     -17.681   4.781  29.829  0.00  0.00    +0.081 C 
ATOM     32  H   UNL     1     -19.461   4.843  28.834  0.00  0.00    +0.122 HD
ENDROOT
BRANCH   9  13
ATOM     13  C   UNL     1     -16.452   2.430  26.407  0.00  0.00    +0.064 C 
BRANCH  13  15
ATOM      2  O   UNL     1     -16.273   2.859  22.837  0.00  0.00    -0.356 OA
ATOM      6  N   UNL     1     -16.618   2.137  23.972  0.00  0.00    -0.083 NA
ATOM     15  C   UNL     1     -16.230   2.900  24.998  0.00  0.00    +0.084 A 
ATOM     17  C   UNL     1     -15.640   4.104  24.575  0.00  0.00    +0.074 A 
ATOM     18  C   UNL     1     -15.690   4.029  23.208  0.00  0.00    +0.175 A 
BRANCH  18  20
ATOM     20  C   UNL     1     -15.261   4.919  22.125  0.00  0.00    +0.306 C 
BRANCH  20   3
ATOM      3  O   UNL     1     -14.811   6.169  22.657  0.00  0.00    -0.484 OA
BRANCH   3  24
ATOM     24  C   UNL     1     -13.830   6.811  21.957  0.00  0.00    +0.121 A 
ATOM     27  C   UNL     1     -12.749   6.092  21.448  0.00  0.00    +0.045 A 
ATOM     28  C   UNL     1     -13.909   8.188  21.751  0.00  0.00    +0.045 A 
ATOM     29  C   UNL     1     -11.748   6.748  20.733  0.00  0.00    +0.004 A 
ATOM     30  C   UNL     1     -12.907   8.846  21.035  0.00  0.00    +0.004 A 
ATOM     31  C   UNL     1     -11.827   8.125  20.526  0.00  0.00    +0.000 A 
ENDBRANCH   3  24
ENDBRANCH  20   3
ENDBRANCH  18  20
ENDBRANCH  13  15
ENDBRANCH   9  13
BRANCH   8  14
ATOM     14  C   UNL     1     -15.825   2.244  29.368  0.00  0.00    +0.099 C 
BRANCH  14  16
ATOM      1  O   UNL     1     -13.608   1.728  30.185  0.00  0.00    -0.276 OA
ATOM      5  N   UNL     1     -15.182   2.621  31.643  0.00  0.00    -0.311 N 
ATOM     16  C   UNL     1     -14.735   2.158  30.414  0.00  0.00    +0.214 C 
ATOM     33  H   UNL     1     -16.141   2.942  31.734  0.00  0.00    +0.149 HD
BRANCH   5  19
ATOM     19  C   UNL     1     -14.350   2.653  32.824  0.00  0.00    +0.141 C 
BRANCH  19  21
ATOM      7  N   UNL     1     -14.161   5.539  35.260  0.00  0.00    -0.263 NA
ATOM     21  C   UNL     1     -14.187   4.046  33.359  0.00  0.00    -0.012 A 
ATOM     22  C   UNL     1     -13.923   5.114  32.508  0.00  0.00    +0.008 A 
ATOM     23  C   UNL     1     -14.295   4.310  34.714  0.00  0.00    +0.115 A 
ATOM     25  C   UNL     1     -13.778   6.394  33.031  0.00  0.00    +0.020 A 
ATOM     26  C   UNL     1     -13.905   6.551  34.402  0.00  0.00    +0.111 A 
ENDBRANCH  19  21
ENDBRANCH   5  19
ENDBRANCH  14  16
ENDBRANCH   8  14
TORSDOF 9
ENDMDL
MODEL 3
REMARK VINA RESULT:      -7.0      2.967     10.445
REMARK  Name = 26743189
REMARK  9 active torsions:
REMARK  status: ('A' for Active; 'I' for Inactive)
REMARK    1  A    between atoms: O_3  and  C_20
REMARK    2  A    between atoms: O_3  and  C_24
REMARK    3  A    between atoms: N_5  and  C_19
REMARK    4  A    between atoms: C_8  and  C_14
REMARK    5  A    between atoms: C_9  and  C_13
REMARK    6  A    between atoms: C_13  and  C_15
REMARK    7  A    between atoms: C_14  and  C_16
REMARK    8  A    between atoms: C_18  and  C_20
REMARK    9  A    between atoms: C_19  and  C_21
REMARK                            x       y       z     vdW  Elec       q    Type
REMARK                         _______ _______ _______ _____ _____    ______ ____
ROOT
ATOM      4  N   UNL     1     -18.524   5.490  20.585  0.00  0.00    -0.316 NA
ATOM      8  C   UNL     1     -15.661   6.195  20.685  0.00  0.00    +0.004 C 
ATOM      9  C   UNL     1     -16.324   5.244  21.709  0.00  0.00    +0.012 C 
ATOM     10  C   UNL     1     -16.479   6.181  19.383  0.00  0.00    +0.019 C 
ATOM     11  C   UNL     1     -17.825   5.538  21.869  0.00  0.00    +0.085 C 
ATOM     12  C   UNL     1     -17.965   6.441  19.626  0.00  0.00    +0.081 C 
ATOM     32  H   UNL     1     -19.512   5.698  20.731  0.00  0.00    +0.122 HD
ENDROOT
BRANCH   9  13
ATOM     13  C   UNL     1     -15.627   5.248  23.070  0.00  0.00    +0.064 C 
BRANCH  13  15
ATOM      2  O   UNL     1     -16.472   1.960  24.269  0.00  0.00    -0.356 OA
ATOM      6  N   UNL     1     -16.172   2.859  23.253  0.00  0.00    -0.083 NA
ATOM     15  C   UNL     1     -15.979   4.028  23.871  0.00  0.00    +0.084 A 
ATOM     17  C   UNL     1     -16.141   3.928  25.263  0.00  0.00    +0.074 A 
ATOM     18  C   UNL     1     -16.450   2.609  25.462  0.00  0.00    +0.175 A 
BRANCH  18  20
ATOM     20  C   UNL     1     -16.747   1.802  26.651  0.00  0.00    +0.306 C 
BRANCH  20   3
ATOM      3  O   UNL     1     -16.649   2.604  27.832  0.00  0.00    -0.484 OA
BRANCH   3  24
ATOM     24  C   UNL     1     -15.733   2.205  28.764  0.00  0.00    +0.121 A 
ATOM     27  C   UNL     1     -15.592   0.852  29.070  0.00  0.00    +0.045 A 
ATOM     28  C   UNL     1     -14.941   3.152  29.412  0.00  0.00    +0.045 A 
ATOM     29  C   UNL     1     -14.656   0.445  30.021  0.00  0.00    +0.004 A 
ATOM     30  C   UNL     1     -14.005   2.746  30.364  0.00  0.00    +0.004 A 
ATOM     31  C   UNL     1     -13.863   1.392  30.668  0.00  0.00    +0.000 A 
ENDBRANCH   3  24
ENDBRANCH  20   3
ENDBRANCH  18  20
ENDBRANCH  13  15
ENDBRANCH   9  13
BRANCH   8  14
ATOM     14  C   UNL     1     -15.473   7.628  21.197  0.00  0.00    +0.099 C 
BRANCH  14  16
ATOM      1  O   UNL     1     -13.634   8.967  22.021  0.00  0.00    -0.276 OA
ATOM      5  N   UNL     1     -13.186   7.047  20.792  0.00  0.00    -0.311 N 
ATOM     16  C   UNL     1     -14.015   7.979  21.399  0.00  0.00    +0.214 C 
ATOM     33  H   UNL     1     -13.600   6.270  20.285  0.00  0.00    +0.149 HD
BRANCH   5  19
ATOM     19  C   UNL     1     -11.744   7.133  20.823  0.00  0.00    +0.141 C 
BRANCH  19  21
ATOM      7  N   UNL     1     -10.756   7.979  17.272  0.00  0.00    -0.263 NA
ATOM     21  C   UNL     1     -11.201   7.892  19.647  0.00  0.00    -0.012 A 
ATOM     22  C   UNL     1     -10.652   9.160  19.803  0.00  0.00    +0.008 A 
ATOM     23  C   UNL     1     -11.229   7.351  18.372  0.00  0.00    +0.115 A 
ATOM     25  C   UNL     1     -10.155   9.838  18.696  0.00  0.00    +0.020 A 
ATOM     26  C   UNL     1     -10.231   9.209  17.464  0.00  0.00    +0.111 A 
ENDBRANCH  19  21
ENDBRANCH   5  19
ENDBRANCH  14  16
ENDBRANCH   8  14
TORSDOF 9
ENDMDL
MODEL 4
REMARK VINA RESULT:      -6.9     32.093     37.478
REMARK  Name = 26743189
REMARK  9 active torsions:
REMARK  status: ('A' for Active; 'I' for Inactive)
REMARK    1  A    between atoms: O_3  and  C_20
REMARK    2  A    between atoms: O_3  and  C_24
REMARK    3  A    between atoms: N_5  and  C_19
REMARK    4  A    between atoms: C_8  and  C_14
REMARK    5  A    between atoms: C_9  and  C_13
REMARK    6  A    between atoms: C_13  and  C_15
REMARK    7  A    between atoms: C_14  and  C_16
REMARK    8  A    between atoms: C_18  and  C_20
REMARK    9  A    between atoms: C_19  and  C_21
REMARK                            x       y       z     vdW  Elec       q    Type
REMARK                         _______ _______ _______ _____ _____    ______ ____
ROOT
ATOM      4  N   UNL     1       9.135   7.281   6.075  0.00  0.00    -0.316 NA
ATOM      8  C   UNL     1      10.626   5.401   4.358  0.00  0.00    +0.004 C 
ATOM      9  C   UNL     1      11.261   6.686   4.940  0.00  0.00    +0.012 C 
ATOM     10  C   UNL     1       9.450   4.972   5.253  0.00  0.00    +0.019 C 
ATOM     11  C   UNL     1      10.204   7.772   5.206  0.00  0.00    +0.085 C 
ATOM     12  C   UNL     1       8.465   6.113   5.506  0.00  0.00    +0.081 C 
ATOM     32  H   UNL     1       8.451   8.024   6.221  0.00  0.00    +0.122 HD
ENDROOT
BRANCH   9  13
ATOM     13  C   UNL     1      12.393   7.239   4.074  0.00  0.00    +0.064 C 
BRANCH  13  15
ATOM      2  O   UNL     1      14.897   7.678   6.623  0.00  0.00    -0.356 OA
ATOM      6  N   UNL     1      13.703   7.148   6.151  0.00  0.00    -0.083 NA
ATOM     15  C   UNL     1      13.585   7.615   4.905  0.00  0.00    +0.084 A 
ATOM     17  C   UNL     1      14.666   8.436   4.538  0.00  0.00    +0.074 A 
ATOM     18  C   UNL     1      15.463   8.444   5.653  0.00  0.00    +0.175 A 
BRANCH  18  20
ATOM     20  C   UNL     1      16.740   9.084   5.986  0.00  0.00    +0.306 C 
BRANCH  20   3
ATOM      3  O   UNL     1      17.662   8.947   4.900  0.00  0.00    -0.484 OA
BRANCH   3  24
ATOM     24  C   UNL     1      18.891   8.434   5.207  0.00  0.00    +0.121 A 
ATOM     27  C   UNL     1      19.427   8.621   6.481  0.00  0.00    +0.045 A 
ATOM     28  C   UNL     1      19.609   7.725   4.245  0.00  0.00    +0.045 A 
ATOM     29  C   UNL     1      20.681   8.097   6.793  0.00  0.00    +0.004 A 
ATOM     30  C   UNL     1      20.864   7.201   4.557  0.00  0.00    +0.004 A 
ATOM     31  C   UNL     1      21.400   7.387   5.831  0.00  0.00    +0.000 A 
ENDBRANCH   3  24
ENDBRANCH  20   3
ENDBRANCH  18  20
ENDBRANCH  13  15
ENDBRANCH   9  13
BRANCH   8  14
ATOM     14  C   UNL     1      10.180   5.531   2.897  0.00  0.00    +0.099 C 
BRANCH  14  16
ATOM      1  O   UNL     1      10.008   3.867   1.150  0.00  0.00    -0.276 OA
ATOM      5  N   UNL     1      11.960   4.007   2.403  0.00  0.00    -0.311 N 
ATOM     16  C   UNL     1      10.675   4.385   2.042  0.00  0.00    +0.214 C 
ATOM     33  H   UNL     1      12.422   4.489   3.169  0.00  0.00    +0.149 HD
BRANCH   5  19
ATOM     19  C   UNL     1      12.680   2.936   1.755  0.00  0.00    +0.141 C 
BRANCH  19  21
ATOM      7  N   UNL     1      14.213   3.982  -1.540  0.00  0.00    -0.263 NA
ATOM     21  C   UNL     1      13.676   3.452   0.757  0.00  0.00    -0.012 A 
ATOM     22  C   UNL     1      14.942   3.866   1.155  0.00  0.00    +0.008 A 
ATOM     23  C   UNL     1      13.364   3.529  -0.591  0.00  0.00    +0.115 A 
ATOM     25  C   UNL     1      15.844   4.338   0.208  0.00  0.00    +0.020 A 
ATOM     26  C   UNL     1      15.433   4.376  -1.115  0.00  0.00    +0.111 A 
ENDBRANCH  19  21
ENDBRANCH   5  19
ENDBRANCH  14  16
ENDBRANCH   8  14
TORSDOF 9
ENDMDL
MODEL 5
REMARK VINA RESULT:      -6.9     31.146     34.823
REMARK  Name = 26743189
REMARK  9 active torsions:
REMARK  status: ('A' for Active; 'I' for Inactive)
REMARK    1  A    between atoms: O_3  and  C_20
REMARK    2  A    between atoms: O_3  and  C_24
REMARK    3  A    between atoms: N_5  and  C_19
REMARK    4  A    between atoms: C_8  and  C_14
REMARK    5  A    between atoms: C_9  and  C_13
REMARK    6  A    between atoms: C_13  and  C_15
REMARK    7  A    between atoms: C_14  and  C_16
REMARK    8  A    between atoms: C_18  and  C_20
REMARK    9  A    between atoms: C_19  and  C_21
REMARK                            x       y       z     vdW  Elec       q    Type
REMARK                         _______ _______ _______ _____ _____    ______ ____
ROOT
ATOM      4  N   UNL     1      20.217   9.240  21.835  0.00  0.00    -0.316 NA
ATOM      8  C   UNL     1      20.696   6.607  20.590  0.00  0.00    +0.004 C 
ATOM      9  C   UNL     1      19.278   7.190  20.796  0.00  0.00    +0.012 C 
ATOM     10  C   UNL     1      21.710   7.763  20.532  0.00  0.00    +0.019 C 
ATOM     11  C   UNL     1      19.231   8.168  21.981  0.00  0.00    +0.085 C 
ATOM     12  C   UNL     1      21.576   8.715  21.720  0.00  0.00    +0.081 C 
ATOM     32  H   UNL     1      20.162   9.861  22.641  0.00  0.00    +0.122 HD
ENDROOT
BRANCH   9  13
ATOM     13  C   UNL     1      18.204   6.111  20.946  0.00  0.00    +0.064 C 
BRANCH  13  15
ATOM      2  O   UNL     1      15.789   6.152  18.277  0.00  0.00    -0.356 OA
ATOM      6  N   UNL     1      16.959   5.694  18.869  0.00  0.00    -0.083 NA
ATOM     15  C   UNL     1      17.045   6.359  20.025  0.00  0.00    +0.084 A 
ATOM     17  C   UNL     1      15.967   7.241  20.215  0.00  0.00    +0.074 A 
ATOM     18  C   UNL     1      15.206   7.073  19.088  0.00  0.00    +0.175 A 
BRANCH  18  20
ATOM     20  C   UNL     1      13.951   7.664  18.612  0.00  0.00    +0.306 C 
BRANCH  20   3
ATOM      3  O   UNL     1      12.833   6.924  19.110  0.00  0.00    -0.484 OA
BRANCH   3  24
ATOM     24  C   UNL     1      12.113   7.511  20.113  0.00  0.00    +0.121 A 
ATOM     27  C   UNL     1      11.438   6.720  21.043  0.00  0.00    +0.045 A 
ATOM     28  C   UNL     1      12.052   8.901  20.205  0.00  0.00    +0.045 A 
ATOM     29  C   UNL     1      10.704   7.319  22.066  0.00  0.00    +0.004 A 
ATOM     30  C   UNL     1      11.318   9.501  21.228  0.00  0.00    +0.004 A 
ATOM     31  C   UNL     1      10.644   8.709  22.159  0.00  0.00    +0.000 A 
ENDBRANCH   3  24
ENDBRANCH  20   3
ENDBRANCH  18  20
ENDBRANCH  13  15
ENDBRANCH   9  13
BRANCH   8  14
ATOM     14  C   UNL     1      21.106   5.574  21.646  0.00  0.00    +0.099 C 
BRANCH  14  16
ATOM      1  O   UNL     1      21.247   3.288  20.871  0.00  0.00    -0.276 OA
ATOM      5  N   UNL     1      23.110   4.666  20.703  0.00  0.00    -0.311 N 
ATOM     16  C   UNL     1      21.796   4.374  21.037  0.00  0.00    +0.214 C 
ATOM     33  H   UNL     1      23.477   5.593  20.897  0.00  0.00    +0.149 HD
BRANCH   5  19
ATOM     19  C   UNL     1      24.006   3.703  20.105  0.00  0.00    +0.141 C 
BRANCH  19  21
ATOM      7  N   UNL     1      26.161   2.530  22.983  0.00  0.00    -0.263 NA
ATOM     21  C   UNL     1      24.629   2.803  21.132  0.00  0.00    -0.012 A 
ATOM     22  C   UNL     1      24.291   1.456  21.205  0.00  0.00    +0.008 A 
ATOM     23  C   UNL     1      25.561   3.286  22.036  0.00  0.00    +0.115 A 
ATOM     25  C   UNL     1      24.885   0.646  22.166  0.00  0.00    +0.020 A 
ATOM     26  C   UNL     1      25.806   1.227  23.023  0.00  0.00    +0.111 A 
ENDBRANCH  19  21
ENDBRANCH   5  19
ENDBRANCH  14  16
ENDBRANCH   8  14
TORSDOF 9
ENDMDL
MODEL 6
REMARK VINA RESULT:      -6.7     19.164     20.824
REMARK  Name = 26743189
REMARK  9 active torsions:
REMARK  status: ('A' for Active; 'I' for Inactive)
REMARK    1  A    between atoms: O_3  and  C_20
REMARK    2  A    between atoms: O_3  and  C_24
REMARK    3  A    between atoms: N_5  and  C_19
REMARK    4  A    between atoms: C_8  and  C_14
REMARK    5  A    between atoms: C_9  and  C_13
REMARK    6  A    between atoms: C_13  and  C_15
REMARK    7  A    between atoms: C_14  and  C_16
REMARK    8  A    between atoms: C_18  and  C_20
REMARK    9  A    between atoms: C_19  and  C_21
REMARK                            x       y       z     vdW  Elec       q    Type
REMARK                         _______ _______ _______ _____ _____    ______ ____
ROOT
ATOM      4  N   UNL     1      -6.654 -13.609  17.945  0.00  0.00    -0.316 NA
ATOM      8  C   UNL     1      -6.888 -10.966  16.654  0.00  0.00    +0.004 C 
ATOM      9  C   UNL     1      -5.527 -11.659  16.901  0.00  0.00    +0.012 C 
ATOM     10  C   UNL     1      -7.992 -12.035  16.589  0.00  0.00    +0.019 C 
ATOM     11  C   UNL     1      -5.587 -12.620  18.100  0.00  0.00    +0.085 C 
ATOM     12  C   UNL     1      -7.963 -12.977  17.792  0.00  0.00    +0.081 C 
ATOM     32  H   UNL     1      -6.667 -14.221  18.760  0.00  0.00    +0.122 HD
ENDROOT
BRANCH   9  13
ATOM     13  C   UNL     1      -4.372 -10.669  17.062  0.00  0.00    +0.064 C 
BRANCH  13  15
ATOM      2  O   UNL     1      -1.400 -10.953  15.049  0.00  0.00    -0.356 OA
ATOM      6  N   UNL     1      -2.050 -10.756  16.261  0.00  0.00    -0.083 NA
ATOM     15  C   UNL     1      -3.353 -10.835  15.972  0.00  0.00    +0.084 A 
ATOM     17  C   UNL     1      -3.582 -11.079  14.607  0.00  0.00    +0.074 A 
ATOM     18  C   UNL     1      -2.323 -11.145  14.071  0.00  0.00    +0.175 A 
BRANCH  18  20
ATOM     20  C   UNL     1      -1.805 -11.370  12.717  0.00  0.00    +0.306 C 
BRANCH  20   3
ATOM      3  O   UNL     1      -1.963 -10.191  11.922  0.00  0.00    -0.484 OA
BRANCH   3  24
ATOM     24  C   UNL     1      -2.859 -10.266  10.893  0.00  0.00    +0.121 A 
ATOM     27  C   UNL     1      -3.223  -9.112  10.199  0.00  0.00    +0.045 A 
ATOM     28  C   UNL     1      -3.410 -11.496  10.538  0.00  0.00    +0.045 A 
ATOM     29  C   UNL     1      -4.137  -9.190   9.148  0.00  0.00    +0.004 A 
ATOM     30  C   UNL     1      -4.325 -11.575   9.488  0.00  0.00    +0.004 A 
ATOM     31  C   UNL     1      -4.688 -10.421   8.793  0.00  0.00    +0.000 A 
ENDBRANCH   3  24
ENDBRANCH  20   3
ENDBRANCH  18  20
ENDBRANCH  13  15
ENDBRANCH   9  13
BRANCH   8  14
ATOM     14  C   UNL     1      -7.235  -9.887  17.687  0.00  0.00    +0.099 C 
BRANCH  14  16
ATOM      1  O   UNL     1      -8.937  -8.607  16.540  0.00  0.00    -0.276 OA
ATOM      5  N   UNL     1      -9.480  -9.728  18.502  0.00  0.00    -0.311 N 
ATOM     16  C   UNL     1      -8.626  -9.326  17.486  0.00  0.00    +0.214 C 
ATOM     33  H   UNL     1      -9.121 -10.312  19.252  0.00  0.00    +0.149 HD
BRANCH   5  19
ATOM     19  C   UNL     1     -10.870  -9.338  18.565  0.00  0.00    +0.141 C 
BRANCH  19  21
ATOM      7  N   UNL     1     -11.846 -12.278  20.735  0.00  0.00    -0.263 NA
ATOM     21  C   UNL     1     -11.653 -10.201  19.513  0.00  0.00    -0.012 A 
ATOM     22  C   UNL     1     -12.866  -9.770  20.039  0.00  0.00    +0.008 A 
ATOM     23  C   UNL     1     -11.191 -11.451  19.888  0.00  0.00    +0.115 A 
ATOM     25  C   UNL     1     -13.569 -10.591  20.914  0.00  0.00    +0.020 A 
ATOM     26  C   UNL     1     -13.020 -11.825  21.226  0.00  0.00    +0.111 A 
ENDBRANCH  19  21
ENDBRANCH   5  19
ENDBRANCH  14  16
ENDBRANCH   8  14
TORSDOF 9
ENDMDL
MODEL 7
REMARK VINA RESULT:      -6.6     19.266     21.158
REMARK  Name = 26743189
REMARK  9 active torsions:
REMARK  status: ('A' for Active; 'I' for Inactive)
REMARK    1  A    between atoms: O_3  and  C_20
REMARK    2  A    between atoms: O_3  and  C_24
REMARK    3  A    between atoms: N_5  and  C_19
REMARK    4  A    between atoms: C_8  and  C_14
REMARK    5  A    between atoms: C_9  and  C_13
REMARK    6  A    between atoms: C_13  and  C_15
REMARK    7  A    between atoms: C_14  and  C_16
REMARK    8  A    between atoms: C_18  and  C_20
REMARK    9  A    between atoms: C_19  and  C_21
REMARK                            x       y       z     vdW  Elec       q    Type
REMARK                         _______ _______ _______ _____ _____    ______ ____
ROOT
ATOM      4  N   UNL     1      -5.970 -14.386  16.610  0.00  0.00    -0.316 NA
ATOM      8  C   UNL     1      -6.855 -11.622  17.149  0.00  0.00    +0.004 C 
ATOM      9  C   UNL     1      -5.446 -11.959  16.607  0.00  0.00    +0.012 C 
ATOM     10  C   UNL     1      -7.822 -12.758  16.773  0.00  0.00    +0.019 C 
ATOM     11  C   UNL     1      -5.000 -13.371  17.021  0.00  0.00    +0.085 C 
ATOM     12  C   UNL     1      -7.293 -14.133  17.179  0.00  0.00    +0.081 C 
ATOM     32  H   UNL     1      -5.645 -15.305  16.909  0.00  0.00    +0.122 HD
ENDROOT
BRANCH   9  13
ATOM     13  C   UNL     1      -4.390 -10.925  17.000  0.00  0.00    +0.064 C 
BRANCH  13  15
ATOM      2  O   UNL     1      -1.437 -10.430  15.002  0.00  0.00    -0.356 OA
ATOM      6  N   UNL     1      -2.086 -10.572  16.221  0.00  0.00    -0.083 NA
ATOM     15  C   UNL     1      -3.376 -10.735  15.910  0.00  0.00    +0.084 A 
ATOM     17  C   UNL     1      -3.597 -10.706  14.522  0.00  0.00    +0.074 A 
ATOM     18  C   UNL     1      -2.347 -10.511  13.996  0.00  0.00    +0.175 A 
BRANCH  18  20
ATOM     20  C   UNL     1      -1.828 -10.381  12.631  0.00  0.00    +0.306 C 
BRANCH  20   3
ATOM      3  O   UNL     1      -2.475 -11.316  11.762  0.00  0.00    -0.484 OA
BRANCH   3  24
ATOM     24  C   UNL     1      -3.195 -10.788  10.728  0.00  0.00    +0.121 A 
ATOM     27  C   UNL     1      -3.978 -11.618   9.926  0.00  0.00    +0.045 A 
ATOM     28  C   UNL     1      -3.145  -9.418  10.473  0.00  0.00    +0.045 A 
ATOM     29  C   UNL     1      -4.713 -11.078   8.871  0.00  0.00    +0.004 A 
ATOM     30  C   UNL     1      -3.880  -8.877   9.417  0.00  0.00    +0.004 A 
ATOM     31  C   UNL     1      -4.664  -9.708   8.617  0.00  0.00    +0.000 A 
ENDBRANCH   3  24
ENDBRANCH  20   3
ENDBRANCH  18  20
ENDBRANCH  13  15
ENDBRANCH   9  13
BRANCH   8  14
ATOM     14  C   UNL     1      -6.894 -11.350  18.658  0.00  0.00    +0.099 C 
BRANCH  14  16
ATOM      1  O   UNL     1      -8.810 -11.802  20.064  0.00  0.00    -0.276 OA
ATOM      5  N   UNL     1      -8.930 -10.103  18.484  0.00  0.00    -0.311 N 
ATOM     16  C   UNL     1      -8.303 -11.135  19.165  0.00  0.00    +0.214 C 
ATOM     33  H   UNL     1      -8.430  -9.621  17.742  0.00  0.00    +0.149 HD
BRANCH   5  19
ATOM     19  C   UNL     1     -10.284  -9.681  18.761  0.00  0.00    +0.141 C 
BRANCH  19  21
ATOM      7  N   UNL     1     -10.432  -6.909  16.193  0.00  0.00    -0.263 NA
ATOM     21  C   UNL     1     -10.814  -8.761  17.699  0.00  0.00    -0.012 A 
ATOM     22  C   UNL     1     -12.121  -8.874  17.239  0.00  0.00    +0.008 A 
ATOM     23  C   UNL     1     -10.017  -7.770  17.149  0.00  0.00    +0.115 A 
ATOM     25  C   UNL     1     -12.585  -8.007  16.256  0.00  0.00    +0.020 A 
ATOM     26  C   UNL     1     -11.707  -7.050  15.771  0.00  0.00    +0.111 A 
ENDBRANCH  19  21
ENDBRANCH   5  19
ENDBRANCH  14  16
ENDBRANCH   8  14
TORSDOF 9
ENDMDL
MODEL 8
REMARK VINA RESULT:      -6.5      3.132     11.190
REMARK  Name = 26743189
REMARK  9 active torsions:
REMARK  status: ('A' for Active; 'I' for Inactive)
REMARK    1  A    between atoms: O_3  and  C_20
REMARK    2  A    between atoms: O_3  and  C_24
REMARK    3  A    between atoms: N_5  and  C_19
REMARK    4  A    between atoms: C_8  and  C_14
REMARK    5  A    between atoms: C_9  and  C_13
REMARK    6  A    between atoms: C_13  and  C_15
REMARK    7  A    between atoms: C_14  and  C_16
REMARK    8  A    between atoms: C_18  and  C_20
REMARK    9  A    between atoms: C_19  and  C_21
REMARK                            x       y       z     vdW  Elec       q    Type
REMARK                         _______ _______ _______ _____ _____    ______ ____
ROOT
ATOM      4  N   UNL     1     -12.504   5.147  22.121  0.00  0.00    -0.316 NA
ATOM      8  C   UNL     1     -14.687   7.074  21.642  0.00  0.00    +0.004 C 
ATOM      9  C   UNL     1     -14.836   5.860  22.589  0.00  0.00    +0.012 C 
ATOM     10  C   UNL     1     -13.198   7.444  21.530  0.00  0.00    +0.019 C 
ATOM     11  C   UNL     1     -13.898   4.708  22.188  0.00  0.00    +0.085 C 
ATOM     12  C   UNL     1     -12.325   6.243  21.170  0.00  0.00    +0.081 C 
ATOM     32  H   UNL     1     -11.916   4.361  21.845  0.00  0.00    +0.122 HD
ENDROOT
BRANCH   9  13
ATOM     13  C   UNL     1     -16.278   5.364  22.704  0.00  0.00    +0.064 C 
BRANCH  13  15
ATOM      2  O   UNL     1     -16.524   2.024  24.026  0.00  0.00    -0.356 OA
ATOM      6  N   UNL     1     -16.466   2.928  22.973  0.00  0.00    -0.083 NA
ATOM     15  C   UNL     1     -16.367   4.128  23.552  0.00  0.00    +0.084 A 
ATOM     17  C   UNL     1     -16.357   4.045  24.955  0.00  0.00    +0.074 A 
ATOM     18  C   UNL     1     -16.459   2.701  25.203  0.00  0.00    +0.175 A 
BRANCH  18  20
ATOM     20  C   UNL     1     -16.507   1.893  26.426  0.00  0.00    +0.306 C 
BRANCH  20   3
ATOM      3  O   UNL     1     -16.545   2.740  27.579  0.00  0.00    -0.484 OA
BRANCH   3  24
ATOM     24  C   UNL     1     -15.765   2.365  28.636  0.00  0.00    +0.121 A 
ATOM     27  C   UNL     1     -15.746   1.034  29.052  0.00  0.00    +0.045 A 
ATOM     28  C   UNL     1     -14.989   3.314  29.300  0.00  0.00    +0.045 A 
ATOM     29  C   UNL     1     -14.949   0.651  30.130  0.00  0.00    +0.004 A 
ATOM     30  C   UNL     1     -14.192   2.932  30.380  0.00  0.00    +0.004 A 
ATOM     31  C   UNL     1     -14.172   1.600  30.794  0.00  0.00    +0.000 A 
ENDBRANCH   3  24
ENDBRANCH  20   3
ENDBRANCH  18  20
ENDBRANCH  13  15
ENDBRANCH   9  13
BRANCH   8  14
ATOM     14  C   UNL     1     -15.302   6.863  20.254  0.00  0.00    +0.099 C 
BRANCH  14  16
ATOM      1  O   UNL     1     -15.556   9.165  19.557  0.00  0.00    -0.276 OA
ATOM      5  N   UNL     1     -14.299   7.710  18.253  0.00  0.00    -0.311 N 
ATOM     16  C   UNL     1     -15.085   8.051  19.343  0.00  0.00    +0.214 C 
ATOM     33  H   UNL     1     -13.970   6.754  18.157  0.00  0.00    +0.149 HD
BRANCH   5  19
ATOM     19  C   UNL     1     -13.932   8.651  17.219  0.00  0.00    +0.141 C 
BRANCH  19  21
ATOM      7  N   UNL     1     -10.424   9.501  16.091  0.00  0.00    -0.263 NA
ATOM     21  C   UNL     1     -12.474   9.004  17.273  0.00  0.00    -0.012 A 
ATOM     22  C   UNL     1     -11.818   9.159  18.489  0.00  0.00    +0.008 A 
ATOM     23  C   UNL     1     -11.738   9.184  16.113  0.00  0.00    +0.115 A 
ATOM     25  C   UNL     1     -10.466   9.485  18.508  0.00  0.00    +0.020 A 
ATOM     26  C   UNL     1      -9.822   9.644  17.291  0.00  0.00    +0.111 A 
ENDBRANCH  19  21
ENDBRANCH   5  19
ENDBRANCH  14  16
ENDBRANCH   8  14
TORSDOF 9
ENDMDL
MODEL 9
REMARK VINA RESULT:      -6.4     31.080     34.875
REMARK  Name = 26743189
REMARK  9 active torsions:
REMARK  status: ('A' for Active; 'I' for Inactive)
REMARK    1  A    between atoms: O_3  and  C_20
REMARK    2  A    between atoms: O_3  and  C_24
REMARK    3  A    between atoms: N_5  and  C_19
REMARK    4  A    between atoms: C_8  and  C_14
REMARK    5  A    between atoms: C_9  and  C_13
REMARK    6  A    between atoms: C_13  and  C_15
REMARK    7  A    between atoms: C_14  and  C_16
REMARK    8  A    between atoms: C_18  and  C_20
REMARK    9  A    between atoms: C_19  and  C_21
REMARK                            x       y       z     vdW  Elec       q    Type
REMARK                         _______ _______ _______ _____ _____    ______ ____
ROOT
ATOM      4  N   UNL     1      12.451   3.647  -1.018  0.00  0.00    -0.316 NA
ATOM      8  C   UNL     1      12.453   5.204   1.489  0.00  0.00    +0.004 C 
ATOM      9  C   UNL     1      11.682   5.655   0.225  0.00  0.00    +0.012 C 
ATOM     10  C   UNL     1      12.640   3.678   1.445  0.00  0.00    +0.019 C 
ATOM     11  C   UNL     1      12.325   5.104  -1.059  0.00  0.00    +0.085 C 
ATOM     12  C   UNL     1      13.246   3.203   0.125  0.00  0.00    +0.081 C 
ATOM     32  H   UNL     1      12.888   3.322  -1.880  0.00  0.00    +0.122 HD
ENDROOT
BRANCH   9  13
ATOM     13  C   UNL     1      11.514   7.172   0.135  0.00  0.00    +0.064 C 
BRANCH  13  15
ATOM      2  O   UNL     1      10.074   9.036   2.857  0.00  0.00    -0.356 OA
ATOM      6  N   UNL     1      11.034   8.842   1.872  0.00  0.00    -0.083 NA
ATOM     15  C   UNL     1      10.688   7.700   1.271  0.00  0.00    +0.084 A 
ATOM     17  C   UNL     1       9.528   7.135   1.829  0.00  0.00    +0.074 A 
ATOM     18  C   UNL     1       9.182   8.013   2.822  0.00  0.00    +0.175 A 
BRANCH  18  20
ATOM     20  C   UNL     1       8.092   8.060   3.803  0.00  0.00    +0.306 C 
BRANCH  20   3
ATOM      3  O   UNL     1       8.093   9.317   4.486  0.00  0.00    -0.484 OA
BRANCH   3  24
ATOM     24  C   UNL     1       8.686   9.341   5.717  0.00  0.00    +0.121 A 
ATOM     27  C   UNL     1       9.615  10.333   6.026  0.00  0.00    +0.045 A 
ATOM     28  C   UNL     1       8.363   8.369   6.664  0.00  0.00    +0.045 A 
ATOM     29  C   UNL     1      10.220  10.357   7.282  0.00  0.00    +0.004 A 
ATOM     30  C   UNL     1       8.968   8.392   7.921  0.00  0.00    +0.004 A 
ATOM     31  C   UNL     1       9.896   9.386   8.230  0.00  0.00    +0.000 A 
ENDBRANCH   3  24
ENDBRANCH  20   3
ENDBRANCH  18  20
ENDBRANCH  13  15
ENDBRANCH   9  13
BRANCH   8  14
ATOM     14  C   UNL     1      13.798   5.914   1.685  0.00  0.00    +0.099 C 
BRANCH  14  16
ATOM      1  O   UNL     1      14.681   7.626   3.148  0.00  0.00    -0.276 OA
ATOM      5  N   UNL     1      12.711   6.538   3.725  0.00  0.00    -0.311 N 
ATOM     16  C   UNL     1      13.806   6.796   2.914  0.00  0.00    +0.214 C 
ATOM     33  H   UNL     1      12.049   5.818   3.451  0.00  0.00    +0.149 HD
BRANCH   5  19
ATOM     19  C   UNL     1      12.466   7.234   4.967  0.00  0.00    +0.141 C 
BRANCH  19  21
ATOM      7  N   UNL     1      11.156   5.701   8.166  0.00  0.00    -0.263 NA
ATOM     21  C   UNL     1      11.619   6.426   5.906  0.00  0.00    -0.012 A 
ATOM     22  C   UNL     1      10.550   5.669   5.437  0.00  0.00    +0.008 A 
ATOM     23  C   UNL     1      11.877   6.408   7.267  0.00  0.00    +0.115 A 
ATOM     25  C   UNL     1       9.784   4.929   6.331  0.00  0.00    +0.020 A 
ATOM     26  C   UNL     1      10.126   4.979   7.673  0.00  0.00    +0.111 A 
ENDBRANCH  19  21
ENDBRANCH   5  19
ENDBRANCH  14  16
ENDBRANCH   8  14
TORSDOF 9
ENDMDL
MODEL 10
REMARK VINA RESULT:      -6.4     19.625     21.782
REMARK  Name = 26743189
REMARK  9 active torsions:
REMARK  status: ('A' for Active; 'I' for Inactive)
REMARK    1  A    between atoms: O_3  and  C_20
REMARK    2  A    between atoms: O_3  and  C_24
REMARK    3  A    between atoms: N_5  and  C_19
REMARK    4  A    between atoms: C_8  and  C_14
REMARK    5  A    between atoms: C_9  and  C_13
REMARK    6  A    between atoms: C_13  and  C_15
REMARK    7  A    between atoms: C_14  and  C_16
REMARK    8  A    between atoms: C_18  and  C_20
REMARK    9  A    between atoms: C_19  and  C_21
REMARK                            x       y       z     vdW  Elec       q    Type
REMARK                         _______ _______ _______ _____ _____    ______ ____
ROOT
ATOM      4  N   UNL     1      -4.220 -13.053   9.823  0.00  0.00    -0.316 NA
ATOM      8  C   UNL     1      -4.374 -11.431  12.284  0.00  0.00    +0.004 C 
ATOM      9  C   UNL     1      -4.961 -10.959  10.932  0.00  0.00    +0.012 C 
ATOM     10  C   UNL     1      -4.304 -12.968  12.292  0.00  0.00    +0.019 C 
ATOM     11  C   UNL     1      -4.224 -11.592   9.740  0.00  0.00    +0.085 C 
ATOM     12  C   UNL     1      -3.595 -13.525  11.058  0.00  0.00    +0.081 C 
ATOM     32  H   UNL     1      -3.717 -13.435   9.023  0.00  0.00    +0.122 HD
ENDROOT
BRANCH   9  13
ATOM     13  C   UNL     1      -4.997  -9.436  10.795  0.00  0.00    +0.064 C 
BRANCH  13  15
ATOM      2  O   UNL     1      -8.460  -8.766  10.078  0.00  0.00    -0.356 OA
ATOM      6  N   UNL     1      -7.454  -9.380  10.811  0.00  0.00    -0.083 NA
ATOM     15  C   UNL     1      -6.314  -8.966  10.250  0.00  0.00    +0.084 A 
ATOM     17  C   UNL     1      -6.538  -8.096   9.169  0.00  0.00    +0.074 A 
ATOM     18  C   UNL     1      -7.903  -8.003   9.102  0.00  0.00    +0.175 A 
BRANCH  18  20
ATOM     20  C   UNL     1      -8.831  -7.277   8.227  0.00  0.00    +0.306 C 
BRANCH  20   3
ATOM      3  O   UNL     1     -10.158  -7.330   8.758  0.00  0.00    -0.484 OA
BRANCH   3  24
ATOM     24  C   UNL     1     -10.676  -6.152   9.218  0.00  0.00    +0.121 A 
ATOM     27  C   UNL     1     -11.683  -6.162  10.183  0.00  0.00    +0.045 A 
ATOM     28  C   UNL     1     -10.200  -4.940   8.720  0.00  0.00    +0.045 A 
ATOM     29  C   UNL     1     -12.212  -4.960  10.653  0.00  0.00    +0.004 A 
ATOM     30  C   UNL     1     -10.728  -3.737   9.189  0.00  0.00    +0.004 A 
ATOM     31  C   UNL     1     -11.734  -3.747  10.155  0.00  0.00    +0.000 A 
ENDBRANCH   3  24
ENDBRANCH  20   3
ENDBRANCH  18  20
ENDBRANCH  13  15
ENDBRANCH   9  13
BRANCH   8  14
ATOM     14  C   UNL     1      -3.007 -10.821  12.618  0.00  0.00    +0.099 C 
BRANCH  14  16
ATOM      1  O   UNL     1      -1.615 -11.658  14.410  0.00  0.00    -0.276 OA
ATOM      5  N   UNL     1      -3.540 -10.461  14.924  0.00  0.00    -0.311 N 
ATOM     16  C   UNL     1      -2.619 -11.041  14.064  0.00  0.00    +0.214 C 
ATOM     33  H   UNL     1      -4.349  -9.985  14.537  0.00  0.00    +0.149 HD
BRANCH   5  19
ATOM     19  C   UNL     1      -3.420 -10.517  16.363  0.00  0.00    +0.141 C 
BRANCH  19  21
ATOM      7  N   UNL     1      -7.005  -9.493  16.989  0.00  0.00    -0.263 NA
ATOM     21  C   UNL     1      -4.749 -10.357  17.043  0.00  0.00    -0.012 A 
ATOM     22  C   UNL     1      -4.975 -10.888  18.309  0.00  0.00    +0.008 A 
ATOM     23  C   UNL     1      -5.787  -9.674  16.432  0.00  0.00    +0.115 A 
ATOM     25  C   UNL     1      -6.215 -10.722  18.915  0.00  0.00    +0.020 A 
ATOM     26  C   UNL     1      -7.188 -10.023  18.219  0.00  0.00    +0.111 A 
ENDBRANCH  19  21
ENDBRANCH   5  19
ENDBRANCH  14  16
ENDBRANCH   8  14
TORSDOF 9
ENDMDL
