MODEL 1
REMARK VINA RESULT:      -6.4      0.000      0.000
REMARK  Name = 75536765
REMARK  7 active torsions:
REMARK  status: ('A' for Active; 'I' for Inactive)
REMARK    1  A    between atoms: O_2  and  C_8
REMARK    2  A    between atoms: N_4  and  C_7
REMARK    3  A    between atoms: N_4  and  C_12
REMARK    4  A    between atoms: N_4  and  C_13
REMARK    5  A    between atoms: N_5  and  C_11
REMARK    6  A    between atoms: N_6  and  C_15
REMARK    7  A    between atoms: C_9  and  C_11
REMARK                            x       y       z     vdW  Elec       q    Type
REMARK                         _______ _______ _______ _____ _____    ______ ____
ROOT
ATOM      3  O   UNL     1      12.210  10.574  23.315  0.00  0.00    -0.253 OA
ATOM      5  N   UNL     1      10.322   9.408  22.661  0.00  0.00    -0.297 N 
ATOM      6  N   UNL     1      10.075  11.525  23.537  0.00  0.00    -0.269 N 
ATOM     14  C   UNL     1      10.988  10.526  23.191  0.00  0.00    +0.304 C 
ATOM     22  H   UNL     1       9.309   9.434  22.601  0.00  0.00    +0.150 HD
ATOM     23  H   UNL     1       9.093  11.323  23.370  0.00  0.00    +0.156 HD
ENDROOT
BRANCH   6  15
ATOM     15  C   UNL     1      10.350  12.794  24.099  0.00  0.00    +0.035 A 
ATOM     16  C   UNL     1      10.682  12.902  25.449  0.00  0.00    +0.023 A 
ATOM     17  C   UNL     1      10.288  13.938  23.302  0.00  0.00    +0.023 A 
ATOM     18  C   UNL     1      10.953  14.153  26.004  0.00  0.00    +0.002 A 
ATOM     19  C   UNL     1      10.559  15.189  23.857  0.00  0.00    +0.002 A 
ATOM     20  C   UNL     1      10.891  15.296  25.207  0.00  0.00    +0.000 A 
ENDBRANCH   6  15
BRANCH   5  11
ATOM     11  C   UNL     1      10.997   8.224  22.215  0.00  0.00    +0.140 C 
BRANCH  11   9
ATOM      1  O   UNL     1      11.421   9.507  20.211  0.00  0.00    -0.371 OA
ATOM      7  C   UNL     1      12.532   7.908  18.852  0.00  0.00    +0.113 C 
ATOM      8  C   UNL     1      12.233   7.286  20.204  0.00  0.00    +0.164 C 
ATOM      9  C   UNL     1      11.114   8.192  20.701  0.00  0.00    +0.165 C 
ATOM     10  C   UNL     1      12.403   9.389  19.166  0.00  0.00    +0.181 C 
BRANCH   7   4
ATOM      4  N   UNL     1      13.839   7.554  18.323  0.00  0.00    -0.301 NA
ATOM     12  C   UNL     1      13.992   8.035  16.947  0.00  0.00    +0.105 C 
ATOM     13  C   UNL     1      14.908   8.095  19.166  0.00  0.00    +0.105 C 
ENDBRANCH   7   4
BRANCH   8   2
ATOM      2  O   UNL     1      11.816   5.939  20.105  0.00  0.00    -0.388 OA
ATOM     21  H   UNL     1      11.101   5.888  19.448  0.00  0.00    +0.210 HD
ENDBRANCH   8   2
ENDBRANCH  11   9
ENDBRANCH   5  11
TORSDOF 5
ENDMDL
MODEL 2
REMARK VINA RESULT:      -6.1     14.222     19.238
REMARK  Name = 75536765
REMARK  7 active torsions:
REMARK  status: ('A' for Active; 'I' for Inactive)
REMARK    1  A    between atoms: O_2  and  C_8
REMARK    2  A    between atoms: N_4  and  C_7
REMARK    3  A    between atoms: N_4  and  C_12
REMARK    4  A    between atoms: N_4  and  C_13
REMARK    5  A    between atoms: N_5  and  C_11
REMARK    6  A    between atoms: N_6  and  C_15
REMARK    7  A    between atoms: C_9  and  C_11
REMARK                            x       y       z     vdW  Elec       q    Type
REMARK                         _______ _______ _______ _____ _____    ______ ____
ROOT
ATOM      3  O   UNL     1      12.017   7.300   2.666  0.00  0.00    -0.253 OA
ATOM      5  N   UNL     1      11.719   6.439   4.791  0.00  0.00    -0.297 N 
ATOM      6  N   UNL     1      11.996   4.981   3.029  0.00  0.00    -0.269 N 
ATOM     14  C   UNL     1      11.922   6.324   3.406  0.00  0.00    +0.304 C 
ATOM     22  H   UNL     1      11.636   5.588   5.339  0.00  0.00    +0.150 HD
ATOM     23  H   UNL     1      11.895   4.293   3.770  0.00  0.00    +0.156 HD
ENDROOT
BRANCH   6  15
ATOM     15  C   UNL     1      12.192   4.454   1.731  0.00  0.00    +0.035 A 
ATOM     16  C   UNL     1      13.433   3.927   1.372  0.00  0.00    +0.023 A 
ATOM     17  C   UNL     1      11.145   4.461   0.808  0.00  0.00    +0.023 A 
ATOM     18  C   UNL     1      13.628   3.407   0.093  0.00  0.00    +0.002 A 
ATOM     19  C   UNL     1      11.340   3.942  -0.471  0.00  0.00    +0.002 A 
ATOM     20  C   UNL     1      12.581   3.415  -0.829  0.00  0.00    +0.000 A 
ENDBRANCH   6  15
BRANCH   5  11
ATOM     11  C   UNL     1      11.603   7.696   5.472  0.00  0.00    +0.140 C 
BRANCH  11   9
ATOM      1  O   UNL     1       9.835   7.769   7.121  0.00  0.00    -0.371 OA
ATOM      7  C   UNL     1      10.477   6.009   8.579  0.00  0.00    +0.113 C 
ATOM      8  C   UNL     1      11.459   6.077   7.425  0.00  0.00    +0.164 C 
ATOM      9  C   UNL     1      11.235   7.501   6.933  0.00  0.00    +0.165 C 
ATOM     10  C   UNL     1       9.296   6.781   8.017  0.00  0.00    +0.181 C 
BRANCH   7   4
ATOM      4  N   UNL     1      10.131   4.653   8.973  0.00  0.00    -0.301 NA
ATOM     12  C   UNL     1       9.135   4.660  10.048  0.00  0.00    +0.105 C 
ATOM     13  C   UNL     1       9.630   3.889   7.827  0.00  0.00    +0.105 C 
ENDBRANCH   7   4
BRANCH   8   2
ATOM      2  O   UNL     1      12.797   5.865   7.832  0.00  0.00    -0.388 OA
ATOM     21  H   UNL     1      13.236   6.730   7.901  0.00  0.00    +0.210 HD
ENDBRANCH   8   2
ENDBRANCH  11   9
ENDBRANCH   5  11
TORSDOF 5
ENDMDL
MODEL 3
REMARK VINA RESULT:      -6.0     27.044     28.483
REMARK  Name = 75536765
REMARK  7 active torsions:
REMARK  status: ('A' for Active; 'I' for Inactive)
REMARK    1  A    between atoms: O_2  and  C_8
REMARK    2  A    between atoms: N_4  and  C_7
REMARK    3  A    between atoms: N_4  and  C_12
REMARK    4  A    between atoms: N_4  and  C_13
REMARK    5  A    between atoms: N_5  and  C_11
REMARK    6  A    between atoms: N_6  and  C_15
REMARK    7  A    between atoms: C_9  and  C_11
REMARK                            x       y       z     vdW  Elec       q    Type
REMARK                         _______ _______ _______ _____ _____    ______ ____
ROOT
ATOM      3  O   UNL     1     -15.959   3.144  23.184  0.00  0.00    -0.253 OA
ATOM      5  N   UNL     1     -15.727   3.328  25.478  0.00  0.00    -0.297 N 
ATOM      6  N   UNL     1     -14.708   4.892  24.127  0.00  0.00    -0.269 N 
ATOM     14  C   UNL     1     -15.501   3.742  24.155  0.00  0.00    +0.304 C 
ATOM     22  H   UNL     1     -15.306   3.864  26.230  0.00  0.00    +0.150 HD
ATOM     23  H   UNL     1     -14.410   5.261  25.026  0.00  0.00    +0.156 HD
ENDROOT
BRANCH   6  15
ATOM     15  C   UNL     1     -14.262   5.611  22.994  0.00  0.00    +0.035 A 
ATOM     16  C   UNL     1     -13.030   5.307  22.415  0.00  0.00    +0.023 A 
ATOM     17  C   UNL     1     -15.055   6.625  22.455  0.00  0.00    +0.023 A 
ATOM     18  C   UNL     1     -12.590   6.015  21.297  0.00  0.00    +0.002 A 
ATOM     19  C   UNL     1     -14.614   7.334  21.338  0.00  0.00    +0.002 A 
ATOM     20  C   UNL     1     -13.382   7.029  20.759  0.00  0.00    +0.000 A 
ENDBRANCH   6  15
BRANCH   5  11
ATOM     11  C   UNL     1     -16.509   2.175  25.823  0.00  0.00    +0.140 C 
BRANCH  11   9
ATOM      1  O   UNL     1     -16.389   0.737  27.763  0.00  0.00    -0.371 OA
ATOM      7  C   UNL     1     -15.717   2.271  29.447  0.00  0.00    +0.113 C 
ATOM      8  C   UNL     1     -15.789   2.998  28.117  0.00  0.00    +0.164 C 
ATOM      9  C   UNL     1     -16.702   2.070  27.326  0.00  0.00    +0.165 C 
ATOM     10  C   UNL     1     -15.651   0.822  28.996  0.00  0.00    +0.181 C 
BRANCH   7   4
ATOM      4  N   UNL     1     -14.579   2.661  30.264  0.00  0.00    -0.301 NA
ATOM     12  C   UNL     1     -15.023   3.347  31.481  0.00  0.00    +0.105 C 
ATOM     13  C   UNL     1     -13.762   1.495  30.613  0.00  0.00    +0.105 C 
ENDBRANCH   7   4
BRANCH   8   2
ATOM      2  O   UNL     1     -16.333   4.298  28.233  0.00  0.00    -0.388 OA
ATOM     21  H   UNL     1     -17.287   4.248  28.052  0.00  0.00    +0.210 HD
ENDBRANCH   8   2
ENDBRANCH  11   9
ENDBRANCH   5  11
TORSDOF 5
ENDMDL
MODEL 4
REMARK VINA RESULT:      -6.0      4.909      7.952
REMARK  Name = 75536765
REMARK  7 active torsions:
REMARK  status: ('A' for Active; 'I' for Inactive)
REMARK    1  A    between atoms: O_2  and  C_8
REMARK    2  A    between atoms: N_4  and  C_7
REMARK    3  A    between atoms: N_4  and  C_12
REMARK    4  A    between atoms: N_4  and  C_13
REMARK    5  A    between atoms: N_5  and  C_11
REMARK    6  A    between atoms: N_6  and  C_15
REMARK    7  A    between atoms: C_9  and  C_11
REMARK                            x       y       z     vdW  Elec       q    Type
REMARK                         _______ _______ _______ _____ _____    ______ ____
ROOT
ATOM      3  O   UNL     1      15.912   7.978  19.857  0.00  0.00    -0.253 OA
ATOM      5  N   UNL     1      16.361   5.793  19.249  0.00  0.00    -0.297 N 
ATOM      6  N   UNL     1      14.196   6.379  19.776  0.00  0.00    -0.269 N 
ATOM     14  C   UNL     1      15.511   6.835  19.652  0.00  0.00    +0.304 C 
ATOM     22  H   UNL     1      15.961   4.870  19.111  0.00  0.00    +0.150 HD
ATOM     23  H   UNL     1      14.033   5.397  19.569  0.00  0.00    +0.156 HD
ENDROOT
BRANCH   6  15
ATOM     15  C   UNL     1      13.053   7.119  20.158  0.00  0.00    +0.035 A 
ATOM     16  C   UNL     1      12.323   7.821  19.199  0.00  0.00    +0.023 A 
ATOM     17  C   UNL     1      12.654   7.147  21.495  0.00  0.00    +0.023 A 
ATOM     18  C   UNL     1      11.196   8.551  19.575  0.00  0.00    +0.002 A 
ATOM     19  C   UNL     1      11.528   7.878  21.871  0.00  0.00    +0.002 A 
ATOM     20  C   UNL     1      10.798   8.579  20.912  0.00  0.00    +0.000 A 
ENDBRANCH   6  15
BRANCH   5  11
ATOM     11  C   UNL     1      17.770   5.958  19.038  0.00  0.00    +0.140 C 
BRANCH  11   9
ATOM      1  O   UNL     1      19.681   4.818  19.985  0.00  0.00    -0.371 OA
ATOM      7  C   UNL     1      20.307   6.310  21.722  0.00  0.00    +0.113 C 
ATOM      8  C   UNL     1      19.134   6.901  20.963  0.00  0.00    +0.164 C 
ATOM      9  C   UNL     1      18.557   5.656  20.301  0.00  0.00    +0.165 C 
ATOM     10  C   UNL     1      20.820   5.280  20.731  0.00  0.00    +0.181 C 
BRANCH   7   4
ATOM      4  N   UNL     1      21.315   7.289  22.094  0.00  0.00    -0.301 NA
ATOM     12  C   UNL     1      22.526   6.629  22.591  0.00  0.00    +0.105 C 
ATOM     13  C   UNL     1      21.645   8.156  20.959  0.00  0.00    +0.105 C 
ENDBRANCH   7   4
BRANCH   8   2
ATOM      2  O   UNL     1      18.194   7.530  21.812  0.00  0.00    -0.388 OA
ATOM     21  H   UNL     1      17.891   8.347  21.380  0.00  0.00    +0.210 HD
ENDBRANCH   8   2
ENDBRANCH  11   9
ENDBRANCH   5  11
TORSDOF 5
ENDMDL
MODEL 5
REMARK VINA RESULT:      -5.9     27.166     28.233
REMARK  Name = 75536765
REMARK  7 active torsions:
REMARK  status: ('A' for Active; 'I' for Inactive)
REMARK    1  A    between atoms: O_2  and  C_8
REMARK    2  A    between atoms: N_4  and  C_7
REMARK    3  A    between atoms: N_4  and  C_12
REMARK    4  A    between atoms: N_4  and  C_13
REMARK    5  A    between atoms: N_5  and  C_11
REMARK    6  A    between atoms: N_6  and  C_15
REMARK    7  A    between atoms: C_9  and  C_11
REMARK                            x       y       z     vdW  Elec       q    Type
REMARK                         _______ _______ _______ _____ _____    ______ ____
ROOT
ATOM      3  O   UNL     1     -17.212   2.743  27.529  0.00  0.00    -0.253 OA
ATOM      5  N   UNL     1     -15.690   3.652  26.044  0.00  0.00    -0.297 N 
ATOM      6  N   UNL     1     -15.043   3.307  28.229  0.00  0.00    -0.269 N 
ATOM     14  C   UNL     1     -16.087   3.187  27.308  0.00  0.00    +0.304 C 
ATOM     22  H   UNL     1     -14.749   4.018  25.939  0.00  0.00    +0.150 HD
ATOM     23  H   UNL     1     -14.172   3.699  27.881  0.00  0.00    +0.156 HD
ENDROOT
BRANCH   6  15
ATOM     15  C   UNL     1     -15.048   2.951  29.597  0.00  0.00    +0.035 A 
ATOM     16  C   UNL     1     -15.431   3.885  30.560  0.00  0.00    +0.023 A 
ATOM     17  C   UNL     1     -14.670   1.664  29.985  0.00  0.00    +0.023 A 
ATOM     18  C   UNL     1     -15.436   3.534  31.911  0.00  0.00    +0.002 A 
ATOM     19  C   UNL     1     -14.674   1.314  31.335  0.00  0.00    +0.002 A 
ATOM     20  C   UNL     1     -15.057   2.248  32.298  0.00  0.00    +0.000 A 
ENDBRANCH   6  15
BRANCH   5  11
ATOM     11  C   UNL     1     -16.549   3.654  24.896  0.00  0.00    +0.140 C 
BRANCH  11   9
ATOM      1  O   UNL     1     -16.627   4.045  22.511  0.00  0.00    -0.371 OA
ATOM      7  C   UNL     1     -14.547   5.128  22.142  0.00  0.00    +0.113 C 
ATOM      8  C   UNL     1     -14.704   4.852  23.626  0.00  0.00    +0.164 C 
ATOM      9  C   UNL     1     -15.749   3.744  23.608  0.00  0.00    +0.165 C 
ATOM     10  C   UNL     1     -15.983   5.008  21.659  0.00  0.00    +0.181 C 
BRANCH   7   4
ATOM      4  N   UNL     1     -13.958   6.425  21.848  0.00  0.00    -0.301 NA
ATOM     12  C   UNL     1     -12.621   6.270  21.269  0.00  0.00    +0.105 C 
ATOM     13  C   UNL     1     -14.814   7.193  20.940  0.00  0.00    +0.105 C 
ENDBRANCH   7   4
BRANCH   8   2
ATOM      2  O   UNL     1     -13.499   4.430  24.233  0.00  0.00    -0.388 OA
ATOM     21  H   UNL     1     -13.417   3.469  24.114  0.00  0.00    +0.210 HD
ENDBRANCH   8   2
ENDBRANCH  11   9
ENDBRANCH   5  11
TORSDOF 5
ENDMDL
MODEL 6
REMARK VINA RESULT:      -5.8      4.302      8.826
REMARK  Name = 75536765
REMARK  7 active torsions:
REMARK  status: ('A' for Active; 'I' for Inactive)
REMARK    1  A    between atoms: O_2  and  C_8
REMARK    2  A    between atoms: N_4  and  C_7
REMARK    3  A    between atoms: N_4  and  C_12
REMARK    4  A    between atoms: N_4  and  C_13
REMARK    5  A    between atoms: N_5  and  C_11
REMARK    6  A    between atoms: N_6  and  C_15
REMARK    7  A    between atoms: C_9  and  C_11
REMARK                            x       y       z     vdW  Elec       q    Type
REMARK                         _______ _______ _______ _____ _____    ______ ____
ROOT
ATOM      3  O   UNL     1      17.280   5.909  18.969  0.00  0.00    -0.253 OA
ATOM      5  N   UNL     1      15.952   6.806  20.637  0.00  0.00    -0.297 N 
ATOM      6  N   UNL     1      18.228   6.674  20.976  0.00  0.00    -0.269 N 
ATOM     14  C   UNL     1      17.183   6.412  20.086  0.00  0.00    +0.304 C 
ATOM     22  H   UNL     1      15.947   7.202  21.571  0.00  0.00    +0.150 HD
ATOM     23  H   UNL     1      17.974   7.094  21.866  0.00  0.00    +0.156 HD
ENDROOT
BRANCH   6  15
ATOM     15  C   UNL     1      19.607   6.422  20.793  0.00  0.00    +0.035 A 
ATOM     16  C   UNL     1      20.061   5.114  20.624  0.00  0.00    +0.023 A 
ATOM     17  C   UNL     1      20.515   7.482  20.779  0.00  0.00    +0.023 A 
ATOM     18  C   UNL     1      21.422   4.864  20.443  0.00  0.00    +0.002 A 
ATOM     19  C   UNL     1      21.875   7.232  20.598  0.00  0.00    +0.002 A 
ATOM     20  C   UNL     1      22.329   5.924  20.430  0.00  0.00    +0.000 A 
ENDBRANCH   6  15
BRANCH   5  11
ATOM     11  C   UNL     1      14.699   6.662  19.955  0.00  0.00    +0.140 C 
BRANCH  11   9
ATOM      1  O   UNL     1      12.963   7.990  18.919  0.00  0.00    -0.371 OA
ATOM      7  C   UNL     1      11.937   8.985  20.815  0.00  0.00    +0.113 C 
ATOM      8  C   UNL     1      13.037   8.050  21.283  0.00  0.00    +0.164 C 
ATOM      9  C   UNL     1      13.884   7.942  20.022  0.00  0.00    +0.165 C 
ATOM     10  C   UNL     1      11.702   8.490  19.398  0.00  0.00    +0.181 C 
BRANCH   7   4
ATOM      4  N   UNL     1      10.739   8.935  21.637  0.00  0.00    -0.301 NA
ATOM     12  C   UNL     1      10.526   7.585  22.166  0.00  0.00    +0.105 C 
ATOM     13  C   UNL     1      10.821   9.899  22.738  0.00  0.00    +0.105 C 
ENDBRANCH   7   4
BRANCH   8   2
ATOM      2  O   UNL     1      13.774   8.575  22.369  0.00  0.00    -0.388 OA
ATOM     21  H   UNL     1      14.489   7.951  22.583  0.00  0.00    +0.210 HD
ENDBRANCH   8   2
ENDBRANCH  11   9
ENDBRANCH   5  11
TORSDOF 5
ENDMDL
MODEL 7
REMARK VINA RESULT:      -5.8     26.582     28.337
REMARK  Name = 75536765
REMARK  7 active torsions:
REMARK  status: ('A' for Active; 'I' for Inactive)
REMARK    1  A    between atoms: O_2  and  C_8
REMARK    2  A    between atoms: N_4  and  C_7
REMARK    3  A    between atoms: N_4  and  C_12
REMARK    4  A    between atoms: N_4  and  C_13
REMARK    5  A    between atoms: N_5  and  C_11
REMARK    6  A    between atoms: N_6  and  C_15
REMARK    7  A    between atoms: C_9  and  C_11
REMARK                            x       y       z     vdW  Elec       q    Type
REMARK                         _______ _______ _______ _____ _____    ______ ____
ROOT
ATOM      3  O   UNL     1      -9.295 -10.100  16.370  0.00  0.00    -0.253 OA
ATOM      5  N   UNL     1      -8.140  -9.544  18.294  0.00  0.00    -0.297 N 
ATOM      6  N   UNL     1      -9.767  -8.108  17.518  0.00  0.00    -0.269 N 
ATOM     14  C   UNL     1      -9.101  -9.316  17.295  0.00  0.00    +0.304 C 
ATOM     22  H   UNL     1      -8.025  -8.845  19.022  0.00  0.00    +0.150 HD
ATOM     23  H   UNL     1      -9.482  -7.575  18.335  0.00  0.00    +0.156 HD
ENDROOT
BRANCH   6  15
ATOM     15  C   UNL     1     -10.796  -7.529  16.741  0.00  0.00    +0.035 A 
ATOM     16  C   UNL     1     -12.094  -8.035  16.812  0.00  0.00    +0.023 A 
ATOM     17  C   UNL     1     -10.514  -6.450  15.901  0.00  0.00    +0.023 A 
ATOM     18  C   UNL     1     -13.110  -7.464  16.045  0.00  0.00    +0.002 A 
ATOM     19  C   UNL     1     -11.530  -5.880  15.134  0.00  0.00    +0.002 A 
ATOM     20  C   UNL     1     -12.827  -6.386  15.206  0.00  0.00    +0.000 A 
ENDBRANCH   6  15
BRANCH   5  11
ATOM     11  C   UNL     1      -7.298 -10.705  18.332  0.00  0.00    +0.140 C 
BRANCH  11   9
ATOM      1  O   UNL     1      -4.991 -11.308  18.732  0.00  0.00    -0.371 OA
ATOM      7  C   UNL     1      -3.958 -10.582  16.722  0.00  0.00    +0.113 C 
ATOM      8  C   UNL     1      -5.452 -10.333  16.627  0.00  0.00    +0.164 C 
ATOM      9  C   UNL     1      -5.843 -10.339  18.099  0.00  0.00    +0.165 C 
ATOM     10  C   UNL     1      -3.892 -11.597  17.851  0.00  0.00    +0.181 C 
BRANCH   7   4
ATOM      4  N   UNL     1      -3.369 -11.072  15.486  0.00  0.00    -0.301 NA
ATOM     12  C   UNL     1      -1.906 -10.999  15.542  0.00  0.00    +0.105 C 
ATOM     13  C   UNL     1      -3.794 -12.448  15.213  0.00  0.00    +0.105 C 
ENDBRANCH   7   4
BRANCH   8   2
ATOM      2  O   UNL     1      -5.763  -9.103  16.005  0.00  0.00    -0.388 OA
ATOM     21  H   UNL     1      -5.946  -9.273  15.065  0.00  0.00    +0.210 HD
ENDBRANCH   8   2
ENDBRANCH  11   9
ENDBRANCH   5  11
TORSDOF 5
ENDMDL
MODEL 8
REMARK VINA RESULT:      -5.7     26.727     27.528
REMARK  Name = 75536765
REMARK  7 active torsions:
REMARK  status: ('A' for Active; 'I' for Inactive)
REMARK    1  A    between atoms: O_2  and  C_8
REMARK    2  A    between atoms: N_4  and  C_7
REMARK    3  A    between atoms: N_4  and  C_12
REMARK    4  A    between atoms: N_4  and  C_13
REMARK    5  A    between atoms: N_5  and  C_11
REMARK    6  A    between atoms: N_6  and  C_15
REMARK    7  A    between atoms: C_9  and  C_11
REMARK                            x       y       z     vdW  Elec       q    Type
REMARK                         _______ _______ _______ _____ _____    ______ ____
ROOT
ATOM      3  O   UNL     1      -3.988 -12.580  15.364  0.00  0.00    -0.253 OA
ATOM      5  N   UNL     1      -2.423 -11.074  14.569  0.00  0.00    -0.297 N 
ATOM      6  N   UNL     1      -3.974 -10.355  16.114  0.00  0.00    -0.269 N 
ATOM     14  C   UNL     1      -3.522 -11.443  15.363  0.00  0.00    +0.304 C 
ATOM     22  H   UNL     1      -2.100 -10.113  14.609  0.00  0.00    +0.150 HD
ATOM     23  H   UNL     1      -3.474  -9.478  15.993  0.00  0.00    +0.156 HD
ENDROOT
BRANCH   6  15
ATOM     15  C   UNL     1      -5.053 -10.320  17.028  0.00  0.00    +0.035 A 
ATOM     16  C   UNL     1      -4.897 -10.847  18.310  0.00  0.00    +0.023 A 
ATOM     17  C   UNL     1      -6.272  -9.759  16.648  0.00  0.00    +0.023 A 
ATOM     18  C   UNL     1      -5.960 -10.814  19.213  0.00  0.00    +0.002 A 
ATOM     19  C   UNL     1      -7.336  -9.726  17.550  0.00  0.00    +0.002 A 
ATOM     20  C   UNL     1      -7.180 -10.253  18.832  0.00  0.00    +0.000 A 
ENDBRANCH   6  15
BRANCH   5  11
ATOM     11  C   UNL     1      -1.742 -11.981  13.690  0.00  0.00    +0.140 C 
BRANCH  11   9
ATOM      1  O   UNL     1      -3.340 -12.378  11.919  0.00  0.00    -0.371 OA
ATOM      7  C   UNL     1      -3.236 -10.330  10.722  0.00  0.00    +0.113 C 
ATOM      8  C   UNL     1      -2.322 -10.243  11.931  0.00  0.00    +0.164 C 
ATOM      9  C   UNL     1      -2.104 -11.719  12.239  0.00  0.00    +0.165 C 
ATOM     10  C   UNL     1      -4.132 -11.496  11.105  0.00  0.00    +0.181 C 
BRANCH   7   4
ATOM      4  N   UNL     1      -3.978  -9.107  10.462  0.00  0.00    -0.301 NA
ATOM     12  C   UNL     1      -4.243  -8.953   9.029  0.00  0.00    +0.105 C 
ATOM     13  C   UNL     1      -5.237  -9.092  11.211  0.00  0.00    +0.105 C 
ENDBRANCH   7   4
BRANCH   8   2
ATOM      2  O   UNL     1      -1.106  -9.578  11.650  0.00  0.00    -0.388 OA
ATOM     21  H   UNL     1      -0.394 -10.240  11.627  0.00  0.00    +0.210 HD
ENDBRANCH   8   2
ENDBRANCH  11   9
ENDBRANCH   5  11
TORSDOF 5
ENDMDL
MODEL 9
REMARK VINA RESULT:      -5.7     27.729     29.498
REMARK  Name = 75536765
REMARK  7 active torsions:
REMARK  status: ('A' for Active; 'I' for Inactive)
REMARK    1  A    between atoms: O_2  and  C_8
REMARK    2  A    between atoms: N_4  and  C_7
REMARK    3  A    between atoms: N_4  and  C_12
REMARK    4  A    between atoms: N_4  and  C_13
REMARK    5  A    between atoms: N_5  and  C_11
REMARK    6  A    between atoms: N_6  and  C_15
REMARK    7  A    between atoms: C_9  and  C_11
REMARK                            x       y       z     vdW  Elec       q    Type
REMARK                         _______ _______ _______ _____ _____    ______ ____
ROOT
ATOM      3  O   UNL     1      -9.359 -10.546  17.023  0.00  0.00    -0.253 OA
ATOM      5  N   UNL     1      -9.881  -8.389  17.673  0.00  0.00    -0.297 N 
ATOM      6  N   UNL     1      -7.763  -9.196  18.091  0.00  0.00    -0.269 N 
ATOM     14  C   UNL     1      -9.016  -9.489  17.547  0.00  0.00    +0.304 C 
ATOM     22  H   UNL     1      -9.533  -7.552  18.130  0.00  0.00    +0.150 HD
ATOM     23  H   UNL     1      -7.645  -8.268  18.490  0.00  0.00    +0.156 HD
ENDROOT
BRANCH   6  15
ATOM     15  C   UNL     1      -6.629 -10.037  18.159  0.00  0.00    +0.035 A 
ATOM     16  C   UNL     1      -6.355 -10.747  19.328  0.00  0.00    +0.023 A 
ATOM     17  C   UNL     1      -5.782 -10.158  17.056  0.00  0.00    +0.023 A 
ATOM     18  C   UNL     1      -5.236 -11.577  19.396  0.00  0.00    +0.002 A 
ATOM     19  C   UNL     1      -4.663 -10.988  17.124  0.00  0.00    +0.002 A 
ATOM     20  C   UNL     1      -4.390 -11.697  18.293  0.00  0.00    +0.000 A 
ENDBRANCH   6  15
BRANCH   5  11
ATOM     11  C   UNL     1     -11.236  -8.391  17.205  0.00  0.00    +0.140 C 
BRANCH  11   9
ATOM      1  O   UNL     1     -12.459  -8.568  15.126  0.00  0.00    -0.371 OA
ATOM      7  C   UNL     1     -12.169  -6.392  14.221  0.00  0.00    +0.113 C 
ATOM      8  C   UNL     1     -11.504  -6.453  15.584  0.00  0.00    +0.164 C 
ATOM      9  C   UNL     1     -11.319  -7.956  15.752  0.00  0.00    +0.165 C 
ATOM     10  C   UNL     1     -13.098  -7.592  14.285  0.00  0.00    +0.181 C 
BRANCH   7   4
ATOM      4  N   UNL     1     -12.872  -5.145  13.970  0.00  0.00    -0.301 NA
ATOM     12  C   UNL     1     -12.261  -4.418  12.853  0.00  0.00    +0.105 C 
ATOM     13  C   UNL     1     -14.290  -5.391  13.693  0.00  0.00    +0.105 C 
ENDBRANCH   7   4
BRANCH   8   2
ATOM      2  O   UNL     1     -10.271  -5.763  15.622  0.00  0.00    -0.388 OA
ATOM     21  H   UNL     1     -10.450  -4.811  15.532  0.00  0.00    +0.210 HD
ENDBRANCH   8   2
ENDBRANCH  11   9
ENDBRANCH   5  11
TORSDOF 5
ENDMDL
MODEL 10
REMARK VINA RESULT:      -5.7     16.534     20.512
REMARK  Name = 75536765
REMARK  7 active torsions:
REMARK  status: ('A' for Active; 'I' for Inactive)
REMARK    1  A    between atoms: O_2  and  C_8
REMARK    2  A    between atoms: N_4  and  C_7
REMARK    3  A    between atoms: N_4  and  C_12
REMARK    4  A    between atoms: N_4  and  C_13
REMARK    5  A    between atoms: N_5  and  C_11
REMARK    6  A    between atoms: N_6  and  C_15
REMARK    7  A    between atoms: C_9  and  C_11
REMARK                            x       y       z     vdW  Elec       q    Type
REMARK                         _______ _______ _______ _____ _____    ______ ____
ROOT
ATOM      3  O   UNL     1      11.967   6.191   3.727  0.00  0.00    -0.253 OA
ATOM      5  N   UNL     1      11.537   4.112   2.810  0.00  0.00    -0.297 N 
ATOM      6  N   UNL     1      10.223   4.853   4.551  0.00  0.00    -0.269 N 
ATOM     14  C   UNL     1      11.297   5.161   3.713  0.00  0.00    +0.304 C 
ATOM     22  H   UNL     1      10.952   3.284   2.865  0.00  0.00    +0.150 HD
ATOM     23  H   UNL     1       9.776   3.952   4.407  0.00  0.00    +0.156 HD
ENDROOT
BRANCH   6  15
ATOM     15  C   UNL     1       9.676   5.646   5.586  0.00  0.00    +0.035 A 
ATOM     16  C   UNL     1      10.092   5.457   6.904  0.00  0.00    +0.023 A 
ATOM     17  C   UNL     1       8.719   6.618   5.290  0.00  0.00    +0.023 A 
ATOM     18  C   UNL     1       9.554   6.239   7.926  0.00  0.00    +0.002 A 
ATOM     19  C   UNL     1       8.180   7.399   6.312  0.00  0.00    +0.002 A 
ATOM     20  C   UNL     1       8.597   7.210   7.629  0.00  0.00    +0.000 A 
ENDBRANCH   6  15
BRANCH   5  11
ATOM     11  C   UNL     1      12.579   4.140   1.824  0.00  0.00    +0.140 C 
BRANCH  11   9
ATOM      1  O   UNL     1      13.104   4.625  -0.486  0.00  0.00    -0.371 OA
ATOM      7  C   UNL     1      10.970   4.424  -1.507  0.00  0.00    +0.113 C 
ATOM      8  C   UNL     1      10.845   4.090  -0.033  0.00  0.00    +0.164 C 
ATOM      9  C   UNL     1      12.093   4.761   0.526  0.00  0.00    +0.165 C 
ATOM     10  C   UNL     1      12.466   4.272  -1.726  0.00  0.00    +0.181 C 
BRANCH   7   4
ATOM      4  N   UNL     1      10.181   3.560  -2.371  0.00  0.00    -0.301 NA
ATOM     12  C   UNL     1       9.372   4.353  -3.302  0.00  0.00    +0.105 C 
ATOM     13  C   UNL     1      11.043   2.637  -3.114  0.00  0.00    +0.105 C 
ENDBRANCH   7   4
BRANCH   8   2
ATOM      2  O   UNL     1       9.664   4.607   0.547  0.00  0.00    -0.388 OA
ATOM     21  H   UNL     1       8.901   4.228   0.077  0.00  0.00    +0.210 HD
ENDBRANCH   8   2
ENDBRANCH  11   9
ENDBRANCH   5  11
TORSDOF 5
ENDMDL
