MODEL 1
REMARK VINA RESULT:      -6.9      0.000      0.000
REMARK  Name = 51138146
REMARK  12 active torsions:
REMARK  status: ('A' for Active; 'I' for Inactive)
REMARK    1  A    between atoms: O_3  and  C_28
REMARK    2  A    between atoms: O_3  and  C_31
REMARK    3  A    between atoms: N_5  and  C_21
REMARK    4  A    between atoms: N_6  and  C_26
REMARK    5  A    between atoms: C_8  and  C_12
REMARK    6  A    between atoms: C_11  and  C_19
REMARK    7  A    between atoms: C_12  and  C_16
REMARK    8  A    between atoms: C_16  and  C_23
REMARK    9  A    between atoms: C_16  and  C_24
REMARK   10  A    between atoms: C_21  and  C_25
REMARK   11  A    between atoms: C_26  and  C_28
REMARK   12  A    between atoms: C_29  and  C_30
REMARK                            x       y       z     vdW  Elec       q    Type
REMARK                         _______ _______ _______ _____ _____    ______ ____
ROOT
ATOM      4  N   UNL     1      14.692   8.270  21.571  0.00  0.00    -0.299 NA
ATOM      5  N   UNL     1      19.467   6.889  20.675  0.00  0.00    -0.340 N 
ATOM      8  C   UNL     1      15.479   9.509  21.611  0.00  0.00    +0.085 C 
ATOM      9  C   UNL     1      17.001   9.339  21.548  0.00  0.00    -0.021 A 
ATOM     10  C   UNL     1      17.677   8.159  21.125  0.00  0.00    +0.008 A 
ATOM     11  C   UNL     1      14.814   7.511  20.334  0.00  0.00    +0.145 C 
ATOM     13  C   UNL     1      17.242   6.872  20.651  0.00  0.00    -0.020 A 
ATOM     14  C   UNL     1      15.843   6.390  20.462  0.00  0.00    +0.065 C 
ATOM     15  C   UNL     1      19.077   8.136  21.101  0.00  0.00    +0.050 A 
ATOM     17  C   UNL     1      18.373   6.123  20.397  0.00  0.00    +0.091 A 
ATOM     18  C   UNL     1      17.822  10.453  21.859  0.00  0.00    +0.006 A 
ATOM     20  C   UNL     1      19.869   9.230  21.455  0.00  0.00    +0.026 A 
ATOM     22  C   UNL     1      19.214  10.398  21.823  0.00  0.00    +0.002 A 
ATOM     32  H   UNL     1      14.892   7.686  22.382  0.00  0.00    +0.123 HD
ENDROOT
BRANCH  11  19
ATOM      1  O   UNL     1      13.003   6.758  18.976  0.00  0.00    -0.274 OA
ATOM      6  N   UNL     1      12.820   6.595  21.291  0.00  0.00    -0.312 N 
ATOM     19  C   UNL     1      13.461   6.912  20.105  0.00  0.00    +0.230 C 
ATOM     33  H   UNL     1      13.299   6.749  22.174  0.00  0.00    +0.149 HD
BRANCH   6  26
ATOM     26  C   UNL     1      11.494   6.025  21.346  0.00  0.00    +0.132 C 
BRANCH  26  28
ATOM     28  C   UNL     1      10.494   6.996  21.948  0.00  0.00    +0.178 C 
BRANCH  28   3
ATOM      3  O   UNL     1      10.552   8.231  21.244  0.00  0.00    -0.381 OA
ATOM     31  C   UNL     1      10.701   9.329  22.132  0.00  0.00    +0.194 C 
ENDBRANCH  28   3
ENDBRANCH  26  28
ENDBRANCH   6  26
ENDBRANCH  11  19
BRANCH   8  12
ATOM     12  C   UNL     1      15.017  10.222  22.895  0.00  0.00    +0.026 C 
BRANCH  12  16
ATOM     16  C   UNL     1      14.271  11.531  22.617  0.00  0.00    -0.015 C 
ATOM     23  C   UNL     1      15.127  12.767  22.895  0.00  0.00    +0.007 C 
ATOM     24  C   UNL     1      13.801  11.544  21.161  0.00  0.00    +0.007 C 
ENDBRANCH  12  16
ENDBRANCH   8  12
BRANCH   5  21
ATOM     21  C   UNL     1      20.834   6.442  20.518  0.00  0.00    +0.180 C 
BRANCH  21  25
ATOM      2  O   UNL     1      21.638   4.807  23.632  0.00  0.00    -0.360 OA
ATOM      7  N   UNL     1      21.121   5.866  22.896  0.00  0.00    -0.081 NA
ATOM     25  C   UNL     1      21.290   5.516  21.618  0.00  0.00    +0.103 A 
ATOM     27  C   UNL     1      21.903   4.258  21.487  0.00  0.00    +0.072 A 
ATOM     29  C   UNL     1      22.101   3.855  22.781  0.00  0.00    +0.135 A 
ATOM     30  C   UNL     1      22.685   2.657  23.395  0.00  0.00    +0.089 C 
ENDBRANCH  21  25
ENDBRANCH   5  21
TORSDOF 8
ENDMDL
MODEL 2
REMARK VINA RESULT:      -6.7      2.762      4.213
REMARK  Name = 51138146
REMARK  12 active torsions:
REMARK  status: ('A' for Active; 'I' for Inactive)
REMARK    1  A    between atoms: O_3  and  C_28
REMARK    2  A    between atoms: O_3  and  C_31
REMARK    3  A    between atoms: N_5  and  C_21
REMARK    4  A    between atoms: N_6  and  C_26
REMARK    5  A    between atoms: C_8  and  C_12
REMARK    6  A    between atoms: C_11  and  C_19
REMARK    7  A    between atoms: C_12  and  C_16
REMARK    8  A    between atoms: C_16  and  C_23
REMARK    9  A    between atoms: C_16  and  C_24
REMARK   10  A    between atoms: C_21  and  C_25
REMARK   11  A    between atoms: C_26  and  C_28
REMARK   12  A    between atoms: C_29  and  C_30
REMARK                            x       y       z     vdW  Elec       q    Type
REMARK                         _______ _______ _______ _____ _____    ______ ____
ROOT
ATOM      4  N   UNL     1      13.907   9.127  20.044  0.00  0.00    -0.299 NA
ATOM      5  N   UNL     1      18.670   8.427  21.570  0.00  0.00    -0.340 N 
ATOM      8  C   UNL     1      14.271   7.775  19.603  0.00  0.00    +0.085 C 
ATOM      9  C   UNL     1      15.742   7.384  19.785  0.00  0.00    -0.021 A 
ATOM     10  C   UNL     1      16.672   8.061  20.626  0.00  0.00    +0.008 A 
ATOM     11  C   UNL     1      14.058   9.362  21.474  0.00  0.00    +0.145 C 
ATOM     13  C   UNL     1      16.583   9.196  21.505  0.00  0.00    -0.020 A 
ATOM     14  C   UNL     1      15.388  10.041  21.793  0.00  0.00    +0.065 C 
ATOM     15  C   UNL     1      17.989   7.594  20.715  0.00  0.00    +0.050 A 
ATOM     17  C   UNL     1      17.834   9.390  22.054  0.00  0.00    +0.091 A 
ATOM     18  C   UNL     1      16.220   6.217  19.137  0.00  0.00    +0.006 A 
ATOM     20  C   UNL     1      18.452   6.468  20.032  0.00  0.00    +0.026 A 
ATOM     22  C   UNL     1      17.538   5.777  19.248  0.00  0.00    +0.002 A 
ATOM     32  H   UNL     1      14.401   9.833  19.501  0.00  0.00    +0.123 HD
ENDROOT
BRANCH  11  19
ATOM      1  O   UNL     1      12.839  11.410  21.363  0.00  0.00    -0.274 OA
ATOM      6  N   UNL     1      12.077   9.719  22.770  0.00  0.00    -0.312 N 
ATOM     19  C   UNL     1      12.935  10.282  21.841  0.00  0.00    +0.230 C 
ATOM     33  H   UNL     1      12.241   8.768  23.088  0.00  0.00    +0.149 HD
BRANCH   6  26
ATOM     26  C   UNL     1      10.927  10.409  23.305  0.00  0.00    +0.132 C 
BRANCH  26  28
ATOM     28  C   UNL     1      11.296  11.264  24.504  0.00  0.00    +0.178 C 
BRANCH  28   3
ATOM      3  O   UNL     1      10.233  12.165  24.788  0.00  0.00    -0.381 OA
ATOM     31  C   UNL     1      10.673  13.515  24.759  0.00  0.00    +0.194 C 
ENDBRANCH  28   3
ENDBRANCH  26  28
ENDBRANCH   6  26
ENDBRANCH  11  19
BRANCH   8  12
ATOM     12  C   UNL     1      13.822   7.711  18.131  0.00  0.00    +0.026 C 
BRANCH  12  16
ATOM     16  C   UNL     1      13.323   9.058  17.599  0.00  0.00    -0.015 C 
ATOM     23  C   UNL     1      14.228   9.632  16.509  0.00  0.00    +0.007 C 
ATOM     24  C   UNL     1      11.903   8.891  17.056  0.00  0.00    +0.007 C 
ENDBRANCH  12  16
ENDBRANCH   8  12
BRANCH   5  21
ATOM     21  C   UNL     1      20.066   8.304  21.932  0.00  0.00    +0.180 C 
BRANCH  21  25
ATOM      2  O   UNL     1      20.466   6.327  24.923  0.00  0.00    -0.360 OA
ATOM      7  N   UNL     1      20.233   6.463  23.560  0.00  0.00    -0.081 NA
ATOM     25  C   UNL     1      20.277   7.778  23.330  0.00  0.00    +0.103 A 
ATOM     27  C   UNL     1      20.533   8.516  24.498  0.00  0.00    +0.072 A 
ATOM     29  C   UNL     1      20.643   7.557  25.471  0.00  0.00    +0.135 A 
ATOM     30  C   UNL     1      20.903   7.599  26.915  0.00  0.00    +0.089 C 
ENDBRANCH  21  25
ENDBRANCH   5  21
TORSDOF 8
ENDMDL
MODEL 3
REMARK VINA RESULT:      -6.7     27.949     30.177
REMARK  Name = 51138146
REMARK  12 active torsions:
REMARK  status: ('A' for Active; 'I' for Inactive)
REMARK    1  A    between atoms: O_3  and  C_28
REMARK    2  A    between atoms: O_3  and  C_31
REMARK    3  A    between atoms: N_5  and  C_21
REMARK    4  A    between atoms: N_6  and  C_26
REMARK    5  A    between atoms: C_8  and  C_12
REMARK    6  A    between atoms: C_11  and  C_19
REMARK    7  A    between atoms: C_12  and  C_16
REMARK    8  A    between atoms: C_16  and  C_23
REMARK    9  A    between atoms: C_16  and  C_24
REMARK   10  A    between atoms: C_21  and  C_25
REMARK   11  A    between atoms: C_26  and  C_28
REMARK   12  A    between atoms: C_29  and  C_30
REMARK                            x       y       z     vdW  Elec       q    Type
REMARK                         _______ _______ _______ _____ _____    ______ ____
ROOT
ATOM      4  N   UNL     1      -6.768 -10.921  16.114  0.00  0.00    -0.299 NA
ATOM      5  N   UNL     1      -3.876 -10.238  12.030  0.00  0.00    -0.340 N 
ATOM      8  C   UNL     1      -5.401 -10.743  16.620  0.00  0.00    +0.085 C 
ATOM      9  C   UNL     1      -4.295 -10.699  15.560  0.00  0.00    -0.021 A 
ATOM     10  C   UNL     1      -4.501 -10.478  14.168  0.00  0.00    +0.008 A 
ATOM     11  C   UNL     1      -7.255  -9.830  15.281  0.00  0.00    +0.145 C 
ATOM     13  C   UNL     1      -5.664 -10.234  13.355  0.00  0.00    -0.020 A 
ATOM     14  C   UNL     1      -7.086 -10.140  13.795  0.00  0.00    +0.065 C 
ATOM     15  C   UNL     1      -3.401 -10.448  13.303  0.00  0.00    +0.050 A 
ATOM     17  C   UNL     1      -5.233 -10.103  12.051  0.00  0.00    +0.091 A 
ATOM     18  C   UNL     1      -2.945 -10.809  15.982  0.00  0.00    +0.006 A 
ATOM     20  C   UNL     1      -2.082 -10.605  13.732  0.00  0.00    +0.026 A 
ATOM     22  C   UNL     1      -1.871 -10.773  15.094  0.00  0.00    +0.002 A 
ATOM     32  H   UNL     1      -6.867 -11.818  15.641  0.00  0.00    +0.123 HD
ENDROOT
BRANCH  11  19
ATOM      1  O   UNL     1      -9.376 -10.687  15.958  0.00  0.00    -0.274 OA
ATOM      6  N   UNL     1      -9.195  -8.432  15.408  0.00  0.00    -0.312 N 
ATOM     19  C   UNL     1      -8.715  -9.717  15.596  0.00  0.00    +0.230 C 
ATOM     33  H   UNL     1      -8.555  -7.697  15.121  0.00  0.00    +0.149 HD
BRANCH   6  26
ATOM     26  C   UNL     1     -10.575  -8.064  15.621  0.00  0.00    +0.132 C 
BRANCH  26  28
ATOM     28  C   UNL     1     -10.730  -7.151  16.825  0.00  0.00    +0.178 C 
BRANCH  28   3
ATOM      3  O   UNL     1     -11.167  -5.869  16.392  0.00  0.00    -0.381 OA
ATOM     31  C   UNL     1     -11.811  -5.938  15.128  0.00  0.00    +0.194 C 
ENDBRANCH  28   3
ENDBRANCH  26  28
ENDBRANCH   6  26
ENDBRANCH  11  19
BRANCH   8  12
ATOM     12  C   UNL     1      -5.206 -11.890  17.628  0.00  0.00    +0.026 C 
BRANCH  12  16
ATOM     16  C   UNL     1      -4.760 -11.402  19.010  0.00  0.00    -0.015 C 
ATOM     23  C   UNL     1      -5.897 -11.412  20.033  0.00  0.00    +0.007 C 
ATOM     24  C   UNL     1      -3.610 -12.279  19.508  0.00  0.00    +0.007 C 
ENDBRANCH  12  16
ENDBRANCH   8  12
BRANCH   5  21
ATOM     21  C   UNL     1      -3.068 -10.150  10.833  0.00  0.00    +0.180 C 
BRANCH  21  25
ATOM      2  O   UNL     1      -4.971  -9.405   7.861  0.00  0.00    -0.360 OA
ATOM      7  N   UNL     1      -4.259  -9.027   8.992  0.00  0.00    -0.081 NA
ATOM     25  C   UNL     1      -3.878 -10.174   9.561  0.00  0.00    +0.103 A 
ATOM     27  C   UNL     1      -4.316 -11.298   8.840  0.00  0.00    +0.072 A 
ATOM     29  C   UNL     1      -4.999 -10.759   7.781  0.00  0.00    +0.135 A 
ATOM     30  C   UNL     1      -5.715 -11.333   6.635  0.00  0.00    +0.089 C 
ENDBRANCH  21  25
ENDBRANCH   5  21
TORSDOF 8
ENDMDL
MODEL 4
REMARK VINA RESULT:      -6.6     31.095     33.788
REMARK  Name = 51138146
REMARK  12 active torsions:
REMARK  status: ('A' for Active; 'I' for Inactive)
REMARK    1  A    between atoms: O_3  and  C_28
REMARK    2  A    between atoms: O_3  and  C_31
REMARK    3  A    between atoms: N_5  and  C_21
REMARK    4  A    between atoms: N_6  and  C_26
REMARK    5  A    between atoms: C_8  and  C_12
REMARK    6  A    between atoms: C_11  and  C_19
REMARK    7  A    between atoms: C_12  and  C_16
REMARK    8  A    between atoms: C_16  and  C_23
REMARK    9  A    between atoms: C_16  and  C_24
REMARK   10  A    between atoms: C_21  and  C_25
REMARK   11  A    between atoms: C_26  and  C_28
REMARK   12  A    between atoms: C_29  and  C_30
REMARK                            x       y       z     vdW  Elec       q    Type
REMARK                         _______ _______ _______ _____ _____    ______ ____
ROOT
ATOM      4  N   UNL     1     -15.093   2.788  28.955  0.00  0.00    -0.299 NA
ATOM      5  N   UNL     1     -15.772   6.470  32.345  0.00  0.00    -0.340 N 
ATOM      8  C   UNL     1     -14.933   2.153  30.270  0.00  0.00    +0.085 C 
ATOM      9  C   UNL     1     -14.911   3.101  31.474  0.00  0.00    -0.021 A 
ATOM     10  C   UNL     1     -15.360   4.453  31.461  0.00  0.00    +0.008 A 
ATOM     11  C   UNL     1     -16.362   3.475  28.762  0.00  0.00    +0.145 C 
ATOM     13  C   UNL     1     -15.934   5.307  30.455  0.00  0.00    -0.020 A 
ATOM     14  C   UNL     1     -16.236   4.973  29.033  0.00  0.00    +0.065 C 
ATOM     15  C   UNL     1     -15.299   5.212  32.636  0.00  0.00    +0.050 A 
ATOM     17  C   UNL     1     -16.161   6.536  31.039  0.00  0.00    +0.091 A 
ATOM     18  C   UNL     1     -14.487   2.596  32.729  0.00  0.00    +0.006 A 
ATOM     20  C   UNL     1     -14.834   4.709  33.852  0.00  0.00    +0.026 A 
ATOM     22  C   UNL     1     -14.440   3.378  33.882  0.00  0.00    +0.002 A 
ATOM     32  H   UNL     1     -14.306   3.402  28.750  0.00  0.00    +0.123 HD
ENDROOT
BRANCH  11  19
ATOM      1  O   UNL     1     -17.228   2.224  26.925  0.00  0.00    -0.274 OA
ATOM      6  N   UNL     1     -16.352   4.344  26.531  0.00  0.00    -0.312 N 
ATOM     19  C   UNL     1     -16.707   3.264  27.320  0.00  0.00    +0.230 C 
ATOM     33  H   UNL     1     -15.940   5.166  26.965  0.00  0.00    +0.149 HD
BRANCH   6  26
ATOM     26  C   UNL     1     -16.557   4.382  25.102  0.00  0.00    +0.132 C 
BRANCH  26  28
ATOM     28  C   UNL     1     -15.413   3.718  24.356  0.00  0.00    +0.178 C 
BRANCH  28   3
ATOM      3  O   UNL     1     -15.919   3.068  23.197  0.00  0.00    -0.381 OA
ATOM     31  C   UNL     1     -17.267   2.658  23.376  0.00  0.00    +0.194 C 
ENDBRANCH  28   3
ENDBRANCH  26  28
ENDBRANCH   6  26
ENDBRANCH  11  19
BRANCH   8  12
ATOM     12  C   UNL     1     -13.640   1.325  30.148  0.00  0.00    +0.026 C 
BRANCH  12  16
ATOM     16  C   UNL     1     -13.850  -0.161  30.455  0.00  0.00    -0.015 C 
ATOM     23  C   UNL     1     -15.305  -0.493  30.790  0.00  0.00    +0.007 C 
ATOM     24  C   UNL     1     -13.394  -0.993  29.256  0.00  0.00    +0.007 C 
ENDBRANCH  12  16
ENDBRANCH   8  12
BRANCH   5  21
ATOM     21  C   UNL     1     -15.870   7.570  33.280  0.00  0.00    +0.180 C 
BRANCH  21  25
ATOM      2  O   UNL     1     -13.255   9.920  34.087  0.00  0.00    -0.360 OA
ATOM      7  N   UNL     1     -14.550   9.430  34.210  0.00  0.00    -0.081 NA
ATOM     25  C   UNL     1     -14.596   8.367  33.401  0.00  0.00    +0.103 A 
ATOM     27  C   UNL     1     -13.372   8.140  32.749  0.00  0.00    +0.072 A 
ATOM     29  C   UNL     1     -12.564   9.144  33.214  0.00  0.00    +0.135 A 
ATOM     30  C   UNL     1     -11.167   9.522  32.966  0.00  0.00    +0.089 C 
ENDBRANCH  21  25
ENDBRANCH   5  21
TORSDOF 8
ENDMDL
MODEL 5
REMARK VINA RESULT:      -6.5      1.744      7.866
REMARK  Name = 51138146
REMARK  12 active torsions:
REMARK  status: ('A' for Active; 'I' for Inactive)
REMARK    1  A    between atoms: O_3  and  C_28
REMARK    2  A    between atoms: O_3  and  C_31
REMARK    3  A    between atoms: N_5  and  C_21
REMARK    4  A    between atoms: N_6  and  C_26
REMARK    5  A    between atoms: C_8  and  C_12
REMARK    6  A    between atoms: C_11  and  C_19
REMARK    7  A    between atoms: C_12  and  C_16
REMARK    8  A    between atoms: C_16  and  C_23
REMARK    9  A    between atoms: C_16  and  C_24
REMARK   10  A    between atoms: C_21  and  C_25
REMARK   11  A    between atoms: C_26  and  C_28
REMARK   12  A    between atoms: C_29  and  C_30
REMARK                            x       y       z     vdW  Elec       q    Type
REMARK                         _______ _______ _______ _____ _____    ______ ____
ROOT
ATOM      4  N   UNL     1      19.511   8.454  21.312  0.00  0.00    -0.299 NA
ATOM      5  N   UNL     1      14.992   7.501  19.269  0.00  0.00    -0.340 N 
ATOM      8  C   UNL     1      18.717   9.672  21.517  0.00  0.00    +0.085 C 
ATOM      9  C   UNL     1      17.352   9.707  20.821  0.00  0.00    -0.021 A 
ATOM     10  C   UNL     1      16.668   8.572  20.299  0.00  0.00    +0.008 A 
ATOM     11  C   UNL     1      18.916   7.241  21.855  0.00  0.00    +0.145 C 
ATOM     13  C   UNL     1      16.960   7.163  20.252  0.00  0.00    -0.020 A 
ATOM     14  C   UNL     1      18.162   6.458  20.783  0.00  0.00    +0.065 C 
ATOM     15  C   UNL     1      15.416   8.737  19.695  0.00  0.00    +0.050 A 
ATOM     17  C   UNL     1      15.909   6.548  19.603  0.00  0.00    +0.091 A 
ATOM     18  C   UNL     1      16.660  10.943  20.745  0.00  0.00    +0.006 A 
ATOM     20  C   UNL     1      14.772   9.971  19.588  0.00  0.00    +0.026 A 
ATOM     22  C   UNL     1      15.412  11.074  20.138  0.00  0.00    +0.002 A 
ATOM     32  H   UNL     1      19.752   8.338  20.329  0.00  0.00    +0.123 HD
ENDROOT
BRANCH  11  19
ATOM      1  O   UNL     1      20.253   6.204  23.537  0.00  0.00    -0.274 OA
ATOM      6  N   UNL     1      20.878   5.984  21.306  0.00  0.00    -0.312 N 
ATOM     19  C   UNL     1      20.071   6.421  22.342  0.00  0.00    +0.230 C 
ATOM     33  H   UNL     1      20.625   6.207  20.347  0.00  0.00    +0.149 HD
BRANCH   6  26
ATOM     26  C   UNL     1      22.070   5.194  21.510  0.00  0.00    +0.132 C 
BRANCH  26  28
ATOM     28  C   UNL     1      21.743   3.719  21.658  0.00  0.00    +0.178 C 
BRANCH  28   3
ATOM      3  O   UNL     1      21.960   3.320  23.006  0.00  0.00    -0.381 OA
ATOM     31  C   UNL     1      23.117   2.505  23.129  0.00  0.00    +0.194 C 
ENDBRANCH  28   3
ENDBRANCH  26  28
ENDBRANCH   6  26
ENDBRANCH  11  19
BRANCH   8  12
ATOM     12  C   UNL     1      19.639  10.820  21.066  0.00  0.00    +0.026 C 
BRANCH  12  16
ATOM     16  C   UNL     1      20.137  11.680  22.231  0.00  0.00    -0.015 C 
ATOM     23  C   UNL     1      19.228  11.595  23.457  0.00  0.00    +0.007 C 
ATOM     24  C   UNL     1      21.555  11.247  22.608  0.00  0.00    +0.007 C 
ENDBRANCH  12  16
ENDBRANCH   8  12
BRANCH   5  21
ATOM     21  C   UNL     1      13.747   7.228  18.583  0.00  0.00    +0.180 C 
BRANCH  21  25
ATOM      2  O   UNL     1      10.564   8.241  19.944  0.00  0.00    -0.360 OA
ATOM      7  N   UNL     1      11.502   8.183  18.920  0.00  0.00    -0.081 NA
ATOM     25  C   UNL     1      12.527   7.494  19.429  0.00  0.00    +0.103 A 
ATOM     27  C   UNL     1      12.295   7.094  20.756  0.00  0.00    +0.072 A 
ATOM     29  C   UNL     1      11.048   7.589  21.032  0.00  0.00    +0.135 A 
ATOM     30  C   UNL     1      10.178   7.552  22.214  0.00  0.00    +0.089 C 
ENDBRANCH  21  25
ENDBRANCH   5  21
TORSDOF 8
ENDMDL
MODEL 6
REMARK VINA RESULT:      -6.3     18.210     20.581
REMARK  Name = 51138146
REMARK  12 active torsions:
REMARK  status: ('A' for Active; 'I' for Inactive)
REMARK    1  A    between atoms: O_3  and  C_28
REMARK    2  A    between atoms: O_3  and  C_31
REMARK    3  A    between atoms: N_5  and  C_21
REMARK    4  A    between atoms: N_6  and  C_26
REMARK    5  A    between atoms: C_8  and  C_12
REMARK    6  A    between atoms: C_11  and  C_19
REMARK    7  A    between atoms: C_12  and  C_16
REMARK    8  A    between atoms: C_16  and  C_23
REMARK    9  A    between atoms: C_16  and  C_24
REMARK   10  A    between atoms: C_21  and  C_25
REMARK   11  A    between atoms: C_26  and  C_28
REMARK   12  A    between atoms: C_29  and  C_30
REMARK                            x       y       z     vdW  Elec       q    Type
REMARK                         _______ _______ _______ _____ _____    ______ ____
ROOT
ATOM      4  N   UNL     1      11.686   6.676   4.661  0.00  0.00    -0.299 NA
ATOM      5  N   UNL     1      12.193   4.105   0.343  0.00  0.00    -0.340 N 
ATOM      8  C   UNL     1      12.255   7.626   3.696  0.00  0.00    +0.085 C 
ATOM      9  C   UNL     1      12.679   7.037   2.346  0.00  0.00    -0.021 A 
ATOM     10  C   UNL     1      12.268   5.771   1.839  0.00  0.00    +0.008 A 
ATOM     11  C   UNL     1      10.432   6.064   4.243  0.00  0.00    +0.145 C 
ATOM     13  C   UNL     1      11.411   4.726   2.332  0.00  0.00    -0.020 A 
ATOM     14  C   UNL     1      10.659   4.689   3.619  0.00  0.00    +0.065 C 
ATOM     15  C   UNL     1      12.718   5.353   0.580  0.00  0.00    +0.050 A 
ATOM     17  C   UNL     1      11.402   3.721   1.386  0.00  0.00    +0.091 A 
ATOM     18  C   UNL     1      13.481   7.827   1.483  0.00  0.00    +0.006 A 
ATOM     20  C   UNL     1      13.546   6.127  -0.235  0.00  0.00    +0.026 A 
ATOM     22  C   UNL     1      13.910   7.382   0.234  0.00  0.00    +0.002 A 
ATOM     32  H   UNL     1      12.371   5.969   4.923  0.00  0.00    +0.123 HD
ENDROOT
BRANCH  11  19
ATOM      1  O   UNL     1       8.407   5.862   5.489  0.00  0.00    -0.274 OA
ATOM      6  N   UNL     1      10.437   5.847   6.628  0.00  0.00    -0.312 N 
ATOM     19  C   UNL     1       9.634   5.907   5.501  0.00  0.00    +0.230 C 
ATOM     33  H   UNL     1      11.447   5.876   6.523  0.00  0.00    +0.149 HD
BRANCH   6  26
ATOM     26  C   UNL     1       9.912   5.719   7.968  0.00  0.00    +0.132 C 
BRANCH  26  28
ATOM     28  C   UNL     1       9.858   4.268   8.410  0.00  0.00    +0.178 C 
BRANCH  28   3
ATOM      3  O   UNL     1       9.961   4.202   9.826  0.00  0.00    -0.381 OA
ATOM     31  C   UNL     1       8.758   4.618  10.457  0.00  0.00    +0.194 C 
ENDBRANCH  28   3
ENDBRANCH  26  28
ENDBRANCH   6  26
ENDBRANCH  11  19
BRANCH   8  12
ATOM     12  C   UNL     1      13.427   8.287   4.446  0.00  0.00    +0.026 C 
BRANCH  12  16
ATOM     16  C   UNL     1      14.427   7.271   5.006  0.00  0.00    -0.015 C 
ATOM     23  C   UNL     1      15.790   7.345   4.316  0.00  0.00    +0.007 C 
ATOM     24  C   UNL     1      14.596   7.504   6.508  0.00  0.00    +0.007 C 
ENDBRANCH  12  16
ENDBRANCH   8  12
BRANCH   5  21
ATOM     21  C   UNL     1      12.419   3.308  -0.843  0.00  0.00    +0.180 C 
BRANCH  21  25
ATOM      2  O   UNL     1       9.765   2.667  -3.201  0.00  0.00    -0.360 OA
ATOM      7  N   UNL     1      10.774   2.251  -2.342  0.00  0.00    -0.081 NA
ATOM     25  C   UNL     1      11.284   3.377  -1.835  0.00  0.00    +0.103 A 
ATOM     27  C   UNL     1      10.641   4.524  -2.331  0.00  0.00    +0.072 A 
ATOM     29  C   UNL     1       9.695   4.023  -3.186  0.00  0.00    +0.135 A 
ATOM     30  C   UNL     1       8.673   4.636  -4.043  0.00  0.00    +0.089 C 
ENDBRANCH  21  25
ENDBRANCH   5  21
TORSDOF 8
ENDMDL
MODEL 7
REMARK VINA RESULT:      -6.2     27.891     30.543
REMARK  Name = 51138146
REMARK  12 active torsions:
REMARK  status: ('A' for Active; 'I' for Inactive)
REMARK    1  A    between atoms: O_3  and  C_28
REMARK    2  A    between atoms: O_3  and  C_31
REMARK    3  A    between atoms: N_5  and  C_21
REMARK    4  A    between atoms: N_6  and  C_26
REMARK    5  A    between atoms: C_8  and  C_12
REMARK    6  A    between atoms: C_11  and  C_19
REMARK    7  A    between atoms: C_12  and  C_16
REMARK    8  A    between atoms: C_16  and  C_23
REMARK    9  A    between atoms: C_16  and  C_24
REMARK   10  A    between atoms: C_21  and  C_25
REMARK   11  A    between atoms: C_26  and  C_28
REMARK   12  A    between atoms: C_29  and  C_30
REMARK                            x       y       z     vdW  Elec       q    Type
REMARK                         _______ _______ _______ _____ _____    ______ ____
ROOT
ATOM      4  N   UNL     1      -8.968 -10.403  17.838  0.00  0.00    -0.299 NA
ATOM      5  N   UNL     1      -4.164 -10.500  16.284  0.00  0.00    -0.340 N 
ATOM      8  C   UNL     1      -8.170 -10.717  19.031  0.00  0.00    +0.085 C 
ATOM      9  C   UNL     1      -6.681 -10.986  18.789  0.00  0.00    -0.021 A 
ATOM     10  C   UNL     1      -5.965 -10.634  17.608  0.00  0.00    +0.008 A 
ATOM     11  C   UNL     1      -8.592  -9.169  17.162  0.00  0.00    +0.145 C 
ATOM     13  C   UNL     1      -6.323  -9.974  16.381  0.00  0.00    -0.020 A 
ATOM     14  C   UNL     1      -7.657  -9.437  15.985  0.00  0.00    +0.065 C 
ATOM     15  C   UNL     1      -4.599 -10.925  17.517  0.00  0.00    +0.050 A 
ATOM     17  C   UNL     1      -5.190  -9.923  15.595  0.00  0.00    +0.091 A 
ATOM     18  C   UNL     1      -5.916 -11.560  19.836  0.00  0.00    +0.006 A 
ATOM     20  C   UNL     1      -3.873 -11.533  18.542  0.00  0.00    +0.026 A 
ATOM     22  C   UNL     1      -4.555 -11.835  19.714  0.00  0.00    +0.002 A 
ATOM     32  H   UNL     1      -8.979 -11.189  17.190  0.00  0.00    +0.123 HD
ENDROOT
BRANCH  11  19
ATOM      1  O   UNL     1     -10.623  -9.233  15.912  0.00  0.00    -0.274 OA
ATOM      6  N   UNL     1     -10.082  -7.297  17.085  0.00  0.00    -0.312 N 
ATOM     19  C   UNL     1      -9.877  -8.595  16.650  0.00  0.00    +0.230 C 
ATOM     33  H   UNL     1      -9.407  -6.867  17.710  0.00  0.00    +0.149 HD
BRANCH   6  26
ATOM     26  C   UNL     1     -11.236  -6.511  16.714  0.00  0.00    +0.132 C 
BRANCH  26  28
ATOM     28  C   UNL     1     -11.023  -5.797  15.391  0.00  0.00    +0.178 C 
BRANCH  28   3
ATOM      3  O   UNL     1     -12.253  -5.741  14.681  0.00  0.00    -0.381 OA
ATOM     31  C   UNL     1     -13.224  -6.607  15.251  0.00  0.00    +0.194 C 
ENDBRANCH  28   3
ENDBRANCH  26  28
ENDBRANCH   6  26
ENDBRANCH  11  19
BRANCH   8  12
ATOM     12  C   UNL     1      -8.889 -11.916  19.676  0.00  0.00    +0.026 C 
BRANCH  12  16
ATOM     16  C   UNL     1      -9.501 -12.871  18.646  0.00  0.00    -0.015 C 
ATOM     23  C   UNL     1      -8.587 -14.054  18.324  0.00  0.00    +0.007 C 
ATOM     24  C   UNL     1     -10.844 -13.384  19.169  0.00  0.00    +0.007 C 
ENDBRANCH  12  16
ENDBRANCH   8  12
BRANCH   5  21
ATOM     21  C   UNL     1      -2.812 -10.621  15.780  0.00  0.00    +0.180 C 
BRANCH  21  25
ATOM      2  O   UNL     1      -2.316 -11.595  12.342  0.00  0.00    -0.360 OA
ATOM      7  N   UNL     1      -2.255 -10.675  13.381  0.00  0.00    -0.081 NA
ATOM     25  C   UNL     1      -2.732 -11.323  14.448  0.00  0.00    +0.103 A 
ATOM     27  C   UNL     1      -3.105 -12.644  14.146  0.00  0.00    +0.072 A 
ATOM     29  C   UNL     1      -2.824 -12.764  12.810  0.00  0.00    +0.135 A 
ATOM     30  C   UNL     1      -2.958 -13.855  11.837  0.00  0.00    +0.089 C 
ENDBRANCH  21  25
ENDBRANCH   5  21
TORSDOF 8
ENDMDL
MODEL 8
REMARK VINA RESULT:      -6.1     27.999     31.077
REMARK  Name = 51138146
REMARK  12 active torsions:
REMARK  status: ('A' for Active; 'I' for Inactive)
REMARK    1  A    between atoms: O_3  and  C_28
REMARK    2  A    between atoms: O_3  and  C_31
REMARK    3  A    between atoms: N_5  and  C_21
REMARK    4  A    between atoms: N_6  and  C_26
REMARK    5  A    between atoms: C_8  and  C_12
REMARK    6  A    between atoms: C_11  and  C_19
REMARK    7  A    between atoms: C_12  and  C_16
REMARK    8  A    between atoms: C_16  and  C_23
REMARK    9  A    between atoms: C_16  and  C_24
REMARK   10  A    between atoms: C_21  and  C_25
REMARK   11  A    between atoms: C_26  and  C_28
REMARK   12  A    between atoms: C_29  and  C_30
REMARK                            x       y       z     vdW  Elec       q    Type
REMARK                         _______ _______ _______ _____ _____    ______ ____
ROOT
ATOM      4  N   UNL     1      -5.588 -10.972  13.680  0.00  0.00    -0.299 NA
ATOM      5  N   UNL     1      -7.401  -8.773   9.511  0.00  0.00    -0.340 N 
ATOM      8  C   UNL     1      -4.414 -10.488  12.943  0.00  0.00    +0.085 C 
ATOM      9  C   UNL     1      -4.685  -9.937  11.538  0.00  0.00    -0.021 A 
ATOM     10  C   UNL     1      -5.963  -9.551  11.042  0.00  0.00    +0.008 A 
ATOM     11  C   UNL     1      -6.575  -9.947  13.993  0.00  0.00    +0.145 C 
ATOM     13  C   UNL     1      -7.288  -9.525  11.602  0.00  0.00    -0.020 A 
ATOM     14  C   UNL     1      -7.711  -9.933  12.973  0.00  0.00    +0.065 C 
ATOM     15  C   UNL     1      -6.074  -9.049   9.739  0.00  0.00    +0.050 A 
ATOM     17  C   UNL     1      -8.139  -9.050  10.624  0.00  0.00    +0.091 A 
ATOM     18  C   UNL     1      -3.584  -9.715  10.672  0.00  0.00    +0.006 A 
ATOM     20  C   UNL     1      -4.983  -8.880   8.885  0.00  0.00    +0.026 A 
ATOM     22  C   UNL     1      -3.729  -9.210   9.381  0.00  0.00    +0.002 A 
ATOM     32  H   UNL     1      -6.017 -11.763  13.202  0.00  0.00    +0.123 HD
ENDROOT
BRANCH  11  19
ATOM      1  O   UNL     1      -7.300 -11.500  15.653  0.00  0.00    -0.274 OA
ATOM      6  N   UNL     1      -7.411  -9.221  16.116  0.00  0.00    -0.312 N 
ATOM     19  C   UNL     1      -7.123 -10.327  15.334  0.00  0.00    +0.230 C 
ATOM     33  H   UNL     1      -7.209  -8.291  15.759  0.00  0.00    +0.149 HD
BRANCH   6  26
ATOM     26  C   UNL     1      -7.971  -9.315  17.444  0.00  0.00    +0.132 C 
BRANCH  26  28
ATOM     28  C   UNL     1      -9.412  -8.838  17.478  0.00  0.00    +0.178 C 
BRANCH  28   3
ATOM      3  O   UNL     1      -9.553  -7.704  16.632  0.00  0.00    -0.381 OA
ATOM     31  C   UNL     1     -10.903  -7.266  16.570  0.00  0.00    +0.194 C 
ENDBRANCH  28   3
ENDBRANCH  26  28
ENDBRANCH   6  26
ENDBRANCH  11  19
BRANCH   8  12
ATOM     12  C   UNL     1      -3.442 -11.682  12.931  0.00  0.00    +0.026 C 
BRANCH  12  16
ATOM     16  C   UNL     1      -2.497 -11.696  14.137  0.00  0.00    -0.015 C 
ATOM     23  C   UNL     1      -1.412 -12.767  14.022  0.00  0.00    +0.007 C 
ATOM     24  C   UNL     1      -1.850 -10.318  14.287  0.00  0.00    +0.007 C 
ENDBRANCH  12  16
ENDBRANCH   8  12
BRANCH   5  21
ATOM     21  C   UNL     1      -7.952  -8.245   8.281  0.00  0.00    +0.180 C 
BRANCH  21  25
ATOM      2  O   UNL     1      -8.670  -4.716   8.487  0.00  0.00    -0.360 OA
ATOM      7  N   UNL     1      -7.809  -5.786   8.278  0.00  0.00    -0.081 NA
ATOM     25  C   UNL     1      -8.565  -6.876   8.439  0.00  0.00    +0.103 A 
ATOM     27  C   UNL     1      -9.899  -6.559   8.748  0.00  0.00    +0.072 A 
ATOM     29  C   UNL     1      -9.911  -5.189   8.766  0.00  0.00    +0.135 A 
ATOM     30  C   UNL     1     -10.954  -4.185   9.015  0.00  0.00    +0.089 C 
ENDBRANCH  21  25
ENDBRANCH   5  21
TORSDOF 8
ENDMDL
MODEL 9
REMARK VINA RESULT:      -6.0     30.054     33.470
REMARK  Name = 51138146
REMARK  12 active torsions:
REMARK  status: ('A' for Active; 'I' for Inactive)
REMARK    1  A    between atoms: O_3  and  C_28
REMARK    2  A    between atoms: O_3  and  C_31
REMARK    3  A    between atoms: N_5  and  C_21
REMARK    4  A    between atoms: N_6  and  C_26
REMARK    5  A    between atoms: C_8  and  C_12
REMARK    6  A    between atoms: C_11  and  C_19
REMARK    7  A    between atoms: C_12  and  C_16
REMARK    8  A    between atoms: C_16  and  C_23
REMARK    9  A    between atoms: C_16  and  C_24
REMARK   10  A    between atoms: C_21  and  C_25
REMARK   11  A    between atoms: C_26  and  C_28
REMARK   12  A    between atoms: C_29  and  C_30
REMARK                            x       y       z     vdW  Elec       q    Type
REMARK                         _______ _______ _______ _____ _____    ______ ____
ROOT
ATOM      4  N   UNL     1     -10.179  -9.244  18.401  0.00  0.00    -0.299 NA
ATOM      5  N   UNL     1     -12.578  -6.233  15.131  0.00  0.00    -0.340 N 
ATOM      8  C   UNL     1     -11.543  -9.776  18.296  0.00  0.00    +0.085 C 
ATOM      9  C   UNL     1     -12.536  -8.925  17.497  0.00  0.00    -0.021 A 
ATOM     10  C   UNL     1     -12.180  -7.882  16.595  0.00  0.00    +0.008 A 
ATOM     11  C   UNL     1      -9.467  -9.142  17.134  0.00  0.00    +0.145 C 
ATOM     13  C   UNL     1     -10.929  -7.326  16.150  0.00  0.00    -0.020 A 
ATOM     14  C   UNL     1      -9.552  -7.732  16.554  0.00  0.00    +0.065 C 
ATOM     15  C   UNL     1     -13.186  -7.185  15.914  0.00  0.00    +0.050 A 
ATOM     17  C   UNL     1     -11.222  -6.312  15.261  0.00  0.00    +0.091 A 
ATOM     18  C   UNL     1     -13.918  -9.230  17.587  0.00  0.00    +0.006 A 
ATOM     20  C   UNL     1     -14.545  -7.471  16.051  0.00  0.00    +0.026 A 
ATOM     22  C   UNL     1     -14.895  -8.518  16.892  0.00  0.00    +0.002 A 
ATOM     32  H   UNL     1     -10.172  -8.355  18.899  0.00  0.00    +0.123 HD
ENDROOT
BRANCH  11  19
ATOM      1  O   UNL     1      -7.132  -9.260  16.655  0.00  0.00    -0.274 OA
ATOM      6  N   UNL     1      -7.895  -9.989  18.730  0.00  0.00    -0.312 N 
ATOM     19  C   UNL     1      -8.039  -9.454  17.461  0.00  0.00    +0.230 C 
ATOM     33  H   UNL     1      -8.713 -10.092  19.324  0.00  0.00    +0.149 HD
BRANCH   6  26
ATOM     26  C   UNL     1      -6.622 -10.395  19.278  0.00  0.00    +0.132 C 
BRANCH  26  28
ATOM     28  C   UNL     1      -6.385 -11.884  19.095  0.00  0.00    +0.178 C 
BRANCH  28   3
ATOM      3  O   UNL     1      -5.580 -12.096  17.942  0.00  0.00    -0.381 OA
ATOM     31  C   UNL     1      -6.284 -12.816  16.941  0.00  0.00    +0.194 C 
ENDBRANCH  28   3
ENDBRANCH  26  28
ENDBRANCH   6  26
ENDBRANCH  11  19
BRANCH   8  12
ATOM     12  C   UNL     1     -11.990  -9.991  19.754  0.00  0.00    +0.026 C 
BRANCH  12  16
ATOM     16  C   UNL     1     -12.005 -11.467  20.164  0.00  0.00    -0.015 C 
ATOM     23  C   UNL     1     -13.118 -11.789  21.162  0.00  0.00    +0.007 C 
ATOM     24  C   UNL     1     -12.163 -12.336  18.916  0.00  0.00    +0.007 C 
ENDBRANCH  12  16
ENDBRANCH   8  12
BRANCH   5  21
ATOM     21  C   UNL     1     -13.258  -5.289  14.271  0.00  0.00    +0.180 C 
BRANCH  21  25
ATOM      2  O   UNL     1     -12.169  -6.058  10.919  0.00  0.00    -0.360 OA
ATOM      7  N   UNL     1     -12.695  -6.416  12.154  0.00  0.00    -0.081 NA
ATOM     25  C   UNL     1     -12.732  -5.280  12.857  0.00  0.00    +0.103 A 
ATOM     27  C   UNL     1     -12.248  -4.183  12.125  0.00  0.00    +0.072 A 
ATOM     29  C   UNL     1     -11.907  -4.726  10.914  0.00  0.00    +0.135 A 
ATOM     30  C   UNL     1     -11.344  -4.174   9.675  0.00  0.00    +0.089 C 
ENDBRANCH  21  25
ENDBRANCH   5  21
TORSDOF 8
ENDMDL
MODEL 10
REMARK VINA RESULT:      -5.9     29.430     33.129
REMARK  Name = 51138146
REMARK  12 active torsions:
REMARK  status: ('A' for Active; 'I' for Inactive)
REMARK    1  A    between atoms: O_3  and  C_28
REMARK    2  A    between atoms: O_3  and  C_31
REMARK    3  A    between atoms: N_5  and  C_21
REMARK    4  A    between atoms: N_6  and  C_26
REMARK    5  A    between atoms: C_8  and  C_12
REMARK    6  A    between atoms: C_11  and  C_19
REMARK    7  A    between atoms: C_12  and  C_16
REMARK    8  A    between atoms: C_16  and  C_23
REMARK    9  A    between atoms: C_16  and  C_24
REMARK   10  A    between atoms: C_21  and  C_25
REMARK   11  A    between atoms: C_26  and  C_28
REMARK   12  A    between atoms: C_29  and  C_30
REMARK                            x       y       z     vdW  Elec       q    Type
REMARK                         _______ _______ _______ _____ _____    ______ ____
ROOT
ATOM      4  N   UNL     1     -15.524   4.556  32.457  0.00  0.00    -0.299 NA
ATOM      5  N   UNL     1     -13.189   7.917  35.416  0.00  0.00    -0.340 N 
ATOM      8  C   UNL     1     -15.295   5.737  31.614  0.00  0.00    +0.085 C 
ATOM      9  C   UNL     1     -14.758   6.979  32.333  0.00  0.00    -0.021 A 
ATOM     10  C   UNL     1     -14.161   6.983  33.627  0.00  0.00    +0.008 A 
ATOM     11  C   UNL     1     -14.323   4.000  33.065  0.00  0.00    +0.145 C 
ATOM     13  C   UNL     1     -13.868   5.962  34.597  0.00  0.00    -0.020 A 
ATOM     14  C   UNL     1     -14.137   4.499  34.496  0.00  0.00    +0.065 C 
ATOM     15  C   UNL     1     -13.697   8.188  34.169  0.00  0.00    +0.050 A 
ATOM     17  C   UNL     1     -13.281   6.582  35.682  0.00  0.00    +0.091 A 
ATOM     18  C   UNL     1     -14.777   8.221  31.649  0.00  0.00    +0.006 A 
ATOM     20  C   UNL     1     -13.767   9.410  33.497  0.00  0.00    +0.026 A 
ATOM     22  C   UNL     1     -14.305   9.403  32.216  0.00  0.00    +0.002 A 
ATOM     32  H   UNL     1     -16.239   4.742  33.158  0.00  0.00    +0.123 HD
ENDROOT
BRANCH  11  19
ATOM      1  O   UNL     1     -14.551   1.879  34.133  0.00  0.00    -0.274 OA
ATOM      6  N   UNL     1     -14.702   1.995  31.813  0.00  0.00    -0.312 N 
ATOM     19  C   UNL     1     -14.542   2.519  33.085  0.00  0.00    +0.230 C 
ATOM     33  H   UNL     1     -14.695   2.619  31.012  0.00  0.00    +0.149 HD
BRANCH   6  26
ATOM     26  C   UNL     1     -14.906   0.588  31.557  0.00  0.00    +0.132 C 
BRANCH  26  28
ATOM     28  C   UNL     1     -15.585   0.357  30.219  0.00  0.00    +0.178 C 
BRANCH  28   3
ATOM      3  O   UNL     1     -14.868  -0.632  29.491  0.00  0.00    -0.381 OA
ATOM     31  C   UNL     1     -13.479  -0.589  29.782  0.00  0.00    +0.194 C 
ENDBRANCH  28   3
ENDBRANCH  26  28
ENDBRANCH   6  26
ENDBRANCH  11  19
BRANCH   8  12
ATOM     12  C   UNL     1     -16.648   5.992  30.925  0.00  0.00    +0.026 C 
BRANCH  12  16
ATOM     16  C   UNL     1     -16.618   5.701  29.422  0.00  0.00    -0.015 C 
ATOM     23  C   UNL     1     -17.028   4.265  29.092  0.00  0.00    +0.007 C 
ATOM     24  C   UNL     1     -17.545   6.681  28.700  0.00  0.00    +0.007 C 
ENDBRANCH  12  16
ENDBRANCH   8  12
BRANCH   5  21
ATOM     21  C   UNL     1     -12.616   8.888  36.323  0.00  0.00    +0.180 C 
BRANCH  21  25
ATOM      2  O   UNL     1      -9.182   9.549  35.437  0.00  0.00    -0.360 OA
ATOM      7  N   UNL     1     -10.550   9.661  35.225  0.00  0.00    -0.081 NA
ATOM     25  C   UNL     1     -11.113   8.981  36.228  0.00  0.00    +0.103 A 
ATOM     27  C   UNL     1     -10.159   8.426  37.097  0.00  0.00    +0.072 A 
ATOM     29  C   UNL     1      -8.961   8.812  36.555  0.00  0.00    +0.135 A 
ATOM     30  C   UNL     1      -7.559   8.595  36.930  0.00  0.00    +0.089 C 
ENDBRANCH  21  25
ENDBRANCH   5  21
TORSDOF 8
ENDMDL
