MODEL 1
REMARK VINA RESULT:      -6.7      0.000      0.000
REMARK  Name = 7135085
REMARK  12 active torsions:
REMARK  status: ('A' for Active; 'I' for Inactive)
REMARK    1  A    between atoms: O_2  and  C_14
REMARK    2  A    between atoms: O_3  and  C_19
REMARK    3  A    between atoms: C_9  and  C_17
REMARK    4  A    between atoms: C_11  and  C_19
REMARK    5  A    between atoms: C_11  and  C_20
REMARK    6  A    between atoms: C_12  and  C_22
REMARK    7  A    between atoms: C_22  and  C_23
REMARK    8  A    between atoms: C_29  and  C_31
REMARK    9  A    between atoms: C_30  and  C_32
REMARK   10  A    between atoms: C_32  and  C_33
REMARK   11  A    between atoms: C_32  and  C_34
REMARK   12  A    between atoms: C_32  and  C_35
REMARK                            x       y       z     vdW  Elec       q    Type
REMARK                         _______ _______ _______ _____ _____    ______ ____
ROOT
ATOM      1  S   UNL     1      10.051   7.994  -0.890  0.00  0.00    -0.057 S 
ATOM      5  O   UNL     1       8.016   8.837   3.195  0.00  0.00    -0.275 OA
ATOM      6  N   UNL     1      10.171   7.555   1.657  0.00  0.00    -0.229 NA
ATOM      8  N   UNL     1       8.349   8.927   0.874  0.00  0.00    -0.264 N 
ATOM      9  C   UNL     1      13.090   5.132   0.971  0.00  0.00    -0.019 C 
ATOM     10  C   UNL     1      13.582   5.959  -0.298  0.00  0.00    +0.011 C 
ATOM     11  C   UNL     1      14.769   5.345  -1.136  0.00  0.00    +0.021 C 
ATOM     12  C   UNL     1      12.226   6.111   1.891  0.00  0.00    +0.054 C 
ATOM     13  C   UNL     1      14.322   4.658   1.785  0.00  0.00    +0.010 C 
ATOM     14  C   UNL     1      15.893   4.881  -0.167  0.00  0.00    +0.123 C 
ATOM     15  C   UNL     1      12.380   6.432  -1.169  0.00  0.00    +0.049 C 
ATOM     16  C   UNL     1      15.389   3.969   0.945  0.00  0.00    +0.032 C 
ATOM     17  C   UNL     1      12.239   3.895   0.591  0.00  0.00    +0.012 C 
ATOM     18  C   UNL     1      11.231   6.889   1.070  0.00  0.00    +0.058 A 
ATOM     20  C   UNL     1      15.372   6.453  -2.047  0.00  0.00    +0.016 C 
ATOM     21  C   UNL     1      11.330   7.035  -0.299  0.00  0.00    +0.015 A 
ATOM     24  C   UNL     1       9.478   8.166   0.720  0.00  0.00    +0.165 A 
ATOM     30  C   UNL     1       7.681   9.224   2.077  0.00  0.00    +0.224 C 
ATOM     38  H   UNL     1       7.980   9.303   0.006  0.00  0.00    +0.157 HD
ENDROOT
BRANCH  30  32
ATOM     32  C   UNL     1       6.428  10.116   1.892  0.00  0.00    +0.039 C 
ATOM     33  C   UNL     1       6.867  11.562   1.591  0.00  0.00    +0.020 C 
ATOM     34  C   UNL     1       5.587  10.124   3.179  0.00  0.00    +0.020 C 
ATOM     35  C   UNL     1       5.584   9.610   0.711  0.00  0.00    +0.020 C 
ENDBRANCH  30  32
BRANCH  14   2
ATOM      2  O   UNL     1      16.927   4.205  -0.883  0.00  0.00    -0.391 OA
ATOM     36  H   UNL     1      17.315   4.839  -1.510  0.00  0.00    +0.210 HD
ENDBRANCH  14   2
BRANCH  11  19
ATOM     19  C   UNL     1      14.357   4.202  -2.091  0.00  0.00    +0.165 C 
BRANCH  19   3
ATOM      3  O   UNL     1      15.079   4.361  -3.292  0.00  0.00    -0.394 OA
ATOM     37  H   UNL     1      15.689   3.608  -3.364  0.00  0.00    +0.209 HD
ENDBRANCH  19   3
ENDBRANCH  11  19
BRANCH  12  22
ATOM     22  C   UNL     1      11.553   5.429   3.090  0.00  0.00    +0.106 C 
BRANCH  22  23
ATOM      4  O   UNL     1      12.715   7.020   4.408  0.00  0.00    -0.276 OA
ATOM      7  N   UNL     1      10.764   6.146   5.319  0.00  0.00    -0.301 N 
ATOM     23  C   UNL     1      11.736   6.274   4.327  0.00  0.00    +0.216 C 
ATOM     25  C   UNL     1      10.851   6.961   6.533  0.00  0.00    +0.108 C 
ATOM     26  C   UNL     1       9.591   5.268   5.252  0.00  0.00    +0.108 C 
ATOM     27  C   UNL     1      10.814   6.084   7.782  0.00  0.00    +0.022 C 
ATOM     28  C   UNL     1       9.526   4.355   6.476  0.00  0.00    +0.022 C 
ATOM     29  C   UNL     1       9.582   5.165   7.780  0.00  0.00    -0.011 C 
ATOM     31  C   UNL     1       9.592   4.240   8.995  0.00  0.00    +0.007 C 
ENDBRANCH  22  23
ENDBRANCH  12  22
TORSDOF 6
ENDMDL
MODEL 2
REMARK VINA RESULT:      -6.6     17.320     21.399
REMARK  Name = 7135085
REMARK  12 active torsions:
REMARK  status: ('A' for Active; 'I' for Inactive)
REMARK    1  A    between atoms: O_2  and  C_14
REMARK    2  A    between atoms: O_3  and  C_19
REMARK    3  A    between atoms: C_9  and  C_17
REMARK    4  A    between atoms: C_11  and  C_19
REMARK    5  A    between atoms: C_11  and  C_20
REMARK    6  A    between atoms: C_12  and  C_22
REMARK    7  A    between atoms: C_22  and  C_23
REMARK    8  A    between atoms: C_29  and  C_31
REMARK    9  A    between atoms: C_30  and  C_32
REMARK   10  A    between atoms: C_32  and  C_33
REMARK   11  A    between atoms: C_32  and  C_34
REMARK   12  A    between atoms: C_32  and  C_35
REMARK                            x       y       z     vdW  Elec       q    Type
REMARK                         _______ _______ _______ _____ _____    ______ ____
ROOT
ATOM      1  S   UNL     1      18.037   6.438  20.461  0.00  0.00    -0.057 S 
ATOM      5  O   UNL     1      20.596   8.975  23.387  0.00  0.00    -0.275 OA
ATOM      6  N   UNL     1      18.070   8.563  21.938  0.00  0.00    -0.229 NA
ATOM      8  N   UNL     1      20.068   7.214  21.928  0.00  0.00    -0.264 N 
ATOM      9  C   UNL     1      14.629   9.484  20.463  0.00  0.00    -0.019 C 
ATOM     10  C   UNL     1      14.215   7.958  20.272  0.00  0.00    +0.011 C 
ATOM     11  C   UNL     1      12.844   7.674  19.544  0.00  0.00    +0.021 C 
ATOM     12  C   UNL     1      15.776   9.547  21.573  0.00  0.00    +0.054 C 
ATOM     13  C   UNL     1      13.407  10.289  20.977  0.00  0.00    +0.010 C 
ATOM     14  C   UNL     1      11.744   8.593  20.147  0.00  0.00    +0.123 C 
ATOM     15  C   UNL     1      15.401   7.111  19.725  0.00  0.00    +0.049 C 
ATOM     16  C   UNL     1      12.137  10.066  20.168  0.00  0.00    +0.032 C 
ATOM     17  C   UNL     1      15.139  10.137  19.155  0.00  0.00    +0.012 C 
ATOM     18  C   UNL     1      16.836   8.507  21.316  0.00  0.00    +0.058 A 
ATOM     20  C   UNL     1      12.419   6.203  19.819  0.00  0.00    +0.016 C 
ATOM     21  C   UNL     1      16.640   7.413  20.499  0.00  0.00    +0.015 A 
ATOM     24  C   UNL     1      18.788   7.529  21.556  0.00  0.00    +0.165 A 
ATOM     30  C   UNL     1      20.899   7.933  22.808  0.00  0.00    +0.224 C 
ATOM     38  H   UNL     1      20.426   6.362  21.506  0.00  0.00    +0.157 HD
ENDROOT
BRANCH  30  32
ATOM     32  C   UNL     1      22.297   7.295  23.010  0.00  0.00    +0.039 C 
ATOM     33  C   UNL     1      23.004   7.167  21.647  0.00  0.00    +0.020 C 
ATOM     34  C   UNL     1      22.156   5.889  23.616  0.00  0.00    +0.020 C 
ATOM     35  C   UNL     1      23.160   8.182  23.922  0.00  0.00    +0.020 C 
ENDBRANCH  30  32
BRANCH  14   2
ATOM      2  O   UNL     1      10.520   8.453  19.425  0.00  0.00    -0.391 OA
ATOM     36  H   UNL     1       9.805   8.795  19.988  0.00  0.00    +0.210 HD
ENDBRANCH  14   2
BRANCH  11  19
ATOM     19  C   UNL     1      12.894   7.811  18.006  0.00  0.00    +0.165 C 
BRANCH  19   3
ATOM      3  O   UNL     1      11.915   6.953  17.464  0.00  0.00    -0.394 OA
ATOM     37  H   UNL     1      11.047   7.321  17.698  0.00  0.00    +0.209 HD
ENDBRANCH  19   3
ENDBRANCH  11  19
BRANCH  12  22
ATOM     22  C   UNL     1      16.392  10.938  21.774  0.00  0.00    +0.106 C 
BRANCH  22  23
ATOM      4  O   UNL     1      15.304  11.351  23.839  0.00  0.00    -0.276 OA
ATOM      7  N   UNL     1      14.999  12.940  22.171  0.00  0.00    -0.301 N 
ATOM     23  C   UNL     1      15.519  11.756  22.693  0.00  0.00    +0.216 C 
ATOM     25  C   UNL     1      14.174  13.808  23.014  0.00  0.00    +0.108 C 
ATOM     26  C   UNL     1      15.236  13.447  20.815  0.00  0.00    +0.108 C 
ATOM     27  C   UNL     1      12.830  14.095  22.349  0.00  0.00    +0.022 C 
ATOM     28  C   UNL     1      13.914  13.729  20.103  0.00  0.00    +0.022 C 
ATOM     29  C   UNL     1      13.021  14.663  20.934  0.00  0.00    -0.011 C 
ATOM     31  C   UNL     1      11.673  14.878  20.249  0.00  0.00    +0.007 C 
ENDBRANCH  22  23
ENDBRANCH  12  22
TORSDOF 6
ENDMDL
MODEL 3
REMARK VINA RESULT:      -6.4     17.269     21.817
REMARK  Name = 7135085
REMARK  12 active torsions:
REMARK  status: ('A' for Active; 'I' for Inactive)
REMARK    1  A    between atoms: O_2  and  C_14
REMARK    2  A    between atoms: O_3  and  C_19
REMARK    3  A    between atoms: C_9  and  C_17
REMARK    4  A    between atoms: C_11  and  C_19
REMARK    5  A    between atoms: C_11  and  C_20
REMARK    6  A    between atoms: C_12  and  C_22
REMARK    7  A    between atoms: C_22  and  C_23
REMARK    8  A    between atoms: C_29  and  C_31
REMARK    9  A    between atoms: C_30  and  C_32
REMARK   10  A    between atoms: C_32  and  C_33
REMARK   11  A    between atoms: C_32  and  C_34
REMARK   12  A    between atoms: C_32  and  C_35
REMARK                            x       y       z     vdW  Elec       q    Type
REMARK                         _______ _______ _______ _____ _____    ______ ____
ROOT
ATOM      1  S   UNL     1      18.015   6.348  20.195  0.00  0.00    -0.057 S 
ATOM      5  O   UNL     1      20.852   8.941  22.797  0.00  0.00    -0.275 OA
ATOM      6  N   UNL     1      18.226   8.556  21.528  0.00  0.00    -0.229 NA
ATOM      8  N   UNL     1      20.163   7.120  21.487  0.00  0.00    -0.264 N 
ATOM      9  C   UNL     1      14.741   9.537  20.203  0.00  0.00    -0.019 C 
ATOM     10  C   UNL     1      14.254   8.023  20.134  0.00  0.00    +0.011 C 
ATOM     11  C   UNL     1      12.831   7.756  19.508  0.00  0.00    +0.021 C 
ATOM     12  C   UNL     1      15.956   9.617  21.237  0.00  0.00    +0.054 C 
ATOM     13  C   UNL     1      13.587  10.426  20.735  0.00  0.00    +0.010 C 
ATOM     14  C   UNL     1      11.809   8.758  20.115  0.00  0.00    +0.123 C 
ATOM     15  C   UNL     1      15.369   7.091  19.573  0.00  0.00    +0.049 C 
ATOM     16  C   UNL     1      12.262  10.211  20.019  0.00  0.00    +0.032 C 
ATOM     17  C   UNL     1      15.197  10.085  18.828  0.00  0.00    +0.012 C 
ATOM     18  C   UNL     1      16.955   8.517  20.985  0.00  0.00    +0.058 A 
ATOM     20  C   UNL     1      12.364   6.325  19.901  0.00  0.00    +0.016 C 
ATOM     21  C   UNL     1      16.664   7.384  20.252  0.00  0.00    +0.015 A 
ATOM     24  C   UNL     1      18.876   7.468  21.171  0.00  0.00    +0.165 A 
ATOM     30  C   UNL     1      21.076   7.854  22.269  0.00  0.00    +0.224 C 
ATOM     38  H   UNL     1      20.459   6.229  21.100  0.00  0.00    +0.157 HD
ENDROOT
BRANCH  30  32
ATOM     32  C   UNL     1      22.456   7.167  22.428  0.00  0.00    +0.039 C 
ATOM     33  C   UNL     1      22.939   6.662  21.055  0.00  0.00    +0.020 C 
ATOM     34  C   UNL     1      22.343   5.961  23.375  0.00  0.00    +0.020 C 
ATOM     35  C   UNL     1      23.489   8.169  22.967  0.00  0.00    +0.020 C 
ENDBRANCH  30  32
BRANCH  14   2
ATOM      2  O   UNL     1      10.538   8.630  19.476  0.00  0.00    -0.391 OA
ATOM     36  H   UNL     1      10.257   9.518  19.197  0.00  0.00    +0.210 HD
ENDBRANCH  14   2
BRANCH  11  19
ATOM     19  C   UNL     1      12.792   7.796  17.964  0.00  0.00    +0.165 C 
BRANCH  19   3
ATOM      3  O   UNL     1      11.814   6.876  17.533  0.00  0.00    -0.394 OA
ATOM     37  H   UNL     1      11.760   6.176  18.204  0.00  0.00    +0.209 HD
ENDBRANCH  19   3
ENDBRANCH  11  19
BRANCH  12  22
ATOM     22  C   UNL     1      16.640  10.989  21.312  0.00  0.00    +0.106 C 
BRANCH  22  23
ATOM      4  O   UNL     1      15.567  11.447  23.375  0.00  0.00    -0.276 OA
ATOM      7  N   UNL     1      17.822  11.990  23.237  0.00  0.00    -0.301 N 
ATOM     23  C   UNL     1      16.620  11.492  22.734  0.00  0.00    +0.216 C 
ATOM     25  C   UNL     1      17.894  12.461  24.621  0.00  0.00    +0.108 C 
ATOM     26  C   UNL     1      19.089  12.057  22.500  0.00  0.00    +0.108 C 
ATOM     27  C   UNL     1      18.429  13.889  24.684  0.00  0.00    +0.022 C 
ATOM     28  C   UNL     1      19.652  13.477  22.519  0.00  0.00    +0.022 C 
ATOM     29  C   UNL     1      19.776  14.009  23.955  0.00  0.00    -0.011 C 
ATOM     31  C   UNL     1      20.269  15.454  23.958  0.00  0.00    +0.007 C 
ENDBRANCH  22  23
ENDBRANCH  12  22
TORSDOF 6
ENDMDL
MODEL 4
REMARK VINA RESULT:      -6.3      3.130      7.645
REMARK  Name = 7135085
REMARK  12 active torsions:
REMARK  status: ('A' for Active; 'I' for Inactive)
REMARK    1  A    between atoms: O_2  and  C_14
REMARK    2  A    between atoms: O_3  and  C_19
REMARK    3  A    between atoms: C_9  and  C_17
REMARK    4  A    between atoms: C_11  and  C_19
REMARK    5  A    between atoms: C_11  and  C_20
REMARK    6  A    between atoms: C_12  and  C_22
REMARK    7  A    between atoms: C_22  and  C_23
REMARK    8  A    between atoms: C_29  and  C_31
REMARK    9  A    between atoms: C_30  and  C_32
REMARK   10  A    between atoms: C_32  and  C_33
REMARK   11  A    between atoms: C_32  and  C_34
REMARK   12  A    between atoms: C_32  and  C_35
REMARK                            x       y       z     vdW  Elec       q    Type
REMARK                         _______ _______ _______ _____ _____    ______ ____
ROOT
ATOM      1  S   UNL     1      11.413   3.946   2.088  0.00  0.00    -0.057 S 
ATOM      5  O   UNL     1      10.002   5.381  -2.095  0.00  0.00    -0.275 OA
ATOM      6  N   UNL     1      10.261   5.868   0.795  0.00  0.00    -0.229 NA
ATOM      8  N   UNL     1      10.963   3.956  -0.495  0.00  0.00    -0.264 N 
ATOM      9  C   UNL     1       9.571   7.564   4.188  0.00  0.00    -0.019 C 
ATOM     10  C   UNL     1      10.887   6.956   4.848  0.00  0.00    +0.011 C 
ATOM     11  C   UNL     1      11.106   7.227   6.387  0.00  0.00    +0.021 C 
ATOM     12  C   UNL     1       9.767   7.557   2.603  0.00  0.00    +0.054 C 
ATOM     13  C   UNL     1       9.393   9.033   4.652  0.00  0.00    +0.010 C 
ATOM     14  C   UNL     1      10.843   8.730   6.685  0.00  0.00    +0.123 C 
ATOM     15  C   UNL     1      11.093   5.468   4.438  0.00  0.00    +0.049 C 
ATOM     16  C   UNL     1       9.500   9.222   6.158  0.00  0.00    +0.032 C 
ATOM     17  C   UNL     1       8.293   6.769   4.553  0.00  0.00    +0.012 C 
ATOM     18  C   UNL     1      10.302   6.230   2.129  0.00  0.00    +0.058 A 
ATOM     20  C   UNL     1      12.591   6.937   6.746  0.00  0.00    +0.016 C 
ATOM     21  C   UNL     1      10.910   5.317   2.966  0.00  0.00    +0.015 A 
ATOM     24  C   UNL     1      10.811   4.681   0.657  0.00  0.00    +0.165 A 
ATOM     30  C   UNL     1      10.562   4.328  -1.793  0.00  0.00    +0.224 C 
ATOM     38  H   UNL     1      11.418   3.058  -0.365  0.00  0.00    +0.157 HD
ENDROOT
BRANCH  30  32
ATOM     32  C   UNL     1      10.886   3.267  -2.875  0.00  0.00    +0.039 C 
ATOM     33  C   UNL     1      11.774   3.900  -3.963  0.00  0.00    +0.020 C 
ATOM     34  C   UNL     1       9.590   2.770  -3.536  0.00  0.00    +0.020 C 
ATOM     35  C   UNL     1      11.649   2.088  -2.251  0.00  0.00    +0.020 C 
ENDBRANCH  30  32
BRANCH  14   2
ATOM      2  O   UNL     1      10.908   8.983   8.089  0.00  0.00    -0.391 OA
ATOM     36  H   UNL     1      10.442   9.820   8.259  0.00  0.00    +0.210 HD
ENDBRANCH  14   2
BRANCH  11  19
ATOM     19  C   UNL     1      10.269   6.325   7.322  0.00  0.00    +0.165 C 
BRANCH  19   3
ATOM      3  O   UNL     1      11.155   5.453   7.988  0.00  0.00    -0.394 OA
ATOM     37  H   UNL     1      10.644   4.989   8.671  0.00  0.00    +0.209 HD
ENDBRANCH  19   3
ENDBRANCH  11  19
BRANCH  12  22
ATOM     22  C   UNL     1       8.526   7.979   1.805  0.00  0.00    +0.106 C 
BRANCH  22  23
ATOM      4  O   UNL     1       9.546   9.961   0.998  0.00  0.00    -0.276 OA
ATOM      7  N   UNL     1       7.453  10.198   1.979  0.00  0.00    -0.301 N 
ATOM     23  C   UNL     1       8.562   9.466   1.553  0.00  0.00    +0.216 C 
ATOM     25  C   UNL     1       7.395  11.641   1.736  0.00  0.00    +0.108 C 
ATOM     26  C   UNL     1       6.269   9.639   2.641  0.00  0.00    +0.108 C 
ATOM     27  C   UNL     1       7.147  12.403   3.036  0.00  0.00    +0.022 C 
ATOM     28  C   UNL     1       5.995  10.360   3.960  0.00  0.00    +0.022 C 
ATOM     29  C   UNL     1       5.894  11.879   3.755  0.00  0.00    -0.011 C 
ATOM     31  C   UNL     1       5.695  12.596   5.089  0.00  0.00    +0.007 C 
ENDBRANCH  22  23
ENDBRANCH  12  22
TORSDOF 6
ENDMDL
MODEL 5
REMARK VINA RESULT:      -6.3     26.247     29.242
REMARK  Name = 7135085
REMARK  12 active torsions:
REMARK  status: ('A' for Active; 'I' for Inactive)
REMARK    1  A    between atoms: O_2  and  C_14
REMARK    2  A    between atoms: O_3  and  C_19
REMARK    3  A    between atoms: C_9  and  C_17
REMARK    4  A    between atoms: C_11  and  C_19
REMARK    5  A    between atoms: C_11  and  C_20
REMARK    6  A    between atoms: C_12  and  C_22
REMARK    7  A    between atoms: C_22  and  C_23
REMARK    8  A    between atoms: C_29  and  C_31
REMARK    9  A    between atoms: C_30  and  C_32
REMARK   10  A    between atoms: C_32  and  C_33
REMARK   11  A    between atoms: C_32  and  C_34
REMARK   12  A    between atoms: C_32  and  C_35
REMARK                            x       y       z     vdW  Elec       q    Type
REMARK                         _______ _______ _______ _____ _____    ______ ____
ROOT
ATOM      1  S   UNL     1     -10.621  -8.419  17.244  0.00  0.00    -0.057 S 
ATOM      5  O   UNL     1     -11.957  -7.735  12.852  0.00  0.00    -0.275 OA
ATOM      6  N   UNL     1     -10.098  -8.967  14.769  0.00  0.00    -0.229 NA
ATOM      8  N   UNL     1     -11.999  -7.545  15.191  0.00  0.00    -0.264 N 
ATOM      9  C   UNL     1      -6.891 -10.736  15.975  0.00  0.00    -0.019 C 
ATOM     10  C   UNL     1      -7.552 -11.162  17.359  0.00  0.00    +0.011 C 
ATOM     11  C   UNL     1      -6.616 -11.873  18.411  0.00  0.00    +0.021 C 
ATOM     12  C   UNL     1      -8.068 -10.457  14.932  0.00  0.00    +0.054 C 
ATOM     13  C   UNL     1      -6.027 -11.905  15.435  0.00  0.00    +0.010 C 
ATOM     14  C   UNL     1      -5.792 -12.981  17.697  0.00  0.00    +0.123 C 
ATOM     15  C   UNL     1      -8.407 -10.008  17.961  0.00  0.00    +0.049 C 
ATOM     16  C   UNL     1      -5.058 -12.480  16.458  0.00  0.00    +0.032 C 
ATOM     17  C   UNL     1      -6.000  -9.475  16.097  0.00  0.00    +0.012 C 
ATOM     18  C   UNL     1      -9.145  -9.599  15.547  0.00  0.00    +0.058 A 
ATOM     20  C   UNL     1      -7.498 -12.573  19.484  0.00  0.00    +0.016 C 
ATOM     21  C   UNL     1      -9.290  -9.427  16.908  0.00  0.00    +0.015 A 
ATOM     24  C   UNL     1     -10.923  -8.309  15.556  0.00  0.00    +0.165 A 
ATOM     30  C   UNL     1     -12.460  -7.295  13.883  0.00  0.00    +0.224 C 
ATOM     38  H   UNL     1     -12.497  -7.127  15.971  0.00  0.00    +0.157 HD
ENDROOT
BRANCH  30  32
ATOM     32  C   UNL     1     -13.710  -6.381  13.826  0.00  0.00    +0.039 C 
ATOM     33  C   UNL     1     -14.517  -6.532  15.130  0.00  0.00    +0.020 C 
ATOM     34  C   UNL     1     -14.611  -6.786  12.649  0.00  0.00    +0.020 C 
ATOM     35  C   UNL     1     -13.286  -4.910  13.686  0.00  0.00    +0.020 C 
ENDBRANCH  30  32
BRANCH  14   2
ATOM      2  O   UNL     1      -4.841 -13.558  18.593  0.00  0.00    -0.391 OA
ATOM     36  H   UNL     1      -4.382 -14.271  18.117  0.00  0.00    +0.210 HD
ENDBRANCH  14   2
BRANCH  11  19
ATOM     19  C   UNL     1      -5.690 -10.916  19.195  0.00  0.00    +0.165 C 
BRANCH  19   3
ATOM      3  O   UNL     1      -5.841 -11.198  20.569  0.00  0.00    -0.394 OA
ATOM     37  H   UNL     1      -5.089 -11.753  20.834  0.00  0.00    +0.209 HD
ENDBRANCH  19   3
ENDBRANCH  11  19
BRANCH  12  22
ATOM     22  C   UNL     1      -7.604  -9.892  13.582  0.00  0.00    +0.106 C 
BRANCH  22  23
ATOM      4  O   UNL     1      -8.008 -11.900  12.390  0.00  0.00    -0.276 OA
ATOM      7  N   UNL     1      -5.876 -10.995  12.204  0.00  0.00    -0.301 N 
ATOM     23  C   UNL     1      -7.189 -11.022  12.672  0.00  0.00    +0.216 C 
ATOM     25  C   UNL     1      -5.410 -12.036  11.285  0.00  0.00    +0.108 C 
ATOM     26  C   UNL     1      -4.881  -9.966  12.522  0.00  0.00    +0.108 C 
ATOM     27  C   UNL     1      -4.150 -12.712  11.820  0.00  0.00    +0.022 C 
ATOM     28  C   UNL     1      -3.607 -10.598  13.082  0.00  0.00    +0.022 C 
ATOM     29  C   UNL     1      -3.058 -11.678  12.138  0.00  0.00    -0.011 C 
ATOM     31  C   UNL     1      -1.829 -12.355  12.742  0.00  0.00    +0.007 C 
ENDBRANCH  22  23
ENDBRANCH  12  22
TORSDOF 6
ENDMDL
MODEL 6
REMARK VINA RESULT:      -6.2      4.247      6.864
REMARK  Name = 7135085
REMARK  12 active torsions:
REMARK  status: ('A' for Active; 'I' for Inactive)
REMARK    1  A    between atoms: O_2  and  C_14
REMARK    2  A    between atoms: O_3  and  C_19
REMARK    3  A    between atoms: C_9  and  C_17
REMARK    4  A    between atoms: C_11  and  C_19
REMARK    5  A    between atoms: C_11  and  C_20
REMARK    6  A    between atoms: C_12  and  C_22
REMARK    7  A    between atoms: C_22  and  C_23
REMARK    8  A    between atoms: C_29  and  C_31
REMARK    9  A    between atoms: C_30  and  C_32
REMARK   10  A    between atoms: C_32  and  C_33
REMARK   11  A    between atoms: C_32  and  C_34
REMARK   12  A    between atoms: C_32  and  C_35
REMARK                            x       y       z     vdW  Elec       q    Type
REMARK                         _______ _______ _______ _____ _____    ______ ____
ROOT
ATOM      1  S   UNL     1      14.299   8.118   6.588  0.00  0.00    -0.057 S 
ATOM      5  O   UNL     1      10.732   5.918   4.593  0.00  0.00    -0.275 OA
ATOM      6  N   UNL     1      13.460   7.002   4.409  0.00  0.00    -0.229 NA
ATOM      8  N   UNL     1      11.938   7.019   6.279  0.00  0.00    -0.264 N 
ATOM      9  C   UNL     1      16.692   8.219   2.696  0.00  0.00    -0.019 C 
ATOM     10  C   UNL     1      17.536   8.125   4.043  0.00  0.00    +0.011 C 
ATOM     11  C   UNL     1      19.024   8.646   3.993  0.00  0.00    +0.021 C 
ATOM     12  C   UNL     1      15.420   7.264   2.843  0.00  0.00    +0.054 C 
ATOM     13  C   UNL     1      17.553   7.707   1.512  0.00  0.00    +0.010 C 
ATOM     14  C   UNL     1      19.724   8.078   2.727  0.00  0.00    +0.123 C 
ATOM     15  C   UNL     1      16.725   8.659   5.260  0.00  0.00    +0.049 C 
ATOM     16  C   UNL     1      18.941   8.329   1.443  0.00  0.00    +0.032 C 
ATOM     17  C   UNL     1      16.222   9.661   2.380  0.00  0.00    +0.012 C 
ATOM     18  C   UNL     1      14.740   7.469   4.172  0.00  0.00    +0.058 A 
ATOM     20  C   UNL     1      19.793   8.102   5.231  0.00  0.00    +0.016 C 
ATOM     21  C   UNL     1      15.351   8.081   5.248  0.00  0.00    +0.015 A 
ATOM     24  C   UNL     1      13.122   7.294   5.647  0.00  0.00    +0.165 A 
ATOM     30  C   UNL     1      10.819   6.357   5.738  0.00  0.00    +0.224 C 
ATOM     38  H   UNL     1      11.896   7.339   7.242  0.00  0.00    +0.157 HD
ENDROOT
BRANCH  30  32
ATOM     32  C   UNL     1       9.639   6.212   6.732  0.00  0.00    +0.039 C 
ATOM     33  C   UNL     1       9.637   7.406   7.704  0.00  0.00    +0.020 C 
ATOM     34  C   UNL     1       9.791   4.920   7.552  0.00  0.00    +0.020 C 
ATOM     35  C   UNL     1       8.302   6.203   5.972  0.00  0.00    +0.020 C 
ENDBRANCH  30  32
BRANCH  14   2
ATOM      2  O   UNL     1      21.032   8.632   2.584  0.00  0.00    -0.391 OA
ATOM     36  H   UNL     1      20.972   9.371   1.955  0.00  0.00    +0.210 HD
ENDBRANCH  14   2
BRANCH  11  19
ATOM     19  C   UNL     1      19.167  10.183   4.059  0.00  0.00    +0.165 C 
BRANCH  19   3
ATOM      3  O   UNL     1      20.334  10.477   4.796  0.00  0.00    -0.394 OA
ATOM     37  H   UNL     1      21.094  10.233   4.243  0.00  0.00    +0.209 HD
ENDBRANCH  19   3
ENDBRANCH  11  19
BRANCH  12  22
ATOM     22  C   UNL     1      14.421   7.350   1.681  0.00  0.00    +0.106 C 
BRANCH  22  23
ATOM      4  O   UNL     1      15.024   5.182   0.938  0.00  0.00    -0.276 OA
ATOM      7  N   UNL     1      12.751   5.656   1.014  0.00  0.00    -0.301 N 
ATOM     23  C   UNL     1      14.101   5.964   1.179  0.00  0.00    +0.216 C 
ATOM     25  C   UNL     1      12.358   4.318   0.567  0.00  0.00    +0.108 C 
ATOM     26  C   UNL     1      11.632   6.563   1.291  0.00  0.00    +0.108 C 
ATOM     27  C   UNL     1      11.465   4.397  -0.668  0.00  0.00    +0.022 C 
ATOM     28  C   UNL     1      10.721   6.689   0.072  0.00  0.00    +0.022 C 
ATOM     29  C   UNL     1      10.254   5.310  -0.420  0.00  0.00    -0.011 C 
ATOM     31  C   UNL     1       9.405   5.442  -1.683  0.00  0.00    +0.007 C 
ENDBRANCH  22  23
ENDBRANCH  12  22
TORSDOF 6
ENDMDL
MODEL 7
REMARK VINA RESULT:      -6.2     24.691     27.468
REMARK  Name = 7135085
REMARK  12 active torsions:
REMARK  status: ('A' for Active; 'I' for Inactive)
REMARK    1  A    between atoms: O_2  and  C_14
REMARK    2  A    between atoms: O_3  and  C_19
REMARK    3  A    between atoms: C_9  and  C_17
REMARK    4  A    between atoms: C_11  and  C_19
REMARK    5  A    between atoms: C_11  and  C_20
REMARK    6  A    between atoms: C_12  and  C_22
REMARK    7  A    between atoms: C_22  and  C_23
REMARK    8  A    between atoms: C_29  and  C_31
REMARK    9  A    between atoms: C_30  and  C_32
REMARK   10  A    between atoms: C_32  and  C_33
REMARK   11  A    between atoms: C_32  and  C_34
REMARK   12  A    between atoms: C_32  and  C_35
REMARK                            x       y       z     vdW  Elec       q    Type
REMARK                         _______ _______ _______ _____ _____    ______ ____
ROOT
ATOM      1  S   UNL     1      -5.467  -9.557   9.995  0.00  0.00    -0.057 S 
ATOM      5  O   UNL     1      -9.863  -8.070   9.914  0.00  0.00    -0.275 OA
ATOM      6  N   UNL     1      -7.597  -9.190  11.418  0.00  0.00    -0.229 NA
ATOM      8  N   UNL     1      -7.728  -8.587   9.087  0.00  0.00    -0.264 N 
ATOM      9  C   UNL     1      -5.786 -10.931  14.342  0.00  0.00    -0.019 C 
ATOM     10  C   UNL     1      -4.355 -10.420  13.865  0.00  0.00    +0.011 C 
ATOM     11  C   UNL     1      -3.103 -10.947  14.665  0.00  0.00    +0.021 C 
ATOM     12  C   UNL     1      -6.890  -9.964  13.713  0.00  0.00    +0.054 C 
ATOM     13  C   UNL     1      -5.877 -10.836  15.888  0.00  0.00    +0.010 C 
ATOM     14  C   UNL     1      -3.380 -10.824  16.190  0.00  0.00    +0.123 C 
ATOM     15  C   UNL     1      -4.201 -10.525  12.319  0.00  0.00    +0.049 C 
ATOM     16  C   UNL     1      -4.697 -11.463  16.616  0.00  0.00    +0.032 C 
ATOM     17  C   UNL     1      -6.076 -12.392  13.916  0.00  0.00    +0.012 C 
ATOM     18  C   UNL     1      -6.628  -9.724  12.248  0.00  0.00    +0.058 A 
ATOM     20  C   UNL     1      -1.878 -10.044  14.343  0.00  0.00    +0.016 C 
ATOM     21  C   UNL     1      -5.409  -9.965  11.648  0.00  0.00    +0.015 A 
ATOM     24  C   UNL     1      -7.099  -9.065  10.206  0.00  0.00    +0.165 A 
ATOM     30  C   UNL     1      -9.053  -8.120   8.990  0.00  0.00    +0.224 C 
ATOM     38  H   UNL     1      -7.147  -8.581   8.254  0.00  0.00    +0.157 HD
ENDROOT
BRANCH  30  32
ATOM     32  C   UNL     1      -9.447  -7.650   7.567  0.00  0.00    +0.039 C 
ATOM     33  C   UNL     1     -10.206  -8.779   6.845  0.00  0.00    +0.020 C 
ATOM     34  C   UNL     1      -8.188  -7.313   6.751  0.00  0.00    +0.020 C 
ATOM     35  C   UNL     1     -10.368  -6.422   7.649  0.00  0.00    +0.020 C 
ENDBRANCH  30  32
BRANCH  14   2
ATOM      2  O   UNL     1      -2.319 -11.410  16.944  0.00  0.00    -0.391 OA
ATOM     36  H   UNL     1      -2.719 -11.987  17.617  0.00  0.00    +0.210 HD
ENDBRANCH  14   2
BRANCH  11  19
ATOM     19  C   UNL     1      -2.666 -12.384  14.299  0.00  0.00    +0.165 C 
BRANCH  19   3
ATOM      3  O   UNL     1      -1.262 -12.449  14.408  0.00  0.00    -0.394 OA
ATOM     37  H   UNL     1      -1.029 -13.373  14.600  0.00  0.00    +0.209 HD
ENDBRANCH  19   3
ENDBRANCH  11  19
BRANCH  12  22
ATOM     22  C   UNL     1      -8.339 -10.405  13.958  0.00  0.00    +0.106 C 
BRANCH  22  23
ATOM      4  O   UNL     1      -8.856  -8.568  15.363  0.00  0.00    -0.276 OA
ATOM      7  N   UNL     1      -9.284 -10.683  16.224  0.00  0.00    -0.301 N 
ATOM     23  C   UNL     1      -8.849  -9.796  15.241  0.00  0.00    +0.216 C 
ATOM     25  C   UNL     1      -9.828 -10.168  17.482  0.00  0.00    +0.108 C 
ATOM     26  C   UNL     1      -9.287 -12.145  16.108  0.00  0.00    +0.108 C 
ATOM     27  C   UNL     1      -9.092 -10.762  18.680  0.00  0.00    +0.022 C 
ATOM     28  C   UNL     1      -8.540 -12.784  17.278  0.00  0.00    +0.022 C 
ATOM     29  C   UNL     1      -9.095 -12.298  18.626  0.00  0.00    -0.011 C 
ATOM     31  C   UNL     1      -8.294 -12.883  19.787  0.00  0.00    +0.007 C 
ENDBRANCH  22  23
ENDBRANCH  12  22
TORSDOF 6
ENDMDL
MODEL 8
REMARK VINA RESULT:      -6.1     25.290     29.093
REMARK  Name = 7135085
REMARK  12 active torsions:
REMARK  status: ('A' for Active; 'I' for Inactive)
REMARK    1  A    between atoms: O_2  and  C_14
REMARK    2  A    between atoms: O_3  and  C_19
REMARK    3  A    between atoms: C_9  and  C_17
REMARK    4  A    between atoms: C_11  and  C_19
REMARK    5  A    between atoms: C_11  and  C_20
REMARK    6  A    between atoms: C_12  and  C_22
REMARK    7  A    between atoms: C_22  and  C_23
REMARK    8  A    between atoms: C_29  and  C_31
REMARK    9  A    between atoms: C_30  and  C_32
REMARK   10  A    between atoms: C_32  and  C_33
REMARK   11  A    between atoms: C_32  and  C_34
REMARK   12  A    between atoms: C_32  and  C_35
REMARK                            x       y       z     vdW  Elec       q    Type
REMARK                         _______ _______ _______ _____ _____    ______ ____
ROOT
ATOM      1  S   UNL     1      -5.775 -11.024  12.606  0.00  0.00    -0.057 S 
ATOM      5  O   UNL     1      -8.966  -8.430  10.453  0.00  0.00    -0.275 OA
ATOM      6  N   UNL     1      -7.909  -9.597  12.938  0.00  0.00    -0.229 NA
ATOM      8  N   UNL     1      -7.070  -9.794  10.686  0.00  0.00    -0.264 N 
ATOM      9  C   UNL     1      -7.927 -10.716  16.627  0.00  0.00    -0.019 C 
ATOM     10  C   UNL     1      -6.340 -10.835  16.681  0.00  0.00    +0.011 C 
ATOM     11  C   UNL     1      -5.710 -11.409  18.009  0.00  0.00    +0.021 C 
ATOM     12  C   UNL     1      -8.307  -9.735  15.425  0.00  0.00    +0.054 C 
ATOM     13  C   UNL     1      -8.442 -10.090  17.950  0.00  0.00    +0.010 C 
ATOM     14  C   UNL     1      -6.368 -10.710  19.231  0.00  0.00    +0.123 C 
ATOM     15  C   UNL     1      -5.775 -11.489  15.386  0.00  0.00    +0.049 C 
ATOM     16  C   UNL     1      -7.891 -10.756  19.203  0.00  0.00    +0.032 C 
ATOM     17  C   UNL     1      -8.626 -12.082  16.419  0.00  0.00    +0.012 C 
ATOM     18  C   UNL     1      -7.536 -10.083  14.178  0.00  0.00    +0.058 A 
ATOM     20  C   UNL     1      -4.193 -11.065  18.040  0.00  0.00    +0.016 C 
ATOM     21  C   UNL     1      -6.393 -10.856  14.185  0.00  0.00    +0.015 A 
ATOM     24  C   UNL     1      -7.057 -10.034  12.034  0.00  0.00    +0.165 A 
ATOM     30  C   UNL     1      -8.002  -9.019   9.968  0.00  0.00    +0.224 C 
ATOM     38  H   UNL     1      -6.310 -10.236  10.177  0.00  0.00    +0.157 HD
ENDROOT
BRANCH  30  32
ATOM     32  C   UNL     1      -7.721  -8.955   8.446  0.00  0.00    +0.039 C 
ATOM     33  C   UNL     1      -6.280  -9.425   8.170  0.00  0.00    +0.020 C 
ATOM     34  C   UNL     1      -7.864  -7.511   7.939  0.00  0.00    +0.020 C 
ATOM     35  C   UNL     1      -8.686  -9.881   7.688  0.00  0.00    +0.020 C 
ENDBRANCH  30  32
BRANCH  14   2
ATOM      2  O   UNL     1      -5.913 -11.296  20.451  0.00  0.00    -0.391 OA
ATOM     36  H   UNL     1      -6.310 -12.181  20.520  0.00  0.00    +0.210 HD
ENDBRANCH  14   2
BRANCH  11  19
ATOM     19  C   UNL     1      -5.790 -12.946  18.144  0.00  0.00    +0.165 C 
BRANCH  19   3
ATOM      3  O   UNL     1      -4.520 -13.411  18.544  0.00  0.00    -0.394 OA
ATOM     37  H   UNL     1      -4.508 -13.422  19.515  0.00  0.00    +0.209 HD
ENDBRANCH  19   3
ENDBRANCH  11  19
BRANCH  12  22
ATOM     22  C   UNL     1      -9.811  -9.624  15.143  0.00  0.00    +0.106 C 
BRANCH  22  23
ATOM      4  O   UNL     1      -9.715  -7.522  16.233  0.00  0.00    -0.276 OA
ATOM      7  N   UNL     1     -11.320  -7.754  14.568  0.00  0.00    -0.301 N 
ATOM     23  C   UNL     1     -10.271  -8.205  15.369  0.00  0.00    +0.216 C 
ATOM     25  C   UNL     1     -11.797  -6.376  14.700  0.00  0.00    +0.108 C 
ATOM     26  C   UNL     1     -12.000  -8.542  13.535  0.00  0.00    +0.108 C 
ATOM     27  C   UNL     1     -13.301  -6.342  14.959  0.00  0.00    +0.022 C 
ATOM     28  C   UNL     1     -13.510  -8.553  13.767  0.00  0.00    +0.022 C 
ATOM     29  C   UNL     1     -14.067  -7.126  13.883  0.00  0.00    -0.011 C 
ATOM     31  C   UNL     1     -15.563  -7.150  14.189  0.00  0.00    +0.007 C 
ENDBRANCH  22  23
ENDBRANCH  12  22
TORSDOF 6
ENDMDL
MODEL 9
REMARK VINA RESULT:      -6.0     42.545     44.703
REMARK  Name = 7135085
REMARK  12 active torsions:
REMARK  status: ('A' for Active; 'I' for Inactive)
REMARK    1  A    between atoms: O_2  and  C_14
REMARK    2  A    between atoms: O_3  and  C_19
REMARK    3  A    between atoms: C_9  and  C_17
REMARK    4  A    between atoms: C_11  and  C_19
REMARK    5  A    between atoms: C_11  and  C_20
REMARK    6  A    between atoms: C_12  and  C_22
REMARK    7  A    between atoms: C_22  and  C_23
REMARK    8  A    between atoms: C_29  and  C_31
REMARK    9  A    between atoms: C_30  and  C_32
REMARK   10  A    between atoms: C_32  and  C_33
REMARK   11  A    between atoms: C_32  and  C_34
REMARK   12  A    between atoms: C_32  and  C_35
REMARK                            x       y       z     vdW  Elec       q    Type
REMARK                         _______ _______ _______ _____ _____    ______ ____
ROOT
ATOM      1  S   UNL     1     -10.543  -9.487  38.045  0.00  0.00    -0.057 S 
ATOM      5  O   UNL     1      -5.934  -9.550  38.595  0.00  0.00    -0.275 OA
ATOM      6  N   UNL     1      -8.369 -10.778  37.492  0.00  0.00    -0.229 NA
ATOM      8  N   UNL     1      -8.139  -8.775  38.814  0.00  0.00    -0.264 N 
ATOM      9  C   UNL     1     -10.559 -13.533  35.917  0.00  0.00    -0.019 C 
ATOM     10  C   UNL     1     -11.683 -12.496  35.474  0.00  0.00    +0.011 C 
ATOM     11  C   UNL     1     -12.994 -13.092  34.830  0.00  0.00    +0.021 C 
ATOM     12  C   UNL     1      -9.195 -12.725  36.118  0.00  0.00    +0.054 C 
ATOM     13  C   UNL     1     -10.348 -14.576  34.790  0.00  0.00    +0.010 C 
ATOM     14  C   UNL     1     -12.603 -14.149  33.759  0.00  0.00    +0.123 C 
ATOM     15  C   UNL     1     -11.956 -11.443  36.589  0.00  0.00    +0.049 C 
ATOM     16  C   UNL     1     -11.637 -15.207  34.282  0.00  0.00    +0.032 C 
ATOM     17  C   UNL     1     -10.913 -14.281  37.226  0.00  0.00    +0.012 C 
ATOM     18  C   UNL     1      -9.421 -11.472  36.923  0.00  0.00    +0.058 A 
ATOM     20  C   UNL     1     -13.762 -11.955  34.098  0.00  0.00    +0.016 C 
ATOM     21  C   UNL     1     -10.666 -10.904  37.106  0.00  0.00    +0.015 A 
ATOM     24  C   UNL     1      -8.842  -9.720  38.115  0.00  0.00    +0.165 A 
ATOM     30  C   UNL     1      -6.746  -8.731  39.020  0.00  0.00    +0.224 C 
ATOM     38  H   UNL     1      -8.714  -8.040  39.215  0.00  0.00    +0.157 HD
ENDROOT
BRANCH  30  32
ATOM     32  C   UNL     1      -6.278  -7.519  39.865  0.00  0.00    +0.039 C 
ATOM     33  C   UNL     1      -6.499  -6.221  39.065  0.00  0.00    +0.020 C 
ATOM     34  C   UNL     1      -4.779  -7.642  40.184  0.00  0.00    +0.020 C 
ATOM     35  C   UNL     1      -7.092  -7.431  41.166  0.00  0.00    +0.020 C 
ENDBRANCH  30  32
BRANCH  14   2
ATOM      2  O   UNL     1     -13.765 -14.801  33.247  0.00  0.00    -0.391 OA
ATOM     36  H   UNL     1     -14.044 -14.323  32.448  0.00  0.00    +0.210 HD
ENDBRANCH  14   2
BRANCH  11  19
ATOM     19  C   UNL     1     -13.996 -13.683  35.847  0.00  0.00    +0.165 C 
BRANCH  19   3
ATOM      3  O   UNL     1     -15.298 -13.391  35.389  0.00  0.00    -0.394 OA
ATOM     37  H   UNL     1     -15.650 -14.200  34.982  0.00  0.00    +0.209 HD
ENDBRANCH  19   3
ENDBRANCH  11  19
BRANCH  12  22
ATOM     22  C   UNL     1      -8.039 -13.558  36.688  0.00  0.00    +0.106 C 
BRANCH  22  23
ATOM      4  O   UNL     1      -6.784 -13.186  34.712  0.00  0.00    -0.276 OA
ATOM      7  N   UNL     1      -5.626 -13.030  36.720  0.00  0.00    -0.301 N 
ATOM     23  C   UNL     1      -6.765 -13.241  35.944  0.00  0.00    +0.216 C 
ATOM     25  C   UNL     1      -4.359 -12.679  36.074  0.00  0.00    +0.108 C 
ATOM     26  C   UNL     1      -5.572 -13.088  38.184  0.00  0.00    +0.108 C 
ATOM     27  C   UNL     1      -3.250 -13.640  36.492  0.00  0.00    +0.022 C 
ATOM     28  C   UNL     1      -4.486 -14.058  38.649  0.00  0.00    +0.022 C 
ATOM     29  C   UNL     1      -3.126 -13.714  38.022  0.00  0.00    -0.011 C 
ATOM     31  C   UNL     1      -2.065 -14.732  38.433  0.00  0.00    +0.007 C 
ENDBRANCH  22  23
ENDBRANCH  12  22
TORSDOF 6
ENDMDL
MODEL 10
REMARK VINA RESULT:      -6.0      3.314      5.264
REMARK  Name = 7135085
REMARK  12 active torsions:
REMARK  status: ('A' for Active; 'I' for Inactive)
REMARK    1  A    between atoms: O_2  and  C_14
REMARK    2  A    between atoms: O_3  and  C_19
REMARK    3  A    between atoms: C_9  and  C_17
REMARK    4  A    between atoms: C_11  and  C_19
REMARK    5  A    between atoms: C_11  and  C_20
REMARK    6  A    between atoms: C_12  and  C_22
REMARK    7  A    between atoms: C_22  and  C_23
REMARK    8  A    between atoms: C_29  and  C_31
REMARK    9  A    between atoms: C_30  and  C_32
REMARK   10  A    between atoms: C_32  and  C_33
REMARK   11  A    between atoms: C_32  and  C_34
REMARK   12  A    between atoms: C_32  and  C_35
REMARK                            x       y       z     vdW  Elec       q    Type
REMARK                         _______ _______ _______ _____ _____    ______ ____
ROOT
ATOM      1  S   UNL     1       9.888   5.056   3.061  0.00  0.00    -0.057 S 
ATOM      5  O   UNL     1      11.779   8.124   5.985  0.00  0.00    -0.275 OA
ATOM      6  N   UNL     1      11.965   6.530   3.521  0.00  0.00    -0.229 NA
ATOM      8  N   UNL     1      10.175   6.639   5.132  0.00  0.00    -0.264 N 
ATOM      9  C   UNL     1      13.662   4.855   0.491  0.00  0.00    -0.019 C 
ATOM     10  C   UNL     1      12.278   4.641  -0.267  0.00  0.00    +0.011 C 
ATOM     11  C   UNL     1      12.320   3.835  -1.622  0.00  0.00    +0.021 C 
ATOM     12  C   UNL     1      13.465   6.030   1.555  0.00  0.00    +0.054 C 
ATOM     13  C   UNL     1      14.744   5.296  -0.529  0.00  0.00    +0.010 C 
ATOM     14  C   UNL     1      13.485   4.371  -2.500  0.00  0.00    +0.123 C 
ATOM     15  C   UNL     1      11.162   4.166   0.711  0.00  0.00    +0.049 C 
ATOM     16  C   UNL     1      14.821   4.414  -1.767  0.00  0.00    +0.032 C 
ATOM     17  C   UNL     1      14.154   3.578   1.217  0.00  0.00    +0.012 C 
ATOM     18  C   UNL     1      12.197   5.837   2.346  0.00  0.00    +0.058 A 
ATOM     20  C   UNL     1      10.999   4.086  -2.403  0.00  0.00    +0.016 C 
ATOM     21  C   UNL     1      11.169   5.011   1.940  0.00  0.00    +0.015 A 
ATOM     24  C   UNL     1      10.782   6.192   3.989  0.00  0.00    +0.165 A 
ATOM     30  C   UNL     1      10.687   7.565   6.061  0.00  0.00    +0.224 C 
ATOM     38  H   UNL     1       9.256   6.240   5.299  0.00  0.00    +0.157 HD
ENDROOT
BRANCH  30  32
ATOM     32  C   UNL     1       9.735   7.849   7.251  0.00  0.00    +0.039 C 
ATOM     33  C   UNL     1       9.768   6.660   8.229  0.00  0.00    +0.020 C 
ATOM     34  C   UNL     1       8.293   8.022   6.747  0.00  0.00    +0.020 C 
ATOM     35  C   UNL     1      10.187   9.110   8.004  0.00  0.00    +0.020 C 
ENDBRANCH  30  32
BRANCH  14   2
ATOM      2  O   UNL     1      13.632   3.579  -3.679  0.00  0.00    -0.391 OA
ATOM     36  H   UNL     1      12.761   3.204  -3.894  0.00  0.00    +0.210 HD
ENDBRANCH  14   2
BRANCH  11  19
ATOM     19  C   UNL     1      12.418   2.302  -1.453  0.00  0.00    +0.165 C 
BRANCH  19   3
ATOM      3  O   UNL     1      11.572   1.707  -2.412  0.00  0.00    -0.394 OA
ATOM     37  H   UNL     1      12.030   1.752  -3.268  0.00  0.00    +0.209 HD
ENDBRANCH  19   3
ENDBRANCH  11  19
BRANCH  12  22
ATOM     22  C   UNL     1      14.670   6.265   2.475  0.00  0.00    +0.106 C 
BRANCH  22  23
ATOM      4  O   UNL     1      15.369   8.098   1.145  0.00  0.00    -0.276 OA
ATOM      7  N   UNL     1      15.441   8.402   3.447  0.00  0.00    -0.301 N 
ATOM     23  C   UNL     1      15.190   7.669   2.288  0.00  0.00    +0.216 C 
ATOM     25  C   UNL     1      15.911   9.785   3.348  0.00  0.00    +0.108 C 
ATOM     26  C   UNL     1      15.239   7.920   4.818  0.00  0.00    +0.108 C 
ATOM     27  C   UNL     1      17.201   9.982   4.139  0.00  0.00    +0.022 C 
ATOM     28  C   UNL     1      16.515   8.078   5.642  0.00  0.00    +0.022 C 
ATOM     29  C   UNL     1      17.034   9.524   5.596  0.00  0.00    -0.011 C 
ATOM     31  C   UNL     1      18.349   9.654   6.361  0.00  0.00    +0.007 C 
ENDBRANCH  22  23
ENDBRANCH  12  22
TORSDOF 6
ENDMDL
