MODEL 1
REMARK VINA RESULT:      -6.7      0.000      0.000
REMARK  Name = 75536814
REMARK  7 active torsions:
REMARK  status: ('A' for Active; 'I' for Inactive)
REMARK    1  A    between atoms: O_2  and  C_8
REMARK    2  A    between atoms: N_4  and  C_16
REMARK    3  A    between atoms: N_5  and  C_10
REMARK    4  A    between atoms: N_5  and  C_18
REMARK    5  A    between atoms: C_7  and  C_16
REMARK    6  A    between atoms: C_9  and  C_17
REMARK    7  A    between atoms: C_18  and  C_19
REMARK                            x       y       z     vdW  Elec       q    Type
REMARK                         _______ _______ _______ _____ _____    ______ ____
ROOT
ATOM      1  O   UNL     1      10.660   8.651  20.048  0.00  0.00    -0.371 OA
ATOM      7  C   UNL     1      10.856   7.679  21.088  0.00  0.00    +0.165 C 
ATOM      8  C   UNL     1      12.277   7.158  20.914  0.00  0.00    +0.164 C 
ATOM     10  C   UNL     1      12.415   7.189  19.403  0.00  0.00    +0.111 C 
ATOM     15  C   UNL     1      11.690   8.479  19.060  0.00  0.00    +0.181 C 
ENDROOT
BRANCH   8   2
ATOM      2  O   UNL     1      12.431   5.859  21.450  0.00  0.00    -0.388 OA
ATOM     26  H   UNL     1      11.603   5.610  21.893  0.00  0.00    +0.210 HD
ENDBRANCH   8   2
BRANCH  10   5
ATOM      5  N   UNL     1      13.796   7.176  18.945  0.00  0.00    -0.305 NA
ATOM     25  H   UNL     1      13.844   7.606  18.021  0.00  0.00    +0.123 HD
BRANCH   5  18
ATOM     18  C   UNL     1      14.657   7.922  19.855  0.00  0.00    +0.116 C 
BRANCH  18  19
ATOM      6  N   UNL     1      18.584   6.189  20.126  0.00  0.00    -0.263 NA
ATOM     19  C   UNL     1      16.032   7.316  19.950  0.00  0.00    -0.031 A 
ATOM     20  C   UNL     1      16.400   6.284  19.093  0.00  0.00    +0.024 A 
ATOM     21  C   UNL     1      16.938   7.785  20.894  0.00  0.00    +0.024 A 
ATOM     22  C   UNL     1      17.676   5.759  19.221  0.00  0.00    +0.111 A 
ATOM     23  C   UNL     1      18.191   7.193  20.941  0.00  0.00    +0.111 A 
ENDBRANCH  18  19
ENDBRANCH   5  18
ENDBRANCH  10   5
BRANCH   7  16
ATOM     16  C   UNL     1      10.612   8.319  22.442  0.00  0.00    +0.138 C 
BRANCH  16   4
ATOM      3  O   UNL     1      12.688  10.338  22.648  0.00  0.00    -0.276 OA
ATOM      4  N   UNL     1      10.459   9.741  22.328  0.00  0.00    -0.313 N 
ATOM     17  C   UNL     1      11.516  10.638  22.441  0.00  0.00    +0.216 C 
ATOM     24  H   UNL     1       9.525  10.098  22.153  0.00  0.00    +0.149 HD
BRANCH  17   9
ATOM      9  C   UNL     1      11.084  12.061  22.258  0.00  0.00    +0.075 C 
ATOM     11  C   UNL     1      12.196  12.871  21.581  0.00  0.00    +0.013 C 
ATOM     12  C   UNL     1      10.833  12.728  23.611  0.00  0.00    +0.013 C 
ATOM     13  C   UNL     1      12.487  14.040  22.515  0.00  0.00    +0.001 C 
ATOM     14  C   UNL     1      12.100  13.524  23.888  0.00  0.00    +0.001 C 
ENDBRANCH  17   9
ENDBRANCH  16   4
ENDBRANCH   7  16
TORSDOF 7
ENDMDL
MODEL 2
REMARK VINA RESULT:      -6.4      2.724      6.676
REMARK  Name = 75536814
REMARK  7 active torsions:
REMARK  status: ('A' for Active; 'I' for Inactive)
REMARK    1  A    between atoms: O_2  and  C_8
REMARK    2  A    between atoms: N_4  and  C_16
REMARK    3  A    between atoms: N_5  and  C_10
REMARK    4  A    between atoms: N_5  and  C_18
REMARK    5  A    between atoms: C_7  and  C_16
REMARK    6  A    between atoms: C_9  and  C_17
REMARK    7  A    between atoms: C_18  and  C_19
REMARK                            x       y       z     vdW  Elec       q    Type
REMARK                         _______ _______ _______ _____ _____    ______ ____
ROOT
ATOM      1  O   UNL     1      12.703   6.774  21.139  0.00  0.00    -0.371 OA
ATOM      7  C   UNL     1      12.278   7.124  19.812  0.00  0.00    +0.165 C 
ATOM      8  C   UNL     1      11.406   8.364  19.962  0.00  0.00    +0.164 C 
ATOM     10  C   UNL     1      10.729   8.084  21.291  0.00  0.00    +0.111 C 
ATOM     15  C   UNL     1      11.866   7.463  22.085  0.00  0.00    +0.181 C 
ENDROOT
BRANCH   8   2
ATOM      2  O   UNL     1      10.486   8.493  18.897  0.00  0.00    -0.388 OA
ATOM     26  H   UNL     1       9.922   9.265  19.072  0.00  0.00    +0.210 HD
ENDBRANCH   8   2
BRANCH  10   5
ATOM      5  N   UNL     1      10.180   9.272  21.925  0.00  0.00    -0.305 NA
ATOM     25  H   UNL     1       9.283   9.038  22.351  0.00  0.00    +0.123 HD
BRANCH   5  18
ATOM     18  C   UNL     1      11.075   9.775  22.961  0.00  0.00    +0.116 C 
BRANCH  18  19
ATOM      6  N   UNL     1      10.811  14.049  23.371  0.00  0.00    -0.263 NA
ATOM     19  C   UNL     1      10.982  11.271  23.105  0.00  0.00    -0.031 A 
ATOM     20  C   UNL     1      10.741  11.840  24.351  0.00  0.00    +0.024 A 
ATOM     21  C   UNL     1      11.138  12.089  21.992  0.00  0.00    +0.024 A 
ATOM     22  C   UNL     1      10.664  13.220  24.430  0.00  0.00    +0.111 A 
ATOM     23  C   UNL     1      11.045  13.460  22.177  0.00  0.00    +0.111 A 
ENDBRANCH  18  19
ENDBRANCH   5  18
ENDBRANCH  10   5
BRANCH   7  16
ATOM     16  C   UNL     1      13.490   7.345  18.926  0.00  0.00    +0.138 C 
BRANCH  16   4
ATOM      3  O   UNL     1      13.872   8.027  16.129  0.00  0.00    -0.276 OA
ATOM      4  N   UNL     1      13.475   8.654  18.338  0.00  0.00    -0.313 N 
ATOM     17  C   UNL     1      13.668   8.888  16.981  0.00  0.00    +0.216 C 
ATOM     24  H   UNL     1      13.311   9.442  18.957  0.00  0.00    +0.149 HD
BRANCH  17   9
ATOM      9  C   UNL     1      13.580  10.341  16.630  0.00  0.00    +0.075 C 
ATOM     11  C   UNL     1      14.669  10.711  15.616  0.00  0.00    +0.013 C 
ATOM     12  C   UNL     1      13.833  11.211  17.863  0.00  0.00    +0.013 C 
ATOM     13  C   UNL     1      15.458  11.852  16.248  0.00  0.00    +0.001 C 
ATOM     14  C   UNL     1      15.288  11.638  17.741  0.00  0.00    +0.001 C 
ENDBRANCH  17   9
ENDBRANCH  16   4
ENDBRANCH   7  16
TORSDOF 7
ENDMDL
MODEL 3
REMARK VINA RESULT:      -6.3      1.761      7.111
REMARK  Name = 75536814
REMARK  7 active torsions:
REMARK  status: ('A' for Active; 'I' for Inactive)
REMARK    1  A    between atoms: O_2  and  C_8
REMARK    2  A    between atoms: N_4  and  C_16
REMARK    3  A    between atoms: N_5  and  C_10
REMARK    4  A    between atoms: N_5  and  C_18
REMARK    5  A    between atoms: C_7  and  C_16
REMARK    6  A    between atoms: C_9  and  C_17
REMARK    7  A    between atoms: C_18  and  C_19
REMARK                            x       y       z     vdW  Elec       q    Type
REMARK                         _______ _______ _______ _____ _____    ______ ____
ROOT
ATOM      1  O   UNL     1      13.326   6.589  20.525  0.00  0.00    -0.371 OA
ATOM      7  C   UNL     1      13.251   7.223  19.239  0.00  0.00    +0.165 C 
ATOM      8  C   UNL     1      12.248   8.360  19.387  0.00  0.00    +0.164 C 
ATOM     10  C   UNL     1      11.262   7.751  20.367  0.00  0.00    +0.111 C 
ATOM     15  C   UNL     1      12.193   7.004  21.308  0.00  0.00    +0.181 C 
ENDROOT
BRANCH   8   2
ATOM      2  O   UNL     1      11.650   8.701  18.153  0.00  0.00    -0.388 OA
ATOM     26  H   UNL     1      11.987   8.094  17.471  0.00  0.00    +0.210 HD
ENDBRANCH   8   2
BRANCH  10   5
ATOM      5  N   UNL     1      10.438   8.735  21.051  0.00  0.00    -0.305 NA
ATOM     25  H   UNL     1       9.479   8.390  21.100  0.00  0.00    +0.123 HD
BRANCH   5  18
ATOM     18  C   UNL     1      10.921   8.974  22.406  0.00  0.00    +0.116 C 
BRANCH  18  19
ATOM      6  N   UNL     1      11.303  13.174  23.254  0.00  0.00    -0.263 NA
ATOM     19  C   UNL     1      11.055  10.444  22.703  0.00  0.00    -0.031 A 
ATOM     20  C   UNL     1      11.366  11.337  21.683  0.00  0.00    +0.024 A 
ATOM     21  C   UNL     1      10.867  10.914  23.997  0.00  0.00    +0.024 A 
ATOM     22  C   UNL     1      11.479  12.679  22.007  0.00  0.00    +0.111 A 
ATOM     23  C   UNL     1      11.000  12.276  24.218  0.00  0.00    +0.111 A 
ENDBRANCH  18  19
ENDBRANCH   5  18
ENDBRANCH  10   5
BRANCH   7  16
ATOM     16  C   UNL     1      14.631   7.692  18.816  0.00  0.00    +0.138 C 
BRANCH  16   4
ATOM      3  O   UNL     1      16.737   5.694  18.787  0.00  0.00    -0.276 OA
ATOM      4  N   UNL     1      15.606   7.438  19.838  0.00  0.00    -0.313 N 
ATOM     17  C   UNL     1      16.584   6.454  19.738  0.00  0.00    +0.216 C 
ATOM     24  H   UNL     1      15.569   8.016  20.672  0.00  0.00    +0.149 HD
BRANCH  17   9
ATOM      9  C   UNL     1      17.485   6.417  20.933  0.00  0.00    +0.075 C 
ATOM     11  C   UNL     1      17.749   7.838  21.445  0.00  0.00    +0.013 C 
ATOM     12  C   UNL     1      18.851   5.838  20.562  0.00  0.00    +0.013 C 
ATOM     13  C   UNL     1      19.264   8.005  21.450  0.00  0.00    +0.001 C 
ATOM     14  C   UNL     1      19.746   7.053  20.371  0.00  0.00    +0.001 C 
ENDBRANCH  17   9
ENDBRANCH  16   4
ENDBRANCH   7  16
TORSDOF 7
ENDMDL
MODEL 4
REMARK VINA RESULT:      -6.0     27.217     29.421
REMARK  Name = 75536814
REMARK  7 active torsions:
REMARK  status: ('A' for Active; 'I' for Inactive)
REMARK    1  A    between atoms: O_2  and  C_8
REMARK    2  A    between atoms: N_4  and  C_16
REMARK    3  A    between atoms: N_5  and  C_10
REMARK    4  A    between atoms: N_5  and  C_18
REMARK    5  A    between atoms: C_7  and  C_16
REMARK    6  A    between atoms: C_9  and  C_17
REMARK    7  A    between atoms: C_18  and  C_19
REMARK                            x       y       z     vdW  Elec       q    Type
REMARK                         _______ _______ _______ _____ _____    ______ ____
ROOT
ATOM      1  O   UNL     1     -12.147  -8.303  16.925  0.00  0.00    -0.371 OA
ATOM      7  C   UNL     1     -11.923  -7.113  16.152  0.00  0.00    +0.165 C 
ATOM      8  C   UNL     1     -10.469  -7.172  15.700  0.00  0.00    +0.164 C 
ATOM     10  C   UNL     1      -9.819  -7.838  16.898  0.00  0.00    +0.111 C 
ATOM     15  C   UNL     1     -10.872  -8.864  17.282  0.00  0.00    +0.181 C 
ENDROOT
BRANCH   8   2
ATOM      2  O   UNL     1      -9.946  -5.886  15.438  0.00  0.00    -0.388 OA
ATOM     26  H   UNL     1     -10.622  -5.369  14.969  0.00  0.00    +0.210 HD
ENDBRANCH   8   2
BRANCH  10   5
ATOM      5  N   UNL     1      -8.527  -8.437  16.601  0.00  0.00    -0.305 NA
ATOM     25  H   UNL     1      -7.811  -7.710  16.616  0.00  0.00    +0.123 HD
BRANCH   5  18
ATOM     18  C   UNL     1      -8.182  -9.457  17.584  0.00  0.00    +0.116 C 
BRANCH  18  19
ATOM      6  N   UNL     1      -4.144 -10.855  17.097  0.00  0.00    -0.263 NA
ATOM     19  C   UNL     1      -6.769  -9.946  17.414  0.00  0.00    -0.031 A 
ATOM     20  C   UNL     1      -6.134 -10.622  18.450  0.00  0.00    +0.024 A 
ATOM     21  C   UNL     1      -6.093  -9.724  16.220  0.00  0.00    +0.024 A 
ATOM     22  C   UNL     1      -4.833 -11.052  18.244  0.00  0.00    +0.111 A 
ATOM     23  C   UNL     1      -4.794 -10.195  16.112  0.00  0.00    +0.111 A 
ENDBRANCH  18  19
ENDBRANCH   5  18
ENDBRANCH  10   5
BRANCH   7  16
ATOM     16  C   UNL     1     -12.909  -7.056  15.000  0.00  0.00    +0.138 C 
BRANCH  16   4
ATOM      3  O   UNL     1     -12.322  -6.069  12.333  0.00  0.00    -0.276 OA
ATOM      4  N   UNL     1     -13.065  -5.715  14.512  0.00  0.00    -0.313 N 
ATOM     17  C   UNL     1     -12.758  -5.331  13.212  0.00  0.00    +0.216 C 
ATOM     24  H   UNL     1     -13.424  -5.021  15.161  0.00  0.00    +0.149 HD
BRANCH  17   9
ATOM      9  C   UNL     1     -13.038  -3.881  12.960  0.00  0.00    +0.075 C 
ATOM     11  C   UNL     1     -14.549  -3.628  12.930  0.00  0.00    +0.013 C 
ATOM     12  C   UNL     1     -12.507  -3.459  11.588  0.00  0.00    +0.013 C 
ATOM     13  C   UNL     1     -14.836  -2.975  11.583  0.00  0.00    +0.001 C 
ATOM     14  C   UNL     1     -13.728  -3.484  10.680  0.00  0.00    +0.001 C 
ENDBRANCH  17   9
ENDBRANCH  16   4
ENDBRANCH   7  16
TORSDOF 7
ENDMDL
MODEL 5
REMARK VINA RESULT:      -5.9     27.339     29.325
REMARK  Name = 75536814
REMARK  7 active torsions:
REMARK  status: ('A' for Active; 'I' for Inactive)
REMARK    1  A    between atoms: O_2  and  C_8
REMARK    2  A    between atoms: N_4  and  C_16
REMARK    3  A    between atoms: N_5  and  C_10
REMARK    4  A    between atoms: N_5  and  C_18
REMARK    5  A    between atoms: C_7  and  C_16
REMARK    6  A    between atoms: C_9  and  C_17
REMARK    7  A    between atoms: C_18  and  C_19
REMARK                            x       y       z     vdW  Elec       q    Type
REMARK                         _______ _______ _______ _____ _____    ______ ____
ROOT
ATOM      1  O   UNL     1     -11.748  -7.667  13.886  0.00  0.00    -0.371 OA
ATOM      7  C   UNL     1     -11.894  -6.689  14.929  0.00  0.00    +0.165 C 
ATOM      8  C   UNL     1     -10.589  -6.713  15.715  0.00  0.00    +0.164 C 
ATOM     10  C   UNL     1     -10.229  -8.186  15.637  0.00  0.00    +0.111 C 
ATOM     15  C   UNL     1     -10.637  -8.521  14.212  0.00  0.00    +0.181 C 
ENDROOT
BRANCH   8   2
ATOM      2  O   UNL     1     -10.766  -6.263  17.043  0.00  0.00    -0.388 OA
ATOM     26  H   UNL     1     -10.734  -7.034  17.634  0.00  0.00    +0.210 HD
ENDBRANCH   8   2
BRANCH  10   5
ATOM      5  N   UNL     1      -8.825  -8.456  15.903  0.00  0.00    -0.305 NA
ATOM     25  H   UNL     1      -8.312  -7.574  15.915  0.00  0.00    +0.123 HD
BRANCH   5  18
ATOM     18  C   UNL     1      -8.654  -9.117  17.192  0.00  0.00    +0.116 C 
BRANCH  18  19
ATOM      6  N   UNL     1      -4.672 -10.671  17.678  0.00  0.00    -0.263 NA
ATOM     19  C   UNL     1      -7.260  -9.661  17.362  0.00  0.00    -0.031 A 
ATOM     20  C   UNL     1      -6.886 -10.260  18.560  0.00  0.00    +0.024 A 
ATOM     21  C   UNL     1      -6.343  -9.567  16.322  0.00  0.00    +0.024 A 
ATOM     22  C   UNL     1      -5.592 -10.744  18.667  0.00  0.00    +0.111 A 
ATOM     23  C   UNL     1      -5.073 -10.083  16.528  0.00  0.00    +0.111 A 
ENDBRANCH  18  19
ENDBRANCH   5  18
ENDBRANCH  10   5
BRANCH   7  16
ATOM     16  C   UNL     1     -12.204  -5.334  14.321  0.00  0.00    +0.138 C 
BRANCH  16   4
ATOM      3  O   UNL     1     -12.233  -3.151  12.407  0.00  0.00    -0.276 OA
ATOM      4  N   UNL     1     -12.368  -5.424  12.898  0.00  0.00    -0.313 N 
ATOM     17  C   UNL     1     -12.369  -4.319  12.054  0.00  0.00    +0.216 C 
ATOM     24  H   UNL     1     -12.486  -6.351  12.500  0.00  0.00    +0.149 HD
BRANCH  17   9
ATOM      9  C   UNL     1     -12.533  -4.696  10.614  0.00  0.00    +0.075 C 
ATOM     11  C   UNL     1     -11.596  -5.856  10.257  0.00  0.00    +0.013 C 
ATOM     12  C   UNL     1     -12.138  -3.533   9.703  0.00  0.00    +0.013 C 
ATOM     13  C   UNL     1     -10.755  -5.366   9.084  0.00  0.00    +0.001 C 
ATOM     14  C   UNL     1     -10.721  -3.859   9.255  0.00  0.00    +0.001 C 
ENDBRANCH  17   9
ENDBRANCH  16   4
ENDBRANCH   7  16
TORSDOF 7
ENDMDL
MODEL 6
REMARK VINA RESULT:      -5.9     25.952     28.311
REMARK  Name = 75536814
REMARK  7 active torsions:
REMARK  status: ('A' for Active; 'I' for Inactive)
REMARK    1  A    between atoms: O_2  and  C_8
REMARK    2  A    between atoms: N_4  and  C_16
REMARK    3  A    between atoms: N_5  and  C_10
REMARK    4  A    between atoms: N_5  and  C_18
REMARK    5  A    between atoms: C_7  and  C_16
REMARK    6  A    between atoms: C_9  and  C_17
REMARK    7  A    between atoms: C_18  and  C_19
REMARK                            x       y       z     vdW  Elec       q    Type
REMARK                         _______ _______ _______ _____ _____    ______ ____
ROOT
ATOM      1  O   UNL     1      -7.475 -13.040  18.161  0.00  0.00    -0.371 OA
ATOM      7  C   UNL     1      -7.486 -12.338  19.414  0.00  0.00    +0.165 C 
ATOM      8  C   UNL     1      -6.185 -11.549  19.467  0.00  0.00    +0.164 C 
ATOM     10  C   UNL     1      -5.240 -12.496  18.751  0.00  0.00    +0.111 C 
ATOM     15  C   UNL     1      -6.132 -13.033  17.644  0.00  0.00    +0.181 C 
ENDROOT
BRANCH   8   2
ATOM      2  O   UNL     1      -5.785 -11.279  20.796  0.00  0.00    -0.388 OA
ATOM     26  H   UNL     1      -4.907 -11.671  20.937  0.00  0.00    +0.210 HD
ENDBRANCH   8   2
BRANCH  10   5
ATOM      5  N   UNL     1      -4.039 -11.849  18.247  0.00  0.00    -0.305 NA
ATOM     25  H   UNL     1      -3.507 -12.520  17.692  0.00  0.00    +0.123 HD
BRANCH   5  18
ATOM     18  C   UNL     1      -4.373 -10.705  17.407  0.00  0.00    +0.116 C 
BRANCH  18  19
ATOM      6  N   UNL     1      -2.024 -10.619  13.805  0.00  0.00    -0.263 NA
ATOM     19  C   UNL     1      -3.551 -10.675  16.147  0.00  0.00    -0.031 A 
ATOM     20  C   UNL     1      -2.163 -10.616  16.219  0.00  0.00    +0.024 A 
ATOM     21  C   UNL     1      -4.176 -10.707  14.905  0.00  0.00    +0.024 A 
ATOM     22  C   UNL     1      -1.452 -10.589  15.031  0.00  0.00    +0.111 A 
ATOM     23  C   UNL     1      -3.374 -10.678  13.775  0.00  0.00    +0.111 A 
ENDBRANCH  18  19
ENDBRANCH   5  18
ENDBRANCH  10   5
BRANCH   7  16
ATOM     16  C   UNL     1      -8.724 -11.464  19.502  0.00  0.00    +0.138 C 
BRANCH  16   4
ATOM      3  O   UNL     1     -10.874  -9.689  18.694  0.00  0.00    -0.276 OA
ATOM      4  N   UNL     1      -8.643 -10.352  18.599  0.00  0.00    -0.313 N 
ATOM     17  C   UNL     1      -9.731  -9.552  18.268  0.00  0.00    +0.216 C 
ATOM     24  H   UNL     1      -7.736 -10.148  18.190  0.00  0.00    +0.149 HD
BRANCH  17   9
ATOM      9  C   UNL     1      -9.366  -8.447  17.324  0.00  0.00    +0.075 C 
ATOM     11  C   UNL     1     -10.596  -7.588  17.009  0.00  0.00    +0.013 C 
ATOM     12  C   UNL     1      -8.889  -9.015  15.987  0.00  0.00    +0.013 C 
ATOM     13  C   UNL     1     -10.736  -7.601  15.491  0.00  0.00    +0.001 C 
ATOM     14  C   UNL     1     -10.099  -8.913  15.071  0.00  0.00    +0.001 C 
ENDBRANCH  17   9
ENDBRANCH  16   4
ENDBRANCH   7  16
TORSDOF 7
ENDMDL
MODEL 7
REMARK VINA RESULT:      -5.9     26.348     28.323
REMARK  Name = 75536814
REMARK  7 active torsions:
REMARK  status: ('A' for Active; 'I' for Inactive)
REMARK    1  A    between atoms: O_2  and  C_8
REMARK    2  A    between atoms: N_4  and  C_16
REMARK    3  A    between atoms: N_5  and  C_10
REMARK    4  A    between atoms: N_5  and  C_18
REMARK    5  A    between atoms: C_7  and  C_16
REMARK    6  A    between atoms: C_9  and  C_17
REMARK    7  A    between atoms: C_18  and  C_19
REMARK                            x       y       z     vdW  Elec       q    Type
REMARK                         _______ _______ _______ _____ _____    ______ ____
ROOT
ATOM      1  O   UNL     1      -3.925 -10.403  13.936  0.00  0.00    -0.371 OA
ATOM      7  C   UNL     1      -2.499 -10.545  14.040  0.00  0.00    +0.165 C 
ATOM      8  C   UNL     1      -2.253 -11.458  15.234  0.00  0.00    +0.164 C 
ATOM     10  C   UNL     1      -3.382 -11.042  16.157  0.00  0.00    +0.111 C 
ATOM     15  C   UNL     1      -4.520 -10.839  15.171  0.00  0.00    +0.181 C 
ENDROOT
BRANCH   8   2
ATOM      2  O   UNL     1      -0.976 -11.249  15.803  0.00  0.00    -0.388 OA
ATOM     26  H   UNL     1      -1.092 -11.033  16.744  0.00  0.00    +0.210 HD
ENDBRANCH   8   2
BRANCH  10   5
ATOM      5  N   UNL     1      -3.690 -12.027  17.182  0.00  0.00    -0.305 NA
ATOM     25  H   UNL     1      -2.841 -12.543  17.414  0.00  0.00    +0.123 HD
BRANCH   5  18
ATOM     18  C   UNL     1      -4.196 -11.387  18.390  0.00  0.00    +0.116 C 
BRANCH  18  19
ATOM      6  N   UNL     1      -8.397 -12.119  18.952  0.00  0.00    -0.263 NA
ATOM     19  C   UNL     1      -5.667 -11.644  18.587  0.00  0.00    -0.031 A 
ATOM     20  C   UNL     1      -6.252 -12.790  18.060  0.00  0.00    +0.024 A 
ATOM     21  C   UNL     1      -6.444 -10.736  19.296  0.00  0.00    +0.024 A 
ATOM     22  C   UNL     1      -7.609 -12.979  18.268  0.00  0.00    +0.111 A 
ATOM     23  C   UNL     1      -7.793 -11.018  19.451  0.00  0.00    +0.111 A 
ENDBRANCH  18  19
ENDBRANCH   5  18
ENDBRANCH  10   5
BRANCH   7  16
ATOM     16  C   UNL     1      -1.941 -11.091  12.739  0.00  0.00    +0.138 C 
BRANCH  16   4
ATOM      3  O   UNL     1      -3.447 -12.541  10.724  0.00  0.00    -0.276 OA
ATOM      4  N   UNL     1      -2.628 -10.545  11.605  0.00  0.00    -0.313 N 
ATOM     17  C   UNL     1      -3.329 -11.319  10.686  0.00  0.00    +0.216 C 
ATOM     24  H   UNL     1      -2.596  -9.537  11.480  0.00  0.00    +0.149 HD
BRANCH  17   9
ATOM      9  C   UNL     1      -3.972 -10.496   9.613  0.00  0.00    +0.075 C 
ATOM     11  C   UNL     1      -3.677  -9.008   9.835  0.00  0.00    +0.013 C 
ATOM     12  C   UNL     1      -5.494 -10.640   9.661  0.00  0.00    +0.013 C 
ATOM     13  C   UNL     1      -5.035  -8.319   9.904  0.00  0.00    +0.001 C 
ATOM     14  C   UNL     1      -5.975  -9.401  10.402  0.00  0.00    +0.001 C 
ENDBRANCH  17   9
ENDBRANCH  16   4
ENDBRANCH   7  16
TORSDOF 7
ENDMDL
MODEL 8
REMARK VINA RESULT:      -5.9      2.944      7.157
REMARK  Name = 75536814
REMARK  7 active torsions:
REMARK  status: ('A' for Active; 'I' for Inactive)
REMARK    1  A    between atoms: O_2  and  C_8
REMARK    2  A    between atoms: N_4  and  C_16
REMARK    3  A    between atoms: N_5  and  C_10
REMARK    4  A    between atoms: N_5  and  C_18
REMARK    5  A    between atoms: C_7  and  C_16
REMARK    6  A    between atoms: C_9  and  C_17
REMARK    7  A    between atoms: C_18  and  C_19
REMARK                            x       y       z     vdW  Elec       q    Type
REMARK                         _______ _______ _______ _____ _____    ______ ____
ROOT
ATOM      1  O   UNL     1      15.477   8.668  21.616  0.00  0.00    -0.371 OA
ATOM      7  C   UNL     1      14.960   7.335  21.758  0.00  0.00    +0.165 C 
ATOM      8  C   UNL     1      13.654   7.303  20.973  0.00  0.00    +0.164 C 
ATOM     10  C   UNL     1      13.137   8.710  21.212  0.00  0.00    +0.111 C 
ATOM     15  C   UNL     1      14.421   9.520  21.138  0.00  0.00    +0.181 C 
ENDROOT
BRANCH   8   2
ATOM      2  O   UNL     1      12.773   6.308  21.455  0.00  0.00    -0.388 OA
ATOM     26  H   UNL     1      11.873   6.527  21.160  0.00  0.00    +0.210 HD
ENDBRANCH   8   2
BRANCH  10   5
ATOM      5  N   UNL     1      12.142   9.137  20.240  0.00  0.00    -0.305 NA
ATOM     25  H   UNL     1      12.473   9.982  19.774  0.00  0.00    +0.123 HD
BRANCH   5  18
ATOM     18  C   UNL     1      11.914   8.105  19.235  0.00  0.00    +0.116 C 
BRANCH  18  19
ATOM      6  N   UNL     1      12.192   9.671  15.239  0.00  0.00    -0.263 NA
ATOM     19  C   UNL     1      12.012   8.653  17.837  0.00  0.00    -0.031 A 
ATOM     20  C   UNL     1      13.193   9.241  17.398  0.00  0.00    +0.024 A 
ATOM     21  C   UNL     1      10.921   8.572  16.979  0.00  0.00    +0.024 A 
ATOM     22  C   UNL     1      13.232   9.731  16.103  0.00  0.00    +0.111 A 
ATOM     23  C   UNL     1      11.062   9.091  15.701  0.00  0.00    +0.111 A 
ENDBRANCH  18  19
ENDBRANCH   5  18
ENDBRANCH  10   5
BRANCH   7  16
ATOM     16  C   UNL     1      15.983   6.331  21.262  0.00  0.00    +0.138 C 
BRANCH  16   4
ATOM      3  O   UNL     1      18.303   5.717  19.627  0.00  0.00    -0.276 OA
ATOM      4  N   UNL     1      17.321   6.824  21.427  0.00  0.00    -0.313 N 
ATOM     17  C   UNL     1      18.376   6.474  20.591  0.00  0.00    +0.216 C 
ATOM     24  H   UNL     1      17.492   7.463  22.197  0.00  0.00    +0.149 HD
BRANCH  17   9
ATOM      9  C   UNL     1      19.658   7.148  20.971  0.00  0.00    +0.075 C 
ATOM     11  C   UNL     1      20.808   6.134  20.990  0.00  0.00    +0.013 C 
ATOM     12  C   UNL     1      19.569   7.719  22.387  0.00  0.00    +0.013 C 
ATOM     13  C   UNL     1      21.415   6.219  22.386  0.00  0.00    +0.001 C 
ATOM     14  C   UNL     1      20.268   6.689  23.262  0.00  0.00    +0.001 C 
ENDBRANCH  17   9
ENDBRANCH  16   4
ENDBRANCH   7  16
TORSDOF 7
ENDMDL
MODEL 9
REMARK VINA RESULT:      -5.8     25.598     27.567
REMARK  Name = 75536814
REMARK  7 active torsions:
REMARK  status: ('A' for Active; 'I' for Inactive)
REMARK    1  A    between atoms: O_2  and  C_8
REMARK    2  A    between atoms: N_4  and  C_16
REMARK    3  A    between atoms: N_5  and  C_10
REMARK    4  A    between atoms: N_5  and  C_18
REMARK    5  A    between atoms: C_7  and  C_16
REMARK    6  A    between atoms: C_9  and  C_17
REMARK    7  A    between atoms: C_18  and  C_19
REMARK                            x       y       z     vdW  Elec       q    Type
REMARK                         _______ _______ _______ _____ _____    ______ ____
ROOT
ATOM      1  O   UNL     1      -2.332 -12.468  14.599  0.00  0.00    -0.371 OA
ATOM      7  C   UNL     1      -1.801 -11.281  15.209  0.00  0.00    +0.165 C 
ATOM      8  C   UNL     1      -1.847 -10.200  14.137  0.00  0.00    +0.164 C 
ATOM     10  C   UNL     1      -1.555 -11.014  12.890  0.00  0.00    +0.111 C 
ATOM     15  C   UNL     1      -2.335 -12.287  13.172  0.00  0.00    +0.181 C 
ENDROOT
BRANCH   8   2
ATOM      2  O   UNL     1      -0.886  -9.189  14.367  0.00  0.00    -0.388 OA
ATOM     26  H   UNL     1      -1.169  -8.665  15.135  0.00  0.00    +0.210 HD
ENDBRANCH   8   2
BRANCH  10   5
ATOM      5  N   UNL     1      -1.966 -10.359  11.659  0.00  0.00    -0.305 NA
ATOM     25  H   UNL     1      -1.168 -10.308  11.026  0.00  0.00    +0.123 HD
BRANCH   5  18
ATOM     18  C   UNL     1      -3.038 -11.100  11.003  0.00  0.00    +0.116 C 
BRANCH  18  19
ATOM      6  N   UNL     1      -6.323  -8.544   9.918  0.00  0.00    -0.263 NA
ATOM     19  C   UNL     1      -4.188 -10.205  10.624  0.00  0.00    -0.031 A 
ATOM     20  C   UNL     1      -5.053  -9.726  11.602  0.00  0.00    +0.024 A 
ATOM     21  C   UNL     1      -4.389  -9.854   9.294  0.00  0.00    +0.024 A 
ATOM     22  C   UNL     1      -6.096  -8.907  11.201  0.00  0.00    +0.111 A 
ATOM     23  C   UNL     1      -5.461  -9.027   8.996  0.00  0.00    +0.111 A 
ENDBRANCH  18  19
ENDBRANCH   5  18
ENDBRANCH  10   5
BRANCH   7  16
ATOM     16  C   UNL     1      -2.609 -10.934  16.447  0.00  0.00    +0.138 C 
BRANCH  16   4
ATOM      3  O   UNL     1      -4.972 -10.660  18.111  0.00  0.00    -0.276 OA
ATOM      4  N   UNL     1      -3.850 -10.303  16.101  0.00  0.00    -0.313 N 
ATOM     17  C   UNL     1      -4.935 -10.218  16.966  0.00  0.00    +0.216 C 
ATOM     24  H   UNL     1      -3.926  -9.899  15.172  0.00  0.00    +0.149 HD
BRANCH  17   9
ATOM      9  C   UNL     1      -6.095  -9.488  16.363  0.00  0.00    +0.075 C 
ATOM     11  C   UNL     1      -7.325  -9.600  17.271  0.00  0.00    +0.013 C 
ATOM     12  C   UNL     1      -6.494 -10.116  15.027  0.00  0.00    +0.013 C 
ATOM     13  C   UNL     1      -8.429 -10.198  16.407  0.00  0.00    +0.001 C 
ATOM     14  C   UNL     1      -7.684 -11.003  15.358  0.00  0.00    +0.001 C 
ENDBRANCH  17   9
ENDBRANCH  16   4
ENDBRANCH   7  16
TORSDOF 7
ENDMDL
MODEL 10
REMARK VINA RESULT:      -5.7     25.768     28.617
REMARK  Name = 75536814
REMARK  7 active torsions:
REMARK  status: ('A' for Active; 'I' for Inactive)
REMARK    1  A    between atoms: O_2  and  C_8
REMARK    2  A    between atoms: N_4  and  C_16
REMARK    3  A    between atoms: N_5  and  C_10
REMARK    4  A    between atoms: N_5  and  C_18
REMARK    5  A    between atoms: C_7  and  C_16
REMARK    6  A    between atoms: C_9  and  C_17
REMARK    7  A    between atoms: C_18  and  C_19
REMARK                            x       y       z     vdW  Elec       q    Type
REMARK                         _______ _______ _______ _____ _____    ______ ____
ROOT
ATOM      1  O   UNL     1     -16.354   5.014  22.149  0.00  0.00    -0.371 OA
ATOM      7  C   UNL     1     -15.730   4.526  23.347  0.00  0.00    +0.165 C 
ATOM      8  C   UNL     1     -14.331   5.128  23.370  0.00  0.00    +0.164 C 
ATOM     10  C   UNL     1     -13.997   5.143  21.889  0.00  0.00    +0.111 C 
ATOM     15  C   UNL     1     -15.332   5.540  21.283  0.00  0.00    +0.181 C 
ENDROOT
BRANCH   8   2
ATOM      2  O   UNL     1     -13.430   4.342  24.124  0.00  0.00    -0.388 OA
ATOM     26  H   UNL     1     -12.525   4.571  23.857  0.00  0.00    +0.210 HD
ENDBRANCH   8   2
BRANCH  10   5
ATOM      5  N   UNL     1     -12.923   6.062  21.544  0.00  0.00    -0.305 NA
ATOM     25  H   UNL     1     -12.316   5.620  20.854  0.00  0.00    +0.123 HD
BRANCH   5  18
ATOM     18  C   UNL     1     -13.452   7.299  20.982  0.00  0.00    +0.116 C 
BRANCH  18  19
ATOM      6  N   UNL     1     -10.542   9.324  18.547  0.00  0.00    -0.263 NA
ATOM     19  C   UNL     1     -12.434   8.008  20.129  0.00  0.00    -0.031 A 
ATOM     20  C   UNL     1     -11.960   7.411  18.966  0.00  0.00    +0.024 A 
ATOM     21  C   UNL     1     -11.963   9.261  20.502  0.00  0.00    +0.024 A 
ATOM     22  C   UNL     1     -11.023   8.104  18.216  0.00  0.00    +0.111 A 
ATOM     23  C   UNL     1     -11.027   9.873  19.683  0.00  0.00    +0.111 A 
ENDBRANCH  18  19
ENDBRANCH   5  18
ENDBRANCH  10   5
BRANCH   7  16
ATOM     16  C   UNL     1     -16.567   4.907  24.554  0.00  0.00    +0.138 C 
BRANCH  16   4
ATOM      3  O   UNL     1     -17.613   2.812  26.272  0.00  0.00    -0.276 OA
ATOM      4  N   UNL     1     -15.990   4.407  25.769  0.00  0.00    -0.313 N 
ATOM     17  C   UNL     1     -16.564   3.395  26.532  0.00  0.00    +0.216 C 
ATOM     24  H   UNL     1     -15.114   4.820  26.075  0.00  0.00    +0.149 HD
BRANCH  17   9
ATOM      9  C   UNL     1     -15.744   3.048  27.736  0.00  0.00    +0.075 C 
ATOM     11  C   UNL     1     -16.122   1.656  28.254  0.00  0.00    +0.013 C 
ATOM     12  C   UNL     1     -16.028   4.021  28.882  0.00  0.00    +0.013 C 
ATOM     13  C   UNL     1     -16.518   1.847  29.714  0.00  0.00    +0.001 C 
ATOM     14  C   UNL     1     -17.008   3.282  29.780  0.00  0.00    +0.001 C 
ENDBRANCH  17   9
ENDBRANCH  16   4
ENDBRANCH   7  16
TORSDOF 7
ENDMDL
