MODEL 1
REMARK VINA RESULT:      -6.7      0.000      0.000
REMARK  Name = 11912302
REMARK  6 active torsions:
REMARK  status: ('A' for Active; 'I' for Inactive)
REMARK    1  A    between atoms: N_6  and  C_21
REMARK    2  A    between atoms: C_7  and  C_12
REMARK    3  A    between atoms: C_8  and  C_13
REMARK    4  A    between atoms: C_12  and  C_15
REMARK    5  A    between atoms: C_13  and  C_16
REMARK    6  A    between atoms: C_21  and  C_22
REMARK                            x       y       z     vdW  Elec       q    Type
REMARK                         _______ _______ _______ _____ _____    ______ ____
ROOT
ATOM      1  O   UNL     1      -7.723 -12.103  17.844  0.00  0.00    -0.252 OA
ATOM      2  O   UNL     1     -11.330  -9.224  17.529  0.00  0.00    -0.377 OA
ATOM      4  N   UNL     1      -6.459 -10.274  17.242  0.00  0.00    -0.285 N 
ATOM      5  N   UNL     1      -8.821 -10.325  16.877  0.00  0.00    -0.281 N 
ATOM      7  C   UNL     1      -4.859 -10.276  15.337  0.00  0.00    +0.010 C 
ATOM      8  C   UNL     1      -3.715 -10.549  16.347  0.00  0.00    +0.004 C 
ATOM      9  C   UNL     1      -4.233 -11.269  17.603  0.00  0.00    +0.023 C 
ATOM     10  C   UNL     1      -6.027  -9.550  16.036  0.00  0.00    +0.113 C 
ATOM     11  C   UNL     1      -5.401 -10.508  18.222  0.00  0.00    +0.109 C 
ATOM     14  C   UNL     1      -7.672 -10.969  17.350  0.00  0.00    +0.305 C 
ATOM     17  C   UNL     1     -10.052 -11.083  16.660  0.00  0.00    +0.137 C 
ATOM     18  C   UNL     1      -9.014  -8.868  16.869  0.00  0.00    +0.137 C 
ATOM     19  C   UNL     1     -11.120 -10.635  17.647  0.00  0.00    +0.179 C 
ATOM     20  C   UNL     1     -10.136  -8.497  17.836  0.00  0.00    +0.179 C 
ENDROOT
BRANCH   7  12
ATOM     12  C   UNL     1      -5.365 -11.535  14.620  0.00  0.00    +0.002 C 
ATOM     15  C   UNL     1      -5.955 -11.193  13.269  0.00  0.00    +0.004 C 
ENDBRANCH   7  12
BRANCH   8  13
ATOM     13  C   UNL     1      -2.540 -11.309  15.735  0.00  0.00    +0.099 C 
BRANCH  13  16
ATOM      3  O   UNL     1      -1.081  -9.570  14.897  0.00  0.00    -0.276 OA
ATOM      6  N   UNL     1      -2.165 -10.974  13.395  0.00  0.00    -0.311 N 
ATOM     16  C   UNL     1      -1.837 -10.509  14.660  0.00  0.00    +0.214 C 
ATOM     28  H   UNL     1      -2.800 -11.760  13.294  0.00  0.00    +0.149 HD
BRANCH   6  21
ATOM     21  C   UNL     1      -1.640 -10.395  12.180  0.00  0.00    +0.139 C 
BRANCH  21  22
ATOM     22  C   UNL     1      -2.665 -10.367  11.083  0.00  0.00    -0.030 A 
ATOM     23  C   UNL     1      -3.332 -11.538  10.723  0.00  0.00    +0.005 A 
ATOM     24  C   UNL     1      -2.951  -9.171  10.423  0.00  0.00    +0.005 A 
ATOM     25  C   UNL     1      -4.285 -11.514   9.704  0.00  0.00    +0.000 A 
ATOM     26  C   UNL     1      -3.902  -9.147   9.405  0.00  0.00    +0.000 A 
ATOM     27  C   UNL     1      -4.570 -10.318   9.045  0.00  0.00    +0.000 A 
ENDBRANCH  21  22
ENDBRANCH   6  21
ENDBRANCH  13  16
ENDBRANCH   8  13
TORSDOF 5
ENDMDL
MODEL 2
REMARK VINA RESULT:      -6.4     26.831     29.171
REMARK  Name = 11912302
REMARK  6 active torsions:
REMARK  status: ('A' for Active; 'I' for Inactive)
REMARK    1  A    between atoms: N_6  and  C_21
REMARK    2  A    between atoms: C_7  and  C_12
REMARK    3  A    between atoms: C_8  and  C_13
REMARK    4  A    between atoms: C_12  and  C_15
REMARK    5  A    between atoms: C_13  and  C_16
REMARK    6  A    between atoms: C_21  and  C_22
REMARK                            x       y       z     vdW  Elec       q    Type
REMARK                         _______ _______ _______ _____ _____    ______ ____
ROOT
ATOM      1  O   UNL     1      10.737  12.140  23.741  0.00  0.00    -0.252 OA
ATOM      2  O   UNL     1      13.982  13.719  26.635  0.00  0.00    -0.377 OA
ATOM      4  N   UNL     1      12.345  10.633  23.070  0.00  0.00    -0.285 N 
ATOM      5  N   UNL     1      12.927  12.619  24.266  0.00  0.00    -0.281 N 
ATOM      7  C   UNL     1      13.022  10.310  20.698  0.00  0.00    +0.010 C 
ATOM      8  C   UNL     1      12.064   9.093  20.630  0.00  0.00    +0.004 C 
ATOM      9  C   UNL     1      10.913   9.225  21.641  0.00  0.00    +0.023 C 
ATOM     10  C   UNL     1      13.489  10.541  22.151  0.00  0.00    +0.113 C 
ATOM     11  C   UNL     1      11.451   9.478  23.046  0.00  0.00    +0.109 C 
ATOM     14  C   UNL     1      11.932  11.818  23.696  0.00  0.00    +0.305 C 
ATOM     17  C   UNL     1      12.631  13.998  24.650  0.00  0.00    +0.137 C 
ATOM     18  C   UNL     1      14.188  12.109  24.821  0.00  0.00    +0.137 C 
ATOM     19  C   UNL     1      12.700  14.144  26.163  0.00  0.00    +0.179 C 
ATOM     20  C   UNL     1      14.213  12.340  26.331  0.00  0.00    +0.179 C 
ENDROOT
BRANCH   7  12
ATOM     12  C   UNL     1      12.427  11.599  20.118  0.00  0.00    +0.002 C 
ATOM     15  C   UNL     1      13.445  12.339  19.276  0.00  0.00    +0.004 C 
ENDBRANCH   7  12
BRANCH   8  13
ATOM     13  C   UNL     1      11.522   8.832  19.226  0.00  0.00    +0.099 C 
BRANCH  13  16
ATOM      3  O   UNL     1      12.009   7.259  17.454  0.00  0.00    -0.276 OA
ATOM      6  N   UNL     1      13.666   7.794  18.993  0.00  0.00    -0.311 N 
ATOM     16  C   UNL     1      12.395   7.876  18.443  0.00  0.00    +0.214 C 
ATOM     28  H   UNL     1      13.899   8.344  19.814  0.00  0.00    +0.149 HD
BRANCH   6  21
ATOM     21  C   UNL     1      14.709   6.954  18.451  0.00  0.00    +0.139 C 
BRANCH  21  22
ATOM     22  C   UNL     1      15.921   6.919  19.337  0.00  0.00    -0.030 A 
ATOM     23  C   UNL     1      16.033   7.816  20.400  0.00  0.00    +0.005 A 
ATOM     24  C   UNL     1      16.934   5.990  19.099  0.00  0.00    +0.005 A 
ATOM     25  C   UNL     1      17.158   7.784  21.225  0.00  0.00    +0.000 A 
ATOM     26  C   UNL     1      18.059   5.959  19.922  0.00  0.00    +0.000 A 
ATOM     27  C   UNL     1      18.171   6.856  20.985  0.00  0.00    +0.000 A 
ENDBRANCH  21  22
ENDBRANCH   6  21
ENDBRANCH  13  16
ENDBRANCH   8  13
TORSDOF 5
ENDMDL
MODEL 3
REMARK VINA RESULT:      -6.4      1.779      2.764
REMARK  Name = 11912302
REMARK  6 active torsions:
REMARK  status: ('A' for Active; 'I' for Inactive)
REMARK    1  A    between atoms: N_6  and  C_21
REMARK    2  A    between atoms: C_7  and  C_12
REMARK    3  A    between atoms: C_8  and  C_13
REMARK    4  A    between atoms: C_12  and  C_15
REMARK    5  A    between atoms: C_13  and  C_16
REMARK    6  A    between atoms: C_21  and  C_22
REMARK                            x       y       z     vdW  Elec       q    Type
REMARK                         _______ _______ _______ _____ _____    ______ ____
ROOT
ATOM      1  O   UNL     1      -8.334  -9.699  18.205  0.00  0.00    -0.252 OA
ATOM      2  O   UNL     1     -11.584 -12.924  18.867  0.00  0.00    -0.377 OA
ATOM      4  N   UNL     1      -7.278 -11.302  16.932  0.00  0.00    -0.285 N 
ATOM      5  N   UNL     1      -8.992 -11.887  18.492  0.00  0.00    -0.281 N 
ATOM      7  C   UNL     1      -4.918 -12.004  17.285  0.00  0.00    +0.010 C 
ATOM      8  C   UNL     1      -4.500 -11.036  16.147  0.00  0.00    +0.004 C 
ATOM      9  C   UNL     1      -5.497  -9.874  16.001  0.00  0.00    +0.023 C 
ATOM     10  C   UNL     1      -6.380 -12.456  17.090  0.00  0.00    +0.113 C 
ATOM     11  C   UNL     1      -6.921 -10.398  15.840  0.00  0.00    +0.109 C 
ATOM     14  C   UNL     1      -8.210 -10.891  17.896  0.00  0.00    +0.305 C 
ATOM     17  C   UNL     1      -9.748 -11.598  19.710  0.00  0.00    +0.137 C 
ATOM     18  C   UNL     1      -9.391 -13.138  17.832  0.00  0.00    +0.137 C 
ATOM     19  C   UNL     1     -11.241 -11.650  19.422  0.00  0.00    +0.179 C 
ATOM     20  C   UNL     1     -10.904 -13.147  17.628  0.00  0.00    +0.179 C 
ENDROOT
BRANCH   7  12
ATOM     12  C   UNL     1      -4.720 -11.425  18.692  0.00  0.00    +0.002 C 
ATOM     15  C   UNL     1      -3.692 -12.220  19.468  0.00  0.00    +0.004 C 
ENDBRANCH   7  12
BRANCH   8  13
ATOM     13  C   UNL     1      -3.075 -10.507  16.300  0.00  0.00    +0.099 C 
BRANCH  13  16
ATOM      3  O   UNL     1      -1.187 -10.048  14.859  0.00  0.00    -0.276 OA
ATOM      6  N   UNL     1      -3.141 -10.910  13.940  0.00  0.00    -0.311 N 
ATOM     16  C   UNL     1      -2.340 -10.452  14.978  0.00  0.00    +0.214 C 
ATOM     28  H   UNL     1      -4.085 -11.228  14.133  0.00  0.00    +0.149 HD
BRANCH   6  21
ATOM     21  C   UNL     1      -2.697 -10.966  12.567  0.00  0.00    +0.139 C 
BRANCH  21  22
ATOM     22  C   UNL     1      -3.559 -10.133  11.663  0.00  0.00    -0.030 A 
ATOM     23  C   UNL     1      -4.835  -9.750  12.075  0.00  0.00    +0.005 A 
ATOM     24  C   UNL     1      -3.083  -9.740  10.412  0.00  0.00    +0.005 A 
ATOM     25  C   UNL     1      -5.637  -8.975  11.237  0.00  0.00    +0.000 A 
ATOM     26  C   UNL     1      -3.885  -8.966   9.573  0.00  0.00    +0.000 A 
ATOM     27  C   UNL     1      -5.161  -8.583   9.986  0.00  0.00    +0.000 A 
ENDBRANCH  21  22
ENDBRANCH   6  21
ENDBRANCH  13  16
ENDBRANCH   8  13
TORSDOF 5
ENDMDL
MODEL 4
REMARK VINA RESULT:      -6.4      2.345      8.048
REMARK  Name = 11912302
REMARK  6 active torsions:
REMARK  status: ('A' for Active; 'I' for Inactive)
REMARK    1  A    between atoms: N_6  and  C_21
REMARK    2  A    between atoms: C_7  and  C_12
REMARK    3  A    between atoms: C_8  and  C_13
REMARK    4  A    between atoms: C_12  and  C_15
REMARK    5  A    between atoms: C_13  and  C_16
REMARK    6  A    between atoms: C_21  and  C_22
REMARK                            x       y       z     vdW  Elec       q    Type
REMARK                         _______ _______ _______ _____ _____    ______ ____
ROOT
ATOM      1  O   UNL     1      -5.252 -13.257  14.868  0.00  0.00    -0.252 OA
ATOM      2  O   UNL     1      -1.653 -11.587  12.490  0.00  0.00    -0.377 OA
ATOM      4  N   UNL     1      -5.296 -11.187  15.878  0.00  0.00    -0.285 N 
ATOM      5  N   UNL     1      -3.363 -11.952  14.699  0.00  0.00    -0.281 N 
ATOM      7  C   UNL     1      -5.257 -10.860  18.344  0.00  0.00    +0.010 C 
ATOM      8  C   UNL     1      -6.800 -10.713  18.310  0.00  0.00    +0.004 C 
ATOM      9  C   UNL     1      -7.412 -11.460  17.114  0.00  0.00    +0.023 C 
ATOM     10  C   UNL     1      -4.653 -10.458  16.982  0.00  0.00    +0.113 C 
ATOM     11  C   UNL     1      -6.747 -11.031  15.809  0.00  0.00    +0.109 C 
ATOM     14  C   UNL     1      -4.671 -12.197  15.132  0.00  0.00    +0.305 C 
ATOM     17  C   UNL     1      -2.536 -13.050  14.200  0.00  0.00    +0.137 C 
ATOM     18  C   UNL     1      -2.824 -10.620  14.392  0.00  0.00    +0.137 C 
ATOM     19  C   UNL     1      -2.261 -12.863  12.715  0.00  0.00    +0.179 C 
ATOM     20  C   UNL     1      -2.518 -10.523  12.899  0.00  0.00    +0.179 C 
ENDROOT
BRANCH   7  12
ATOM     12  C   UNL     1      -4.778 -12.260  18.749  0.00  0.00    +0.002 C 
ATOM     15  C   UNL     1      -3.405 -12.204  19.383  0.00  0.00    +0.004 C 
ENDBRANCH   7  12
BRANCH   8  13
ATOM     13  C   UNL     1      -7.474 -11.139  19.614  0.00  0.00    +0.099 C 
BRANCH  13  16
ATOM      3  O   UNL     1      -9.607 -12.281  19.603  0.00  0.00    -0.276 OA
ATOM      6  N   UNL     1      -9.533  -9.994  19.192  0.00  0.00    -0.311 N 
ATOM     16  C   UNL     1      -8.978 -11.234  19.477  0.00  0.00    +0.214 C 
ATOM     28  H   UNL     1      -8.934  -9.179  19.108  0.00  0.00    +0.149 HD
BRANCH   6  21
ATOM     21  C   UNL     1     -10.951  -9.788  19.007  0.00  0.00    +0.139 C 
BRANCH  21  22
ATOM     22  C   UNL     1     -11.240  -8.877  17.849  0.00  0.00    -0.030 A 
ATOM     23  C   UNL     1     -10.249  -8.018  17.374  0.00  0.00    +0.005 A 
ATOM     24  C   UNL     1     -12.498  -8.889  17.247  0.00  0.00    +0.005 A 
ATOM     25  C   UNL     1     -10.516  -7.171  16.297  0.00  0.00    +0.000 A 
ATOM     26  C   UNL     1     -12.765  -8.043  16.172  0.00  0.00    +0.000 A 
ATOM     27  C   UNL     1     -11.774  -7.184  15.697  0.00  0.00    +0.000 A 
ENDBRANCH  21  22
ENDBRANCH   6  21
ENDBRANCH  13  16
ENDBRANCH   8  13
TORSDOF 5
ENDMDL
MODEL 5
REMARK VINA RESULT:      -6.3      4.030      7.089
REMARK  Name = 11912302
REMARK  6 active torsions:
REMARK  status: ('A' for Active; 'I' for Inactive)
REMARK    1  A    between atoms: N_6  and  C_21
REMARK    2  A    between atoms: C_7  and  C_12
REMARK    3  A    between atoms: C_8  and  C_13
REMARK    4  A    between atoms: C_12  and  C_15
REMARK    5  A    between atoms: C_13  and  C_16
REMARK    6  A    between atoms: C_21  and  C_22
REMARK                            x       y       z     vdW  Elec       q    Type
REMARK                         _______ _______ _______ _____ _____    ______ ____
ROOT
ATOM      1  O   UNL     1      -8.370  -9.969  10.070  0.00  0.00    -0.252 OA
ATOM      2  O   UNL     1      -9.887  -6.603   7.284  0.00  0.00    -0.377 OA
ATOM      4  N   UNL     1      -6.500  -8.648  10.325  0.00  0.00    -0.285 N 
ATOM      5  N   UNL     1      -8.016  -8.315   8.507  0.00  0.00    -0.281 N 
ATOM      7  C   UNL     1      -4.181  -9.461   9.939  0.00  0.00    +0.010 C 
ATOM      8  C   UNL     1      -4.047  -9.690  11.467  0.00  0.00    +0.004 C 
ATOM      9  C   UNL     1      -5.416  -9.944  12.121  0.00  0.00    +0.023 C 
ATOM     10  C   UNL     1      -5.224  -8.361   9.653  0.00  0.00    +0.113 C 
ATOM     11  C   UNL     1      -6.399  -8.831  11.772  0.00  0.00    +0.109 C 
ATOM     14  C   UNL     1      -7.672  -9.034   9.658  0.00  0.00    +0.305 C 
ATOM     17  C   UNL     1      -9.024  -8.839   7.588  0.00  0.00    +0.137 C 
ATOM     18  C   UNL     1      -7.687  -6.901   8.280  0.00  0.00    +0.137 C 
ATOM     19  C   UNL     1     -10.257  -7.948   7.602  0.00  0.00    +0.179 C 
ATOM     20  C   UNL     1      -8.972  -6.076   8.249  0.00  0.00    +0.179 C 
ENDROOT
BRANCH   7  12
ATOM     12  C   UNL     1      -4.517 -10.733   9.151  0.00  0.00    +0.002 C 
ATOM     15  C   UNL     1      -4.882 -10.407   7.718  0.00  0.00    +0.004 C 
ENDBRANCH   7  12
BRANCH   8  13
ATOM     13  C   UNL     1      -3.064 -10.802  11.825  0.00  0.00    +0.099 C 
BRANCH  13  16
ATOM      3  O   UNL     1      -1.518  -9.890  13.448  0.00  0.00    -0.276 OA
ATOM      6  N   UNL     1      -3.152 -11.390  14.144  0.00  0.00    -0.311 N 
ATOM     16  C   UNL     1      -2.474 -10.622  13.208  0.00  0.00    +0.214 C 
ATOM     28  H   UNL     1      -3.936 -11.966  13.854  0.00  0.00    +0.149 HD
BRANCH   6  21
ATOM     21  C   UNL     1      -2.803 -11.416  15.546  0.00  0.00    +0.139 C 
BRANCH  21  22
ATOM     22  C   UNL     1      -3.960 -11.026  16.420  0.00  0.00    -0.030 A 
ATOM     23  C   UNL     1      -3.994 -11.433  17.754  0.00  0.00    +0.005 A 
ATOM     24  C   UNL     1      -5.000 -10.256  15.900  0.00  0.00    +0.005 A 
ATOM     25  C   UNL     1      -5.068 -11.071  18.567  0.00  0.00    +0.000 A 
ATOM     26  C   UNL     1      -6.074  -9.895  16.712  0.00  0.00    +0.000 A 
ATOM     27  C   UNL     1      -6.108 -10.302  18.046  0.00  0.00    +0.000 A 
ENDBRANCH  21  22
ENDBRANCH   6  21
ENDBRANCH  13  16
ENDBRANCH   8  13
TORSDOF 5
ENDMDL
MODEL 6
REMARK VINA RESULT:      -6.2      3.515      7.647
REMARK  Name = 11912302
REMARK  6 active torsions:
REMARK  status: ('A' for Active; 'I' for Inactive)
REMARK    1  A    between atoms: N_6  and  C_21
REMARK    2  A    between atoms: C_7  and  C_12
REMARK    3  A    between atoms: C_8  and  C_13
REMARK    4  A    between atoms: C_12  and  C_15
REMARK    5  A    between atoms: C_13  and  C_16
REMARK    6  A    between atoms: C_21  and  C_22
REMARK                            x       y       z     vdW  Elec       q    Type
REMARK                         _______ _______ _______ _____ _____    ______ ____
ROOT
ATOM      1  O   UNL     1      -3.793 -12.972   8.492  0.00  0.00    -0.252 OA
ATOM      2  O   UNL     1      -7.972 -12.646   6.536  0.00  0.00    -0.377 OA
ATOM      4  N   UNL     1      -4.819 -12.117  10.369  0.00  0.00    -0.285 N 
ATOM      5  N   UNL     1      -5.823 -11.924   8.208  0.00  0.00    -0.281 N 
ATOM      7  C   UNL     1      -3.996 -10.113  11.592  0.00  0.00    +0.010 C 
ATOM      8  C   UNL     1      -3.287 -11.062  12.593  0.00  0.00    +0.004 C 
ATOM      9  C   UNL     1      -2.944 -12.412  11.942  0.00  0.00    +0.023 C 
ATOM     10  C   UNL     1      -5.206 -10.822  10.950  0.00  0.00    +0.113 C 
ATOM     11  C   UNL     1      -4.182 -13.039  11.307  0.00  0.00    +0.109 C 
ATOM     14  C   UNL     1      -4.754 -12.374   8.992  0.00  0.00    +0.305 C 
ATOM     17  C   UNL     1      -5.694 -11.866   6.753  0.00  0.00    +0.137 C 
ATOM     18  C   UNL     1      -7.207 -11.796   8.685  0.00  0.00    +0.137 C 
ATOM     19  C   UNL     1      -6.627 -12.879   6.106  0.00  0.00    +0.179 C 
ATOM     20  C   UNL     1      -8.095 -12.800   7.953  0.00  0.00    +0.179 C 
ENDROOT
BRANCH   7  12
ATOM     12  C   UNL     1      -3.067  -9.553  10.507  0.00  0.00    +0.002 C 
ATOM     15  C   UNL     1      -3.855  -8.835   9.432  0.00  0.00    +0.004 C 
ENDBRANCH   7  12
BRANCH   8  13
ATOM     13  C   UNL     1      -2.047 -10.442  13.235  0.00  0.00    +0.099 C 
BRANCH  13  16
ATOM      3  O   UNL     1      -0.942 -11.143  15.269  0.00  0.00    -0.276 OA
ATOM      6  N   UNL     1      -3.173 -10.494  15.347  0.00  0.00    -0.311 N 
ATOM     16  C   UNL     1      -1.961 -10.738  14.716  0.00  0.00    +0.214 C 
ATOM     28  H   UNL     1      -3.964 -10.156  14.809  0.00  0.00    +0.149 HD
BRANCH   6  21
ATOM     21  C   UNL     1      -3.380 -10.693  16.763  0.00  0.00    +0.139 C 
BRANCH  21  22
ATOM     22  C   UNL     1      -4.793 -10.388  17.172  0.00  0.00    -0.030 A 
ATOM     23  C   UNL     1      -5.659  -9.763  16.275  0.00  0.00    +0.005 A 
ATOM     24  C   UNL     1      -5.240 -10.732  18.448  0.00  0.00    +0.005 A 
ATOM     25  C   UNL     1      -6.972  -9.480  16.654  0.00  0.00    +0.000 A 
ATOM     26  C   UNL     1      -6.551 -10.448  18.827  0.00  0.00    +0.000 A 
ATOM     27  C   UNL     1      -7.417  -9.823  17.930  0.00  0.00    +0.000 A 
ENDBRANCH  21  22
ENDBRANCH   6  21
ENDBRANCH  13  16
ENDBRANCH   8  13
TORSDOF 5
ENDMDL
MODEL 7
REMARK VINA RESULT:      -6.0     27.247     29.663
REMARK  Name = 11912302
REMARK  6 active torsions:
REMARK  status: ('A' for Active; 'I' for Inactive)
REMARK    1  A    between atoms: N_6  and  C_21
REMARK    2  A    between atoms: C_7  and  C_12
REMARK    3  A    between atoms: C_8  and  C_13
REMARK    4  A    between atoms: C_12  and  C_15
REMARK    5  A    between atoms: C_13  and  C_16
REMARK    6  A    between atoms: C_21  and  C_22
REMARK                            x       y       z     vdW  Elec       q    Type
REMARK                         _______ _______ _______ _____ _____    ______ ____
ROOT
ATOM      1  O   UNL     1      11.115   9.912  21.299  0.00  0.00    -0.252 OA
ATOM      2  O   UNL     1      11.571  13.638  24.002  0.00  0.00    -0.377 OA
ATOM      4  N   UNL     1      13.342   9.545  21.761  0.00  0.00    -0.285 N 
ATOM      5  N   UNL     1      12.335  11.682  22.125  0.00  0.00    -0.281 N 
ATOM      7  C   UNL     1      15.074   9.217  20.005  0.00  0.00    +0.010 C 
ATOM      8  C   UNL     1      14.932   7.686  20.205  0.00  0.00    +0.004 C 
ATOM      9  C   UNL     1      13.536   7.313  20.732  0.00  0.00    +0.023 C 
ATOM     10  C   UNL     1      14.673   9.963  21.295  0.00  0.00    +0.113 C 
ATOM     11  C   UNL     1      13.201   8.109  21.990  0.00  0.00    +0.109 C 
ATOM     14  C   UNL     1      12.198  10.354  21.704  0.00  0.00    +0.305 C 
ATOM     17  C   UNL     1      11.299  12.664  21.807  0.00  0.00    +0.137 C 
ATOM     18  C   UNL     1      13.286  12.136  23.148  0.00  0.00    +0.137 C 
ATOM     19  C   UNL     1      10.605  13.121  23.081  0.00  0.00    +0.179 C 
ATOM     20  C   UNL     1      12.521  12.634  24.372  0.00  0.00    +0.179 C 
ENDROOT
BRANCH   7  12
ATOM     12  C   UNL     1      14.284   9.760  18.807  0.00  0.00    +0.002 C 
ATOM     15  C   UNL     1      14.374  11.269  18.733  0.00  0.00    +0.004 C 
ENDBRANCH   7  12
BRANCH   8  13
ATOM     13  C   UNL     1      15.267   6.882  18.951  0.00  0.00    +0.099 C 
BRANCH  13  16
ATOM      3  O   UNL     1      16.994   5.335  18.258  0.00  0.00    -0.276 OA
ATOM      6  N   UNL     1      17.305   6.610  20.177  0.00  0.00    -0.311 N 
ATOM     16  C   UNL     1      16.603   6.178  19.061  0.00  0.00    +0.214 C 
ATOM     28  H   UNL     1      16.903   7.315  20.787  0.00  0.00    +0.149 HD
BRANCH   6  21
ATOM     21  C   UNL     1      18.612   6.105  20.532  0.00  0.00    +0.139 C 
BRANCH  21  22
ATOM     22  C   UNL     1      19.271   6.946  21.587  0.00  0.00    -0.030 A 
ATOM     23  C   UNL     1      20.203   6.373  22.453  0.00  0.00    +0.005 A 
ATOM     24  C   UNL     1      18.953   8.300  21.701  0.00  0.00    +0.005 A 
ATOM     25  C   UNL     1      20.817   7.154  23.433  0.00  0.00    +0.000 A 
ATOM     26  C   UNL     1      19.566   9.079  22.682  0.00  0.00    +0.000 A 
ATOM     27  C   UNL     1      20.498   8.507  23.547  0.00  0.00    +0.000 A 
ENDBRANCH  21  22
ENDBRANCH   6  21
ENDBRANCH  13  16
ENDBRANCH   8  13
TORSDOF 5
ENDMDL
MODEL 8
REMARK VINA RESULT:      -6.0      3.443      7.239
REMARK  Name = 11912302
REMARK  6 active torsions:
REMARK  status: ('A' for Active; 'I' for Inactive)
REMARK    1  A    between atoms: N_6  and  C_21
REMARK    2  A    between atoms: C_7  and  C_12
REMARK    3  A    between atoms: C_8  and  C_13
REMARK    4  A    between atoms: C_12  and  C_15
REMARK    5  A    between atoms: C_13  and  C_16
REMARK    6  A    between atoms: C_21  and  C_22
REMARK                            x       y       z     vdW  Elec       q    Type
REMARK                         _______ _______ _______ _____ _____    ______ ____
ROOT
ATOM      1  O   UNL     1      -5.498 -12.014   8.898  0.00  0.00    -0.252 OA
ATOM      2  O   UNL     1      -8.230  -8.574   7.450  0.00  0.00    -0.377 OA
ATOM      4  N   UNL     1      -5.682 -11.027  10.971  0.00  0.00    -0.285 N 
ATOM      5  N   UNL     1      -6.222  -9.829   8.974  0.00  0.00    -0.281 N 
ATOM      7  C   UNL     1      -3.725 -10.389  12.368  0.00  0.00    +0.010 C 
ATOM      8  C   UNL     1      -3.898 -11.718  13.148  0.00  0.00    +0.004 C 
ATOM      9  C   UNL     1      -4.575 -12.795  12.285  0.00  0.00    +0.023 C 
ATOM     10  C   UNL     1      -5.073  -9.947  11.763  0.00  0.00    +0.113 C 
ATOM     11  C   UNL     1      -5.886 -12.276  11.701  0.00  0.00    +0.109 C 
ATOM     14  C   UNL     1      -5.783 -11.016   9.572  0.00  0.00    +0.305 C 
ATOM     17  C   UNL     1      -6.057  -9.627   7.536  0.00  0.00    +0.137 C 
ATOM     18  C   UNL     1      -7.138  -8.869   9.604  0.00  0.00    +0.137 C 
ATOM     19  C   UNL     1      -7.417  -9.589   6.854  0.00  0.00    +0.179 C 
ATOM     20  C   UNL     1      -8.458  -8.842   8.837  0.00  0.00    +0.179 C 
ENDROOT
BRANCH   7  12
ATOM     12  C   UNL     1      -2.644 -10.447  11.280  0.00  0.00    +0.002 C 
ATOM     15  C   UNL     1      -2.688  -9.214  10.403  0.00  0.00    +0.004 C 
ENDBRANCH   7  12
BRANCH   8  13
ATOM     13  C   UNL     1      -2.590 -12.244  13.738  0.00  0.00    +0.099 C 
BRANCH  13  16
ATOM      3  O   UNL     1      -1.234 -11.055  15.351  0.00  0.00    -0.276 OA
ATOM      6  N   UNL     1      -3.338 -11.823  15.973  0.00  0.00    -0.311 N 
ATOM     16  C   UNL     1      -2.285 -11.634  15.089  0.00  0.00    +0.214 C 
ATOM     28  H   UNL     1      -4.172 -12.314  15.668  0.00  0.00    +0.149 HD
BRANCH   6  21
ATOM     21  C   UNL     1      -3.319 -11.346  17.337  0.00  0.00    +0.139 C 
BRANCH  21  22
ATOM     22  C   UNL     1      -4.693 -10.990  17.826  0.00  0.00    -0.030 A 
ATOM     23  C   UNL     1      -5.594 -10.352  16.973  0.00  0.00    +0.005 A 
ATOM     24  C   UNL     1      -5.071 -11.298  19.133  0.00  0.00    +0.005 A 
ATOM     25  C   UNL     1      -6.871 -10.022  17.426  0.00  0.00    +0.000 A 
ATOM     26  C   UNL     1      -6.347 -10.967  19.587  0.00  0.00    +0.000 A 
ATOM     27  C   UNL     1      -7.248 -10.330  18.733  0.00  0.00    +0.000 A 
ENDBRANCH  21  22
ENDBRANCH   6  21
ENDBRANCH  13  16
ENDBRANCH   8  13
TORSDOF 5
ENDMDL
MODEL 9
REMARK VINA RESULT:      -5.7      2.194      7.162
REMARK  Name = 11912302
REMARK  6 active torsions:
REMARK  status: ('A' for Active; 'I' for Inactive)
REMARK    1  A    between atoms: N_6  and  C_21
REMARK    2  A    between atoms: C_7  and  C_12
REMARK    3  A    between atoms: C_8  and  C_13
REMARK    4  A    between atoms: C_12  and  C_15
REMARK    5  A    between atoms: C_13  and  C_16
REMARK    6  A    between atoms: C_21  and  C_22
REMARK                            x       y       z     vdW  Elec       q    Type
REMARK                         _______ _______ _______ _____ _____    ______ ____
ROOT
ATOM      1  O   UNL     1      -5.843  -9.665  14.047  0.00  0.00    -0.252 OA
ATOM      2  O   UNL     1      -2.853 -10.311  10.577  0.00  0.00    -0.377 OA
ATOM      4  N   UNL     1      -4.339 -10.870  15.309  0.00  0.00    -0.285 N 
ATOM      5  N   UNL     1      -4.287 -10.934  12.920  0.00  0.00    -0.281 N 
ATOM      7  C   UNL     1      -4.960 -12.878  16.640  0.00  0.00    +0.010 C 
ATOM      8  C   UNL     1      -5.059 -11.970  17.892  0.00  0.00    +0.004 C 
ATOM      9  C   UNL     1      -5.389 -10.517  17.511  0.00  0.00    +0.023 C 
ATOM     10  C   UNL     1      -3.986 -12.265  15.612  0.00  0.00    +0.113 C 
ATOM     11  C   UNL     1      -4.402  -9.991  16.474  0.00  0.00    +0.109 C 
ATOM     14  C   UNL     1      -4.882 -10.443  14.088  0.00  0.00    +0.305 C 
ATOM     17  C   UNL     1      -4.971 -10.799  11.635  0.00  0.00    +0.137 C 
ATOM     18  C   UNL     1      -2.870 -11.303  12.799  0.00  0.00    +0.137 C 
ATOM     19  C   UNL     1      -4.199  -9.850  10.730  0.00  0.00    +0.179 C 
ATOM     20  C   UNL     1      -2.173 -10.346  11.835  0.00  0.00    +0.179 C 
ENDROOT
BRANCH   7  12
ATOM     12  C   UNL     1      -6.314 -13.174  15.981  0.00  0.00    +0.002 C 
ATOM     15  C   UNL     1      -6.139 -13.974  14.709  0.00  0.00    +0.004 C 
ENDBRANCH   7  12
BRANCH   8  13
ATOM     13  C   UNL     1      -6.045 -12.491  18.937  0.00  0.00    +0.099 C 
BRANCH  13  16
ATOM      3  O   UNL     1      -6.813 -10.567  20.187  0.00  0.00    -0.276 OA
ATOM      6  N   UNL     1      -8.249 -11.594  18.675  0.00  0.00    -0.311 N 
ATOM     16  C   UNL     1      -7.048 -11.437  19.353  0.00  0.00    +0.214 C 
ATOM     28  H   UNL     1      -8.354 -12.343  17.999  0.00  0.00    +0.149 HD
BRANCH   6  21
ATOM     21  C   UNL     1      -9.388 -10.729  18.877  0.00  0.00    +0.139 C 
BRANCH  21  22
ATOM     22  C   UNL     1      -9.603  -9.803  17.714  0.00  0.00    -0.030 A 
ATOM     23  C   UNL     1      -8.952 -10.042  16.504  0.00  0.00    +0.005 A 
ATOM     24  C   UNL     1     -10.454  -8.705  17.843  0.00  0.00    +0.005 A 
ATOM     25  C   UNL     1      -9.151  -9.183  15.422  0.00  0.00    +0.000 A 
ATOM     26  C   UNL     1     -10.653  -7.847  16.762  0.00  0.00    +0.000 A 
ATOM     27  C   UNL     1     -10.002  -8.085  15.552  0.00  0.00    +0.000 A 
ENDBRANCH  21  22
ENDBRANCH   6  21
ENDBRANCH  13  16
ENDBRANCH   8  13
TORSDOF 5
ENDMDL
MODEL 10
REMARK VINA RESULT:      -5.6     24.208     26.797
REMARK  Name = 11912302
REMARK  6 active torsions:
REMARK  status: ('A' for Active; 'I' for Inactive)
REMARK    1  A    between atoms: N_6  and  C_21
REMARK    2  A    between atoms: C_7  and  C_12
REMARK    3  A    between atoms: C_8  and  C_13
REMARK    4  A    between atoms: C_12  and  C_15
REMARK    5  A    between atoms: C_13  and  C_16
REMARK    6  A    between atoms: C_21  and  C_22
REMARK                            x       y       z     vdW  Elec       q    Type
REMARK                         _______ _______ _______ _____ _____    ______ ____
ROOT
ATOM      1  O   UNL     1      11.575   7.766   3.583  0.00  0.00    -0.252 OA
ATOM      2  O   UNL     1      10.348   6.479   7.853  0.00  0.00    -0.377 OA
ATOM      4  N   UNL     1      10.478   5.858   2.903  0.00  0.00    -0.285 N 
ATOM      5  N   UNL     1      11.158   6.156   5.175  0.00  0.00    -0.281 N 
ATOM      7  C   UNL     1      11.517   4.115   1.464  0.00  0.00    +0.010 C 
ATOM      8  C   UNL     1      10.829   4.770   0.239  0.00  0.00    +0.004 C 
ATOM      9  C   UNL     1      10.566   6.267   0.473  0.00  0.00    +0.023 C 
ATOM     10  C   UNL     1      10.718   4.415   2.749  0.00  0.00    +0.113 C 
ATOM     11  C   UNL     1       9.797   6.486   1.773  0.00  0.00    +0.109 C 
ATOM     14  C   UNL     1      11.100   6.660   3.871  0.00  0.00    +0.305 C 
ATOM     17  C   UNL     1      12.049   6.766   6.160  0.00  0.00    +0.137 C 
ATOM     18  C   UNL     1      10.161   5.249   5.761  0.00  0.00    +0.137 C 
ATOM     19  C   UNL     1      11.233   7.433   7.259  0.00  0.00    +0.179 C 
ATOM     20  C   UNL     1       9.423   5.963   6.892  0.00  0.00    +0.179 C 
ENDROOT
BRANCH   7  12
ATOM     12  C   UNL     1      12.986   4.524   1.640  0.00  0.00    +0.002 C 
ATOM     15  C   UNL     1      13.902   3.323   1.544  0.00  0.00    +0.004 C 
ENDBRANCH   7  12
BRANCH   8  13
ATOM     13  C   UNL     1      11.591   4.555  -1.067  0.00  0.00    +0.099 C 
BRANCH  13  16
ATOM      3  O   UNL     1      10.176   3.111  -2.396  0.00  0.00    -0.276 OA
ATOM      6  N   UNL     1      10.471   5.326  -3.037  0.00  0.00    -0.311 N 
ATOM     16  C   UNL     1      10.670   4.221  -2.221  0.00  0.00    +0.214 C 
ATOM     28  H   UNL     1      10.920   6.208  -2.813  0.00  0.00    +0.149 HD
BRANCH   6  21
ATOM     21  C   UNL     1       9.637   5.295  -4.216  0.00  0.00    +0.139 C 
BRANCH  21  22
ATOM     22  C   UNL     1       8.263   5.839  -3.947  0.00  0.00    -0.030 A 
ATOM     23  C   UNL     1       7.173   5.373  -4.681  0.00  0.00    +0.005 A 
ATOM     24  C   UNL     1       8.077   6.809  -2.961  0.00  0.00    +0.005 A 
ATOM     25  C   UNL     1       5.896   5.878  -4.431  0.00  0.00    +0.000 A 
ATOM     26  C   UNL     1       6.802   7.314  -2.712  0.00  0.00    +0.000 A 
ATOM     27  C   UNL     1       5.711   6.848  -3.446  0.00  0.00    +0.000 A 
ENDBRANCH  21  22
ENDBRANCH   6  21
ENDBRANCH  13  16
ENDBRANCH   8  13
TORSDOF 5
ENDMDL
