MODEL 1
REMARK VINA RESULT:      -8.0      0.000      0.000
REMARK  Name = 51137606
REMARK  7 active torsions:
REMARK  status: ('A' for Active; 'I' for Inactive)
REMARK    1  A    between atoms: O_6  and  C_23
REMARK    2  A    between atoms: O_6  and  C_25
REMARK    3  A    between atoms: N_7  and  C_14
REMARK    4  A    between atoms: C_10  and  C_15
REMARK    5  A    between atoms: C_14  and  C_16
REMARK    6  A    between atoms: C_19  and  C_23
REMARK    7  A    between atoms: C_22  and  C_24
REMARK                            x       y       z     vdW  Elec       q    Type
REMARK                         _______ _______ _______ _____ _____    ______ ____
ROOT
ATOM      7  N   UNL     1      15.928   7.414  20.090  0.00  0.00    -0.297 NA
ATOM     10  C   UNL     1      13.672   6.788  20.223  0.00  0.00    +0.092 C 
ATOM     11  C   UNL     1      13.896   7.641  18.962  0.00  0.00    +0.029 C 
ATOM     12  C   UNL     1      14.922   7.027  21.080  0.00  0.00    +0.097 C 
ATOM     13  C   UNL     1      15.235   8.332  19.187  0.00  0.00    +0.085 C 
ENDROOT
BRANCH  10  15
ATOM      5  O   UNL     1      12.310   8.260  21.627  0.00  0.00    -0.421 OA
ATOM      8  N   UNL     1      11.301   6.343  21.070  0.00  0.00    -0.112 NA
ATOM      9  N   UNL     1      10.429   7.072  21.856  0.00  0.00    -0.109 NA
ATOM     15  C   UNL     1      12.386   7.074  20.963  0.00  0.00    +0.222 A 
ATOM     19  C   UNL     1      11.060   8.182  22.158  0.00  0.00    +0.254 A 
BRANCH  19  23
ATOM     23  C   UNL     1      10.610   9.324  22.965  0.00  0.00    +0.326 C 
BRANCH  23   6
ATOM      6  O   UNL     1      11.328  10.504  22.598  0.00  0.00    -0.483 OA
BRANCH   6  25
ATOM      4  F   UNL     1      10.260  15.033  25.522  0.00  0.00    -0.205 F 
ATOM     25  C   UNL     1      11.063  11.631  23.325  0.00  0.00    +0.121 A 
ATOM     26  C   UNL     1      11.048  11.573  24.718  0.00  0.00    +0.048 A 
ATOM     27  C   UNL     1      10.807  12.837  22.674  0.00  0.00    +0.048 A 
ATOM     28  C   UNL     1      10.776  12.723  25.461  0.00  0.00    +0.042 A 
ATOM     29  C   UNL     1      10.536  13.987  23.416  0.00  0.00    +0.042 A 
ATOM     30  C   UNL     1      10.520  13.929  24.809  0.00  0.00    +0.124 A 
ENDBRANCH   6  25
ENDBRANCH  23   6
ENDBRANCH  19  23
ENDBRANCH  10  15
BRANCH   7  14
ATOM     14  C   UNL     1      17.105   8.017  20.699  0.00  0.00    +0.119 C 
BRANCH  14  16
ATOM     16  C   UNL     1      18.244   7.038  20.807  0.00  0.00    -0.033 A 
ATOM     17  C   UNL     1      19.198   7.189  21.814  0.00  0.00    +0.005 A 
ATOM     18  C   UNL     1      18.346   5.983  19.901  0.00  0.00    +0.005 A 
ATOM     20  C   UNL     1      20.253   6.283  21.915  0.00  0.00    +0.012 A 
ATOM     21  C   UNL     1      19.401   5.077  20.002  0.00  0.00    +0.012 A 
ATOM     22  C   UNL     1      20.355   5.227  21.010  0.00  0.00    +0.055 A 
BRANCH  22  24
ATOM      1  F   UNL     1      22.545   4.561  20.318  0.00  0.00    -0.166 F 
ATOM      2  F   UNL     1      21.117   2.987  20.775  0.00  0.00    -0.166 F 
ATOM      3  F   UNL     1      22.001   4.159  22.378  0.00  0.00    -0.166 F 
ATOM     24  C   UNL     1      21.482   4.256  21.119  0.00  0.00    +0.417 C 
ENDBRANCH  22  24
ENDBRANCH  14  16
ENDBRANCH   7  14
TORSDOF 7
ENDMDL
MODEL 2
REMARK VINA RESULT:      -7.3     27.358     30.519
REMARK  Name = 51137606
REMARK  7 active torsions:
REMARK  status: ('A' for Active; 'I' for Inactive)
REMARK    1  A    between atoms: O_6  and  C_23
REMARK    2  A    between atoms: O_6  and  C_25
REMARK    3  A    between atoms: N_7  and  C_14
REMARK    4  A    between atoms: C_10  and  C_15
REMARK    5  A    between atoms: C_14  and  C_16
REMARK    6  A    between atoms: C_19  and  C_23
REMARK    7  A    between atoms: C_22  and  C_24
REMARK                            x       y       z     vdW  Elec       q    Type
REMARK                         _______ _______ _______ _____ _____    ______ ____
ROOT
ATOM      7  N   UNL     1     -15.329   6.831  21.820  0.00  0.00    -0.297 NA
ATOM     10  C   UNL     1     -16.458   4.823  22.260  0.00  0.00    +0.092 C 
ATOM     11  C   UNL     1     -17.418   6.008  22.459  0.00  0.00    +0.029 C 
ATOM     12  C   UNL     1     -15.059   5.456  22.244  0.00  0.00    +0.097 C 
ATOM     13  C   UNL     1     -16.518   7.232  22.572  0.00  0.00    +0.085 C 
ENDROOT
BRANCH  10  15
ATOM      5  O   UNL     1     -16.836   4.095  24.567  0.00  0.00    -0.421 OA
ATOM      8  N   UNL     1     -16.511   2.417  23.124  0.00  0.00    -0.112 NA
ATOM      9  N   UNL     1     -16.711   1.870  24.377  0.00  0.00    -0.109 NA
ATOM     15  C   UNL     1     -16.592   3.718  23.282  0.00  0.00    +0.222 A 
ATOM     19  C   UNL     1     -16.896   2.886  25.187  0.00  0.00    +0.254 A 
BRANCH  19  23
ATOM     23  C   UNL     1     -17.156   2.894  26.633  0.00  0.00    +0.326 C 
BRANCH  23   6
ATOM      6  O   UNL     1     -15.988   3.312  27.344  0.00  0.00    -0.483 OA
BRANCH   6  25
ATOM      4  F   UNL     1     -14.836   0.592  31.978  0.00  0.00    -0.205 F 
ATOM     25  C   UNL     1     -15.702   2.636  28.496  0.00  0.00    +0.121 A 
ATOM     26  C   UNL     1     -14.893   3.225  29.467  0.00  0.00    +0.048 A 
ATOM     27  C   UNL     1     -16.219   1.357  28.701  0.00  0.00    +0.048 A 
ATOM     28  C   UNL     1     -14.600   2.534  30.644  0.00  0.00    +0.042 A 
ATOM     29  C   UNL     1     -15.927   0.666  29.877  0.00  0.00    +0.042 A 
ATOM     30  C   UNL     1     -15.117   1.255  30.848  0.00  0.00    +0.124 A 
ENDBRANCH   6  25
ENDBRANCH  23   6
ENDBRANCH  19  23
ENDBRANCH  10  15
BRANCH   7  14
ATOM     14  C   UNL     1     -14.198   7.717  22.057  0.00  0.00    +0.119 C 
BRANCH  14  16
ATOM     16  C   UNL     1     -13.324   7.848  20.838  0.00  0.00    -0.033 A 
ATOM     17  C   UNL     1     -12.072   7.233  20.809  0.00  0.00    +0.005 A 
ATOM     18  C   UNL     1     -13.765   8.586  19.739  0.00  0.00    +0.005 A 
ATOM     20  C   UNL     1     -11.262   7.353  19.681  0.00  0.00    +0.012 A 
ATOM     21  C   UNL     1     -12.954   8.707  18.611  0.00  0.00    +0.012 A 
ATOM     22  C   UNL     1     -11.703   8.090  18.582  0.00  0.00    +0.055 A 
BRANCH  22  24
ATOM      1  F   UNL     1     -10.189   7.062  17.041  0.00  0.00    -0.166 F 
ATOM      2  F   UNL     1      -9.858   9.155  17.527  0.00  0.00    -0.166 F 
ATOM      3  F   UNL     1     -11.519   8.580  16.247  0.00  0.00    -0.166 F 
ATOM     24  C   UNL     1     -10.837   8.217  17.373  0.00  0.00    +0.417 C 
ENDBRANCH  22  24
ENDBRANCH  14  16
ENDBRANCH   7  14
TORSDOF 7
ENDMDL
MODEL 3
REMARK VINA RESULT:      -7.3     27.623     30.818
REMARK  Name = 51137606
REMARK  7 active torsions:
REMARK  status: ('A' for Active; 'I' for Inactive)
REMARK    1  A    between atoms: O_6  and  C_23
REMARK    2  A    between atoms: O_6  and  C_25
REMARK    3  A    between atoms: N_7  and  C_14
REMARK    4  A    between atoms: C_10  and  C_15
REMARK    5  A    between atoms: C_14  and  C_16
REMARK    6  A    between atoms: C_19  and  C_23
REMARK    7  A    between atoms: C_22  and  C_24
REMARK                            x       y       z     vdW  Elec       q    Type
REMARK                         _______ _______ _______ _____ _____    ______ ____
ROOT
ATOM      7  N   UNL     1     -15.587   5.763  22.397  0.00  0.00    -0.297 NA
ATOM     10  C   UNL     1     -16.376   3.671  23.105  0.00  0.00    +0.092 C 
ATOM     11  C   UNL     1     -17.565   4.621  22.879  0.00  0.00    +0.029 C 
ATOM     12  C   UNL     1     -15.149   4.592  23.159  0.00  0.00    +0.097 C 
ATOM     13  C   UNL     1     -16.955   6.016  22.847  0.00  0.00    +0.085 C 
ENDROOT
BRANCH  10  15
ATOM      5  O   UNL     1     -16.220   3.344  25.526  0.00  0.00    -0.421 OA
ATOM      8  N   UNL     1     -16.835   1.513  24.397  0.00  0.00    -0.112 NA
ATOM      9  N   UNL     1     -16.788   1.191  25.740  0.00  0.00    -0.109 NA
ATOM     15  C   UNL     1     -16.496   2.779  24.319  0.00  0.00    +0.222 A 
ATOM     19  C   UNL     1     -16.424   2.288  26.361  0.00  0.00    +0.254 A 
BRANCH  19  23
ATOM     23  C   UNL     1     -16.217   2.528  27.795  0.00  0.00    +0.326 C 
BRANCH  23   6
ATOM      6  O   UNL     1     -16.304   1.299  28.520  0.00  0.00    -0.483 OA
BRANCH   6  25
ATOM      4  F   UNL     1     -14.334   1.336  33.650  0.00  0.00    -0.205 F 
ATOM     25  C   UNL     1     -15.814   1.308  29.796  0.00  0.00    +0.121 A 
ATOM     26  C   UNL     1     -15.736   2.506  30.504  0.00  0.00    +0.048 A 
ATOM     27  C   UNL     1     -15.393   0.119  30.390  0.00  0.00    +0.048 A 
ATOM     28  C   UNL     1     -15.236   2.516  31.807  0.00  0.00    +0.042 A 
ATOM     29  C   UNL     1     -14.892   0.127  31.692  0.00  0.00    +0.042 A 
ATOM     30  C   UNL     1     -14.814   1.327  32.400  0.00  0.00    +0.124 A 
ENDBRANCH   6  25
ENDBRANCH  23   6
ENDBRANCH  19  23
ENDBRANCH  10  15
BRANCH   7  14
ATOM     14  C   UNL     1     -14.716   6.912  22.595  0.00  0.00    +0.119 C 
BRANCH  14  16
ATOM     16  C   UNL     1     -13.807   7.138  21.415  0.00  0.00    -0.033 A 
ATOM     17  C   UNL     1     -14.283   7.809  20.289  0.00  0.00    +0.005 A 
ATOM     18  C   UNL     1     -12.492   6.675  21.449  0.00  0.00    +0.005 A 
ATOM     20  C   UNL     1     -13.442   8.019  19.196  0.00  0.00    +0.012 A 
ATOM     21  C   UNL     1     -11.651   6.884  20.356  0.00  0.00    +0.012 A 
ATOM     22  C   UNL     1     -12.127   7.557  19.230  0.00  0.00    +0.055 A 
BRANCH  22  24
ATOM      1  F   UNL     1     -10.487   6.686  17.721  0.00  0.00    -0.166 F 
ATOM      2  F   UNL     1     -10.321   8.780  18.283  0.00  0.00    -0.166 F 
ATOM      3  F   UNL     1     -11.888   8.135  16.921  0.00  0.00    -0.166 F 
ATOM     24  C   UNL     1     -11.226   7.783  18.062  0.00  0.00    +0.417 C 
ENDBRANCH  22  24
ENDBRANCH  14  16
ENDBRANCH   7  14
TORSDOF 7
ENDMDL
MODEL 4
REMARK VINA RESULT:      -7.1      4.870     11.814
REMARK  Name = 51137606
REMARK  7 active torsions:
REMARK  status: ('A' for Active; 'I' for Inactive)
REMARK    1  A    between atoms: O_6  and  C_23
REMARK    2  A    between atoms: O_6  and  C_25
REMARK    3  A    between atoms: N_7  and  C_14
REMARK    4  A    between atoms: C_10  and  C_15
REMARK    5  A    between atoms: C_14  and  C_16
REMARK    6  A    between atoms: C_19  and  C_23
REMARK    7  A    between atoms: C_22  and  C_24
REMARK                            x       y       z     vdW  Elec       q    Type
REMARK                         _______ _______ _______ _____ _____    ______ ____
ROOT
ATOM      7  N   UNL     1      17.331   6.484  20.409  0.00  0.00    -0.297 NA
ATOM     10  C   UNL     1      19.483   6.597  21.334  0.00  0.00    +0.092 C 
ATOM     11  C   UNL     1      18.693   7.863  21.710  0.00  0.00    +0.029 C 
ATOM     12  C   UNL     1      18.682   5.968  20.186  0.00  0.00    +0.097 C 
ATOM     13  C   UNL     1      17.516   7.896  20.744  0.00  0.00    +0.085 C 
ENDROOT
BRANCH  10  15
ATOM      5  O   UNL     1      21.833   5.920  21.438  0.00  0.00    -0.421 OA
ATOM      8  N   UNL     1      21.477   7.804  20.285  0.00  0.00    -0.112 NA
ATOM      9  N   UNL     1      22.834   7.540  20.264  0.00  0.00    -0.109 NA
ATOM     15  C   UNL     1      20.933   6.834  20.981  0.00  0.00    +0.222 A 
ATOM     19  C   UNL     1      22.995   6.432  20.949  0.00  0.00    +0.254 A 
BRANCH  19  23
ATOM     23  C   UNL     1      24.226   5.688  21.248  0.00  0.00    +0.326 C 
BRANCH  23   6
ATOM      6  O   UNL     1      24.224   4.434  20.561  0.00  0.00    -0.483 OA
BRANCH   6  25
ATOM      4  F   UNL     1      24.603  -0.070  23.688  0.00  0.00    -0.205 F 
ATOM     25  C   UNL     1      24.319   3.314  21.339  0.00  0.00    +0.121 A 
ATOM     26  C   UNL     1      24.264   2.050  20.751  0.00  0.00    +0.048 A 
ATOM     27  C   UNL     1      24.470   3.434  22.720  0.00  0.00    +0.048 A 
ATOM     28  C   UNL     1      24.360   0.907  21.545  0.00  0.00    +0.042 A 
ATOM     29  C   UNL     1      24.566   2.291  23.514  0.00  0.00    +0.042 A 
ATOM     30  C   UNL     1      24.511   1.028  22.926  0.00  0.00    +0.124 A 
ENDBRANCH   6  25
ENDBRANCH  23   6
ENDBRANCH  19  23
ENDBRANCH  10  15
BRANCH   7  14
ATOM     14  C   UNL     1      16.466   6.297  19.253  0.00  0.00    +0.119 C 
BRANCH  14  16
ATOM     16  C   UNL     1      15.093   6.871  19.481  0.00  0.00    -0.033 A 
ATOM     17  C   UNL     1      14.507   7.683  18.509  0.00  0.00    +0.005 A 
ATOM     18  C   UNL     1      14.407   6.592  20.663  0.00  0.00    +0.005 A 
ATOM     20  C   UNL     1      13.235   8.214  18.719  0.00  0.00    +0.012 A 
ATOM     21  C   UNL     1      13.135   7.123  20.873  0.00  0.00    +0.012 A 
ATOM     22  C   UNL     1      12.549   7.935  19.900  0.00  0.00    +0.055 A 
BRANCH  22  24
ATOM      1  F   UNL     1      10.397   7.725  20.922  0.00  0.00    -0.166 F 
ATOM      2  F   UNL     1      10.489   8.662  18.962  0.00  0.00    -0.166 F 
ATOM      3  F   UNL     1      11.196   9.730  20.719  0.00  0.00    -0.166 F 
ATOM     24  C   UNL     1      11.187   8.501  20.124  0.00  0.00    +0.417 C 
ENDBRANCH  22  24
ENDBRANCH  14  16
ENDBRANCH   7  14
TORSDOF 7
ENDMDL
MODEL 5
REMARK VINA RESULT:      -7.0     28.297     30.721
REMARK  Name = 51137606
REMARK  7 active torsions:
REMARK  status: ('A' for Active; 'I' for Inactive)
REMARK    1  A    between atoms: O_6  and  C_23
REMARK    2  A    between atoms: O_6  and  C_25
REMARK    3  A    between atoms: N_7  and  C_14
REMARK    4  A    between atoms: C_10  and  C_15
REMARK    5  A    between atoms: C_14  and  C_16
REMARK    6  A    between atoms: C_19  and  C_23
REMARK    7  A    between atoms: C_22  and  C_24
REMARK                            x       y       z     vdW  Elec       q    Type
REMARK                         _______ _______ _______ _____ _____    ______ ____
ROOT
ATOM      7  N   UNL     1      -7.201  -8.511   8.673  0.00  0.00    -0.297 NA
ATOM     10  C   UNL     1      -5.229  -8.713   9.927  0.00  0.00    +0.092 C 
ATOM     11  C   UNL     1      -5.024  -9.343   8.538  0.00  0.00    +0.029 C 
ATOM     12  C   UNL     1      -6.751  -8.567  10.065  0.00  0.00    +0.097 C 
ATOM     13  C   UNL     1      -6.429  -9.544   7.985  0.00  0.00    +0.085 C 
ENDROOT
BRANCH  10  15
ATOM      5  O   UNL     1      -5.415  -9.786  12.119  0.00  0.00    -0.421 OA
ATOM      8  N   UNL     1      -3.371  -9.903  11.218  0.00  0.00    -0.112 NA
ATOM      9  N   UNL     1      -3.335 -10.542  12.443  0.00  0.00    -0.109 NA
ATOM     15  C   UNL     1      -4.604  -9.477  11.071  0.00  0.00    +0.222 A 
ATOM     19  C   UNL     1      -4.550 -10.449  12.932  0.00  0.00    +0.254 A 
BRANCH  19  23
ATOM     23  C   UNL     1      -5.088 -10.954  14.203  0.00  0.00    +0.326 C 
BRANCH  23   6
ATOM      6  O   UNL     1      -5.381  -9.866  15.083  0.00  0.00    -0.483 OA
BRANCH   6  25
ATOM      4  F   UNL     1      -5.942 -11.106  20.407  0.00  0.00    -0.205 F 
ATOM     25  C   UNL     1      -5.521 -10.174  16.407  0.00  0.00    +0.121 A 
ATOM     26  C   UNL     1      -4.473 -10.787  17.094  0.00  0.00    +0.048 A 
ATOM     27  C   UNL     1      -6.710  -9.876  17.071  0.00  0.00    +0.048 A 
ATOM     28  C   UNL     1      -4.616 -11.102  18.446  0.00  0.00    +0.042 A 
ATOM     29  C   UNL     1      -6.853 -10.190  18.423  0.00  0.00    +0.042 A 
ATOM     30  C   UNL     1      -5.805 -10.804  19.110  0.00  0.00    +0.124 A 
ENDBRANCH   6  25
ENDBRANCH  23   6
ENDBRANCH  19  23
ENDBRANCH  10  15
BRANCH   7  14
ATOM     14  C   UNL     1      -8.637  -8.713   8.545  0.00  0.00    +0.119 C 
BRANCH  14  16
ATOM     16  C   UNL     1      -9.407  -7.443   8.793  0.00  0.00    -0.033 A 
ATOM     17  C   UNL     1      -8.914  -6.227   8.321  0.00  0.00    +0.005 A 
ATOM     18  C   UNL     1     -10.612  -7.483   9.495  0.00  0.00    +0.005 A 
ATOM     20  C   UNL     1      -9.626  -5.050   8.550  0.00  0.00    +0.012 A 
ATOM     21  C   UNL     1     -11.324  -6.306   9.724  0.00  0.00    +0.012 A 
ATOM     22  C   UNL     1     -10.831  -5.089   9.251  0.00  0.00    +0.055 A 
BRANCH  22  24
ATOM      1  F   UNL     1     -11.824  -3.578  10.816  0.00  0.00    -0.166 F 
ATOM      2  F   UNL     1     -12.825  -3.842   8.904  0.00  0.00    -0.166 F 
ATOM      3  F   UNL     1     -10.971  -2.713   9.020  0.00  0.00    -0.166 F 
ATOM     24  C   UNL     1     -11.594  -3.831   9.493  0.00  0.00    +0.417 C 
ENDBRANCH  22  24
ENDBRANCH  14  16
ENDBRANCH   7  14
TORSDOF 7
ENDMDL
MODEL 6
REMARK VINA RESULT:      -7.0     24.933     28.011
REMARK  Name = 51137606
REMARK  7 active torsions:
REMARK  status: ('A' for Active; 'I' for Inactive)
REMARK    1  A    between atoms: O_6  and  C_23
REMARK    2  A    between atoms: O_6  and  C_25
REMARK    3  A    between atoms: N_7  and  C_14
REMARK    4  A    between atoms: C_10  and  C_15
REMARK    5  A    between atoms: C_14  and  C_16
REMARK    6  A    between atoms: C_19  and  C_23
REMARK    7  A    between atoms: C_22  and  C_24
REMARK                            x       y       z     vdW  Elec       q    Type
REMARK                         _______ _______ _______ _____ _____    ______ ____
ROOT
ATOM      7  N   UNL     1       3.638   6.867  -4.305  0.00  0.00    -0.297 NA
ATOM     10  C   UNL     1       5.455   7.170  -2.854  0.00  0.00    +0.092 C 
ATOM     11  C   UNL     1       4.803   8.531  -3.155  0.00  0.00    +0.029 C 
ATOM     12  C   UNL     1       4.901   6.228  -3.932  0.00  0.00    +0.097 C 
ATOM     13  C   UNL     1       3.947   8.293  -4.392  0.00  0.00    +0.085 C 
ENDROOT
BRANCH  10  15
ATOM      5  O   UNL     1       7.582   6.018  -2.476  0.00  0.00    -0.421 OA
ATOM      8  N   UNL     1       7.800   8.173  -3.037  0.00  0.00    -0.112 NA
ATOM      9  N   UNL     1       9.066   7.648  -2.855  0.00  0.00    -0.109 NA
ATOM     15  C   UNL     1       6.966   7.186  -2.805  0.00  0.00    +0.222 A 
ATOM     19  C   UNL     1       8.890   6.390  -2.528  0.00  0.00    +0.254 A 
BRANCH  19  23
ATOM     23  C   UNL     1       9.886   5.353  -2.223  0.00  0.00    +0.326 C 
BRANCH  23   6
ATOM      6  O   UNL     1       9.615   4.767  -0.948  0.00  0.00    -0.483 OA
BRANCH   6  25
ATOM      4  F   UNL     1      13.961   2.949   1.883  0.00  0.00    -0.205 F 
ATOM     25  C   UNL     1      10.696   4.315  -0.244  0.00  0.00    +0.121 A 
ATOM     26  C   UNL     1      11.829   3.863  -0.920  0.00  0.00    +0.048 A 
ATOM     27  C   UNL     1      10.666   4.306   1.150  0.00  0.00    +0.048 A 
ATOM     28  C   UNL     1      12.932   3.401  -0.201  0.00  0.00    +0.042 A 
ATOM     29  C   UNL     1      11.769   3.844   1.869  0.00  0.00    +0.042 A 
ATOM     30  C   UNL     1      12.902   3.392   1.193  0.00  0.00    +0.124 A 
ENDBRANCH   6  25
ENDBRANCH  23   6
ENDBRANCH  19  23
ENDBRANCH  10  15
BRANCH   7  14
ATOM     14  C   UNL     1       3.095   6.340  -5.549  0.00  0.00    +0.119 C 
BRANCH  14  16
ATOM     16  C   UNL     1       2.508   4.965  -5.366  0.00  0.00    -0.033 A 
ATOM     17  C   UNL     1       1.380   4.790  -4.565  0.00  0.00    +0.005 A 
ATOM     18  C   UNL     1       3.093   3.867  -5.998  0.00  0.00    +0.005 A 
ATOM     20  C   UNL     1       0.836   3.517  -4.395  0.00  0.00    +0.012 A 
ATOM     21  C   UNL     1       2.549   2.594  -5.829  0.00  0.00    +0.012 A 
ATOM     22  C   UNL     1       1.420   2.419  -5.028  0.00  0.00    +0.055 A 
BRANCH  22  24
ATOM      1  F   UNL     1       0.005   0.957  -3.770  0.00  0.00    -0.166 F 
ATOM      2  F   UNL     1       1.790   0.099  -4.666  0.00  0.00    -0.166 F 
ATOM      3  F   UNL     1       0.093   0.637  -5.913  0.00  0.00    -0.166 F 
ATOM     24  C   UNL     1       0.837   1.058  -4.849  0.00  0.00    +0.417 C 
ENDBRANCH  22  24
ENDBRANCH  14  16
ENDBRANCH   7  14
TORSDOF 7
ENDMDL
MODEL 7
REMARK VINA RESULT:      -6.9     27.212     29.223
REMARK  Name = 51137606
REMARK  7 active torsions:
REMARK  status: ('A' for Active; 'I' for Inactive)
REMARK    1  A    between atoms: O_6  and  C_23
REMARK    2  A    between atoms: O_6  and  C_25
REMARK    3  A    between atoms: N_7  and  C_14
REMARK    4  A    between atoms: C_10  and  C_15
REMARK    5  A    between atoms: C_14  and  C_16
REMARK    6  A    between atoms: C_19  and  C_23
REMARK    7  A    between atoms: C_22  and  C_24
REMARK                            x       y       z     vdW  Elec       q    Type
REMARK                         _______ _______ _______ _____ _____    ______ ____
ROOT
ATOM      7  N   UNL     1      -1.967 -10.836  13.903  0.00  0.00    -0.297 NA
ATOM     10  C   UNL     1      -3.159 -10.304  15.851  0.00  0.00    +0.092 C 
ATOM     11  C   UNL     1      -1.724 -10.716  16.222  0.00  0.00    +0.029 C 
ATOM     12  C   UNL     1      -3.341 -10.789  14.406  0.00  0.00    +0.097 C 
ATOM     13  C   UNL     1      -1.187 -11.431  14.988  0.00  0.00    +0.085 C 
ENDROOT
BRANCH  10  15
ATOM      5  O   UNL     1      -5.301 -10.008  16.999  0.00  0.00    -0.421 OA
ATOM      8  N   UNL     1      -4.293 -11.956  17.439  0.00  0.00    -0.112 NA
ATOM      9  N   UNL     1      -5.481 -11.921  18.145  0.00  0.00    -0.109 NA
ATOM     15  C   UNL     1      -4.229 -10.820  16.785  0.00  0.00    +0.222 A 
ATOM     19  C   UNL     1      -6.035 -10.766  17.858  0.00  0.00    +0.254 A 
BRANCH  19  23
ATOM     23  C   UNL     1      -7.307 -10.197  18.323  0.00  0.00    +0.326 C 
BRANCH  23   6
ATOM      6  O   UNL     1      -7.738  -9.160  17.438  0.00  0.00    -0.483 OA
BRANCH   6  25
ATOM      4  F   UNL     1     -13.160  -8.334  17.091  0.00  0.00    -0.205 F 
ATOM     25  C   UNL     1      -9.087  -8.955  17.352  0.00  0.00    +0.121 A 
ATOM     26  C   UNL     1      -9.582  -7.878  16.618  0.00  0.00    +0.048 A 
ATOM     27  C   UNL     1      -9.967  -9.822  17.998  0.00  0.00    +0.048 A 
ATOM     28  C   UNL     1     -10.959  -7.668  16.530  0.00  0.00    +0.042 A 
ATOM     29  C   UNL     1     -11.343  -9.613  17.910  0.00  0.00    +0.042 A 
ATOM     30  C   UNL     1     -11.839  -8.535  17.176  0.00  0.00    +0.124 A 
ENDBRANCH   6  25
ENDBRANCH  23   6
ENDBRANCH  19  23
ENDBRANCH  10  15
BRANCH   7  14
ATOM     14  C   UNL     1      -1.856 -11.590  12.662  0.00  0.00    +0.119 C 
BRANCH  14  16
ATOM     16  C   UNL     1      -2.793 -11.070  11.604  0.00  0.00    -0.033 A 
ATOM     17  C   UNL     1      -3.886 -11.838  11.203  0.00  0.00    +0.005 A 
ATOM     18  C   UNL     1      -2.569  -9.820  11.026  0.00  0.00    +0.005 A 
ATOM     20  C   UNL     1      -4.754 -11.358  10.224  0.00  0.00    +0.012 A 
ATOM     21  C   UNL     1      -3.438  -9.339  10.047  0.00  0.00    +0.012 A 
ATOM     22  C   UNL     1      -4.531 -10.108   9.646  0.00  0.00    +0.055 A 
BRANCH  22  24
ATOM      1  F   UNL     1      -6.598 -10.337   8.465  0.00  0.00    -0.166 F 
ATOM      2  F   UNL     1      -4.893  -9.564   7.361  0.00  0.00    -0.166 F 
ATOM      3  F   UNL     1      -5.896  -8.319   8.834  0.00  0.00    -0.166 F 
ATOM     24  C   UNL     1      -5.461  -9.592   8.601  0.00  0.00    +0.417 C 
ENDBRANCH  22  24
ENDBRANCH  14  16
ENDBRANCH   7  14
TORSDOF 7
ENDMDL
MODEL 8
REMARK VINA RESULT:      -6.8     17.762     21.163
REMARK  Name = 51137606
REMARK  7 active torsions:
REMARK  status: ('A' for Active; 'I' for Inactive)
REMARK    1  A    between atoms: O_6  and  C_23
REMARK    2  A    between atoms: O_6  and  C_25
REMARK    3  A    between atoms: N_7  and  C_14
REMARK    4  A    between atoms: C_10  and  C_15
REMARK    5  A    between atoms: C_14  and  C_16
REMARK    6  A    between atoms: C_19  and  C_23
REMARK    7  A    between atoms: C_22  and  C_24
REMARK                            x       y       z     vdW  Elec       q    Type
REMARK                         _______ _______ _______ _____ _____    ______ ____
ROOT
ATOM      7  N   UNL     1      10.511   8.538   4.519  0.00  0.00    -0.297 NA
ATOM     10  C   UNL     1      10.885   6.961   2.823  0.00  0.00    +0.092 C 
ATOM     11  C   UNL     1       9.377   7.244   2.940  0.00  0.00    +0.029 C 
ATOM     12  C   UNL     1      11.487   7.522   4.119  0.00  0.00    +0.097 C 
ATOM     13  C   UNL     1       9.206   7.916   4.296  0.00  0.00    +0.085 C 
ENDROOT
BRANCH  10  15
ATOM      5  O   UNL     1      12.213   5.263   1.663  0.00  0.00    -0.421 OA
ATOM      8  N   UNL     1      10.757   4.428   3.141  0.00  0.00    -0.112 NA
ATOM      9  N   UNL     1      11.435   3.370   2.565  0.00  0.00    -0.109 NA
ATOM     15  C   UNL     1      11.244   5.513   2.585  0.00  0.00    +0.222 A 
ATOM     19  C   UNL     1      12.274   3.905   1.708  0.00  0.00    +0.254 A 
BRANCH  19  23
ATOM     23  C   UNL     1      13.245   3.254   0.819  0.00  0.00    +0.326 C 
BRANCH  23   6
ATOM      6  O   UNL     1      13.632   4.146  -0.229  0.00  0.00    -0.483 OA
BRANCH   6  25
ATOM      4  F   UNL     1      12.287   2.644  -5.342  0.00  0.00    -0.205 F 
ATOM     25  C   UNL     1      13.297   3.772  -1.501  0.00  0.00    +0.121 A 
ATOM     26  C   UNL     1      13.872   4.422  -2.592  0.00  0.00    +0.048 A 
ATOM     27  C   UNL     1      12.382   2.741  -1.706  0.00  0.00    +0.048 A 
ATOM     28  C   UNL     1      13.530   4.041  -3.890  0.00  0.00    +0.042 A 
ATOM     29  C   UNL     1      12.040   2.359  -3.004  0.00  0.00    +0.042 A 
ATOM     30  C   UNL     1      12.615   3.010  -4.096  0.00  0.00    +0.124 A 
ENDBRANCH   6  25
ENDBRANCH  23   6
ENDBRANCH  19  23
ENDBRANCH  10  15
BRANCH   7  14
ATOM     14  C   UNL     1      10.692   8.970   5.897  0.00  0.00    +0.119 C 
BRANCH  14  16
ATOM     16  C   UNL     1      10.331   7.885   6.877  0.00  0.00    -0.033 A 
ATOM     17  C   UNL     1       9.071   7.878   7.475  0.00  0.00    +0.005 A 
ATOM     18  C   UNL     1      11.257   6.889   7.187  0.00  0.00    +0.005 A 
ATOM     20  C   UNL     1       8.736   6.874   8.382  0.00  0.00    +0.012 A 
ATOM     21  C   UNL     1      10.922   5.885   8.095  0.00  0.00    +0.012 A 
ATOM     22  C   UNL     1       9.661   5.877   8.692  0.00  0.00    +0.055 A 
BRANCH  22  24
ATOM      1  F   UNL     1      10.268   4.565  10.598  0.00  0.00    -0.166 F 
ATOM      2  F   UNL     1       9.081   3.600   9.053  0.00  0.00    -0.166 F 
ATOM      3  F   UNL     1       8.169   5.064  10.376  0.00  0.00    -0.166 F 
ATOM     24  C   UNL     1       9.302   4.801   9.661  0.00  0.00    +0.417 C 
ENDBRANCH  22  24
ENDBRANCH  14  16
ENDBRANCH   7  14
TORSDOF 7
ENDMDL
MODEL 9
REMARK VINA RESULT:      -6.8     27.879     29.612
REMARK  Name = 51137606
REMARK  7 active torsions:
REMARK  status: ('A' for Active; 'I' for Inactive)
REMARK    1  A    between atoms: O_6  and  C_23
REMARK    2  A    between atoms: O_6  and  C_25
REMARK    3  A    between atoms: N_7  and  C_14
REMARK    4  A    between atoms: C_10  and  C_15
REMARK    5  A    between atoms: C_14  and  C_16
REMARK    6  A    between atoms: C_19  and  C_23
REMARK    7  A    between atoms: C_22  and  C_24
REMARK                            x       y       z     vdW  Elec       q    Type
REMARK                         _______ _______ _______ _____ _____    ______ ____
ROOT
ATOM      7  N   UNL     1      -4.747 -11.489  16.552  0.00  0.00    -0.297 NA
ATOM     10  C   UNL     1      -6.177 -10.450  18.093  0.00  0.00    +0.092 C 
ATOM     11  C   UNL     1      -5.029 -11.147  18.844  0.00  0.00    +0.029 C 
ATOM     12  C   UNL     1      -6.138 -11.050  16.681  0.00  0.00    +0.097 C 
ATOM     13  C   UNL     1      -4.429 -12.116  17.834  0.00  0.00    +0.085 C 
ENDROOT
BRANCH  10  15
ATOM      5  O   UNL     1      -8.598 -10.088  18.053  0.00  0.00    -0.421 OA
ATOM      8  N   UNL     1      -7.856 -11.086  19.913  0.00  0.00    -0.112 NA
ATOM      9  N   UNL     1      -9.227 -10.945  20.021  0.00  0.00    -0.109 NA
ATOM     15  C   UNL     1      -7.533 -10.572  18.749  0.00  0.00    +0.222 A 
ATOM     19  C   UNL     1      -9.616 -10.358  18.914  0.00  0.00    +0.254 A 
BRANCH  19  23
ATOM     23  C   UNL     1     -10.966  -9.966  18.487  0.00  0.00    +0.326 C 
BRANCH  23   6
ATOM      6  O   UNL     1     -11.036  -9.903  17.060  0.00  0.00    -0.483 OA
BRANCH   6  25
ATOM      4  F   UNL     1     -12.849  -5.185  14.903  0.00  0.00    -0.205 F 
ATOM     25  C   UNL     1     -11.487  -8.730  16.523  0.00  0.00    +0.121 A 
ATOM     26  C   UNL     1     -10.793  -7.544  16.759  0.00  0.00    +0.048 A 
ATOM     27  C   UNL     1     -12.640  -8.720  15.740  0.00  0.00    +0.048 A 
ATOM     28  C   UNL     1     -11.254  -6.346  16.212  0.00  0.00    +0.042 A 
ATOM     29  C   UNL     1     -13.101  -7.522  15.192  0.00  0.00    +0.042 A 
ATOM     30  C   UNL     1     -12.407  -6.335  15.429  0.00  0.00    +0.124 A 
ENDBRANCH   6  25
ENDBRANCH  23   6
ENDBRANCH  19  23
ENDBRANCH  10  15
BRANCH   7  14
ATOM     14  C   UNL     1      -4.553 -12.394  15.428  0.00  0.00    +0.119 C 
BRANCH  14  16
ATOM     16  C   UNL     1      -4.224 -11.650  14.160  0.00  0.00    -0.033 A 
ATOM     17  C   UNL     1      -2.982 -11.030  14.019  0.00  0.00    +0.005 A 
ATOM     18  C   UNL     1      -5.160 -11.581  13.129  0.00  0.00    +0.005 A 
ATOM     20  C   UNL     1      -2.677 -10.341  12.846  0.00  0.00    +0.012 A 
ATOM     21  C   UNL     1      -4.855 -10.893  11.955  0.00  0.00    +0.012 A 
ATOM     22  C   UNL     1      -3.612 -10.273  11.813  0.00  0.00    +0.055 A 
BRANCH  22  24
ATOM      1  F   UNL     1      -1.965  -9.204  10.448  0.00  0.00    -0.166 F 
ATOM      2  F   UNL     1      -3.971  -8.364  10.442  0.00  0.00    -0.166 F 
ATOM      3  F   UNL     1      -3.569 -10.242   9.422  0.00  0.00    -0.166 F 
ATOM     24  C   UNL     1      -3.285  -9.539  10.557  0.00  0.00    +0.417 C 
ENDBRANCH  22  24
ENDBRANCH  14  16
ENDBRANCH   7  14
TORSDOF 7
ENDMDL
MODEL 10
REMARK VINA RESULT:      -6.7     27.577     29.949
REMARK  Name = 51137606
REMARK  7 active torsions:
REMARK  status: ('A' for Active; 'I' for Inactive)
REMARK    1  A    between atoms: O_6  and  C_23
REMARK    2  A    between atoms: O_6  and  C_25
REMARK    3  A    between atoms: N_7  and  C_14
REMARK    4  A    between atoms: C_10  and  C_15
REMARK    5  A    between atoms: C_14  and  C_16
REMARK    6  A    between atoms: C_19  and  C_23
REMARK    7  A    between atoms: C_22  and  C_24
REMARK                            x       y       z     vdW  Elec       q    Type
REMARK                         _______ _______ _______ _____ _____    ______ ____
ROOT
ATOM      7  N   UNL     1      -8.447  -9.192  16.202  0.00  0.00    -0.297 NA
ATOM     10  C   UNL     1      -9.925  -7.384  15.989  0.00  0.00    +0.092 C 
ATOM     11  C   UNL     1      -9.931  -7.886  17.443  0.00  0.00    +0.029 C 
ATOM     12  C   UNL     1      -9.261  -8.515  15.191  0.00  0.00    +0.097 C 
ATOM     13  C   UNL     1      -9.303  -9.272  17.385  0.00  0.00    +0.085 C 
ENDROOT
BRANCH  10  15
ATOM      5  O   UNL     1     -11.341  -5.855  14.705  0.00  0.00    -0.421 OA
ATOM      8  N   UNL     1     -12.438  -7.600  15.572  0.00  0.00    -0.112 NA
ATOM      9  N   UNL     1     -13.349  -6.826  14.879  0.00  0.00    -0.109 NA
ATOM     15  C   UNL     1     -11.280  -6.996  15.444  0.00  0.00    +0.222 A 
ATOM     19  C   UNL     1     -12.664  -5.818  14.390  0.00  0.00    +0.254 A 
BRANCH  19  23
ATOM     23  C   UNL     1     -13.120  -4.689  13.568  0.00  0.00    +0.326 C 
BRANCH  23   6
ATOM      6  O   UNL     1     -13.514  -5.147  12.272  0.00  0.00    -0.483 OA
BRANCH   6  25
ATOM      4  F   UNL     1      -9.828  -4.550   8.239  0.00  0.00    -0.205 F 
ATOM     25  C   UNL     1     -12.597  -4.999  11.269  0.00  0.00    +0.121 A 
ATOM     26  C   UNL     1     -12.101  -6.121  10.606  0.00  0.00    +0.048 A 
ATOM     27  C   UNL     1     -12.158  -3.725  10.909  0.00  0.00    +0.048 A 
ATOM     28  C   UNL     1     -11.165  -5.969   9.582  0.00  0.00    +0.042 A 
ATOM     29  C   UNL     1     -11.223  -3.573   9.885  0.00  0.00    +0.042 A 
ATOM     30  C   UNL     1     -10.726  -4.696   9.222  0.00  0.00    +0.124 A 
ENDBRANCH   6  25
ENDBRANCH  23   6
ENDBRANCH  19  23
ENDBRANCH  10  15
BRANCH   7  14
ATOM     14  C   UNL     1      -7.987 -10.501  15.760  0.00  0.00    +0.119 C 
BRANCH  14  16
ATOM     16  C   UNL     1      -6.484 -10.588  15.734  0.00  0.00    -0.033 A 
ATOM     17  C   UNL     1      -5.803 -10.503  14.520  0.00  0.00    +0.005 A 
ATOM     18  C   UNL     1      -5.774 -10.755  16.923  0.00  0.00    +0.005 A 
ATOM     20  C   UNL     1      -4.411 -10.583  14.495  0.00  0.00    +0.012 A 
ATOM     21  C   UNL     1      -4.382 -10.835  16.898  0.00  0.00    +0.012 A 
ATOM     22  C   UNL     1      -3.700 -10.749  15.684  0.00  0.00    +0.055 A 
BRANCH  22  24
ATOM      1  F   UNL     1      -1.638 -10.755  16.894  0.00  0.00    -0.166 F 
ATOM      2  F   UNL     1      -1.643  -9.830  14.927  0.00  0.00    -0.166 F 
ATOM      3  F   UNL     1      -1.738 -11.994  15.117  0.00  0.00    -0.166 F 
ATOM     24  C   UNL     1      -2.211 -10.833  15.657  0.00  0.00    +0.417 C 
ENDBRANCH  22  24
ENDBRANCH  14  16
ENDBRANCH   7  14
TORSDOF 7
ENDMDL
