MODEL 1
REMARK VINA RESULT:      -5.7      0.000      0.000
REMARK  Name = 75536885
REMARK  5 active torsions:
REMARK  status: ('A' for Active; 'I' for Inactive)
REMARK    1  A    between atoms: O_2  and  C_8
REMARK    2  A    between atoms: O_2  and  C_16
REMARK    3  A    between atoms: N_5  and  C_17
REMARK    4  A    between atoms: C_12  and  C_13
REMARK    5  A    between atoms: C_15  and  C_18
REMARK                            x       y       z     vdW  Elec       q    Type
REMARK                         _______ _______ _______ _____ _____    ______ ____
ROOT
ATOM      1  O   UNL     1      11.688   9.256  16.056  0.00  0.00    -0.376 OA
ATOM      3  O   UNL     1      12.503   6.581  19.992  0.00  0.00    -0.268 OA
ATOM      4  N   UNL     1      13.004   8.542  18.810  0.00  0.00    -0.292 N 
ATOM      7  C   UNL     1      14.016   9.480  18.311  0.00  0.00    +0.142 C 
ATOM      8  C   UNL     1      13.640  10.305  17.076  0.00  0.00    +0.161 C 
ATOM      9  C   UNL     1      11.603   8.777  18.455  0.00  0.00    +0.136 C 
ATOM     10  C   UNL     1      13.093   9.456  15.931  0.00  0.00    +0.193 C 
ATOM     11  C   UNL     1      11.308   8.299  17.039  0.00  0.00    +0.179 C 
ATOM     12  C   UNL     1      13.315   7.409  19.579  0.00  0.00    +0.265 C 
ENDROOT
BRANCH  12  13
ATOM      5  N   UNL     1      15.332   7.596  21.080  0.00  0.00    -0.262 N 
ATOM      6  N   UNL     1      16.627   7.248  21.166  0.00  0.00    -0.176 NA
ATOM     13  C   UNL     1      14.723   7.172  19.936  0.00  0.00    +0.123 A 
ATOM     14  C   UNL     1      15.687   6.501  19.223  0.00  0.00    +0.057 A 
ATOM     15  C   UNL     1      16.838   6.580  20.029  0.00  0.00    +0.061 A 
ATOM     17  C   UNL     1      14.730   8.350  22.155  0.00  0.00    +0.173 C 
ATOM     18  C   UNL     1      18.172   6.025  19.745  0.00  0.00    +0.067 C 
ENDBRANCH  12  13
BRANCH   8   2
ATOM      2  O   UNL     1      14.833  10.959  16.641  0.00  0.00    -0.376 OA
ATOM     16  C   UNL     1      14.932  10.960  15.226  0.00  0.00    +0.194 C 
ENDBRANCH   8   2
TORSDOF 2
ENDMDL
MODEL 2
REMARK VINA RESULT:      -5.4      2.795      3.948
REMARK  Name = 75536885
REMARK  5 active torsions:
REMARK  status: ('A' for Active; 'I' for Inactive)
REMARK    1  A    between atoms: O_2  and  C_8
REMARK    2  A    between atoms: O_2  and  C_16
REMARK    3  A    between atoms: N_5  and  C_17
REMARK    4  A    between atoms: C_12  and  C_13
REMARK    5  A    between atoms: C_15  and  C_18
REMARK                            x       y       z     vdW  Elec       q    Type
REMARK                         _______ _______ _______ _____ _____    ______ ____
ROOT
ATOM      1  O   UNL     1      10.956  10.988  22.097  0.00  0.00    -0.376 OA
ATOM      3  O   UNL     1      11.941   6.378  21.054  0.00  0.00    -0.268 OA
ATOM      4  N   UNL     1      12.755   8.436  21.827  0.00  0.00    -0.292 N 
ATOM      7  C   UNL     1      13.806   9.459  21.794  0.00  0.00    +0.142 C 
ATOM      8  C   UNL     1      13.392  10.883  22.176  0.00  0.00    +0.161 C 
ATOM      9  C   UNL     1      11.570   8.684  22.650  0.00  0.00    +0.136 C 
ATOM     10  C   UNL     1      12.153  11.370  21.428  0.00  0.00    +0.193 C 
ATOM     11  C   UNL     1      10.597   9.619  21.943  0.00  0.00    +0.179 C 
ATOM     12  C   UNL     1      12.812   7.248  21.081  0.00  0.00    +0.265 C 
ENDROOT
BRANCH  12  13
ATOM      5  N   UNL     1      14.106   7.249  18.917  0.00  0.00    -0.262 N 
ATOM      6  N   UNL     1      15.304   6.933  18.396  0.00  0.00    -0.176 NA
ATOM     13  C   UNL     1      14.003   6.999  20.254  0.00  0.00    +0.123 A 
ATOM     14  C   UNL     1      15.219   6.481  20.634  0.00  0.00    +0.057 A 
ATOM     15  C   UNL     1      15.978   6.465  19.449  0.00  0.00    +0.061 A 
ATOM     17  C   UNL     1      13.084   7.800  18.057  0.00  0.00    +0.173 C 
ATOM     18  C   UNL     1      17.367   6.003  19.281  0.00  0.00    +0.067 C 
ENDBRANCH  12  13
BRANCH   8   2
ATOM      2  O   UNL     1      14.494  11.733  21.853  0.00  0.00    -0.376 OA
ATOM     16  C   UNL     1      15.681  10.981  21.651  0.00  0.00    +0.194 C 
ENDBRANCH   8   2
TORSDOF 2
ENDMDL
MODEL 3
REMARK VINA RESULT:      -5.3      3.045      5.174
REMARK  Name = 75536885
REMARK  5 active torsions:
REMARK  status: ('A' for Active; 'I' for Inactive)
REMARK    1  A    between atoms: O_2  and  C_8
REMARK    2  A    between atoms: O_2  and  C_16
REMARK    3  A    between atoms: N_5  and  C_17
REMARK    4  A    between atoms: C_12  and  C_13
REMARK    5  A    between atoms: C_15  and  C_18
REMARK                            x       y       z     vdW  Elec       q    Type
REMARK                         _______ _______ _______ _____ _____    ______ ____
ROOT
ATOM      1  O   UNL     1      15.780   6.614  18.476  0.00  0.00    -0.376 OA
ATOM      3  O   UNL     1      11.512   8.865  18.631  0.00  0.00    -0.268 OA
ATOM      4  N   UNL     1      13.725   8.791  19.402  0.00  0.00    -0.292 N 
ATOM      7  C   UNL     1      14.662   8.871  20.528  0.00  0.00    +0.142 C 
ATOM      8  C   UNL     1      16.002   8.148  20.360  0.00  0.00    +0.161 C 
ATOM      9  C   UNL     1      14.259   8.489  18.073  0.00  0.00    +0.136 C 
ATOM     10  C   UNL     1      15.850   6.702  19.896  0.00  0.00    +0.193 C 
ATOM     11  C   UNL     1      14.529   6.997  17.917  0.00  0.00    +0.179 C 
ATOM     12  C   UNL     1      12.337   8.955  19.541  0.00  0.00    +0.265 C 
ENDROOT
BRANCH  12  13
ATOM      5  N   UNL     1      11.310   8.343  21.761  0.00  0.00    -0.262 N 
ATOM      6  N   UNL     1      10.879   8.879  22.915  0.00  0.00    -0.176 NA
ATOM     13  C   UNL     1      11.800   9.259  20.877  0.00  0.00    +0.123 A 
ATOM     14  C   UNL     1      11.681  10.480  21.496  0.00  0.00    +0.057 A 
ATOM     15  C   UNL     1      11.108  10.185  22.747  0.00  0.00    +0.061 A 
ATOM     17  C   UNL     1      11.220   6.914  21.569  0.00  0.00    +0.173 C 
ATOM     18  C   UNL     1      10.761  11.131  23.821  0.00  0.00    +0.067 C 
ENDBRANCH  12  13
BRANCH   8   2
ATOM      2  O   UNL     1      16.640   8.163  21.638  0.00  0.00    -0.376 OA
ATOM     16  C   UNL     1      17.915   8.782  21.569  0.00  0.00    +0.194 C 
ENDBRANCH   8   2
TORSDOF 2
ENDMDL
MODEL 4
REMARK VINA RESULT:      -5.0     26.020     27.964
REMARK  Name = 75536885
REMARK  5 active torsions:
REMARK  status: ('A' for Active; 'I' for Inactive)
REMARK    1  A    between atoms: O_2  and  C_8
REMARK    2  A    between atoms: O_2  and  C_16
REMARK    3  A    between atoms: N_5  and  C_17
REMARK    4  A    between atoms: C_12  and  C_13
REMARK    5  A    between atoms: C_15  and  C_18
REMARK                            x       y       z     vdW  Elec       q    Type
REMARK                         _______ _______ _______ _____ _____    ______ ____
ROOT
ATOM      1  O   UNL     1      -8.683 -11.181  19.234  0.00  0.00    -0.376 OA
ATOM      3  O   UNL     1      -3.960 -12.148  18.988  0.00  0.00    -0.268 OA
ATOM      4  N   UNL     1      -5.706 -10.710  18.375  0.00  0.00    -0.292 N 
ATOM      7  C   UNL     1      -6.370  -9.921  17.331  0.00  0.00    +0.142 C 
ATOM      8  C   UNL     1      -7.864  -9.643  17.525  0.00  0.00    +0.161 C 
ATOM      9  C   UNL     1      -6.318 -10.761  19.703  0.00  0.00    +0.136 C 
ATOM     10  C   UNL     1      -8.673 -10.900  17.838  0.00  0.00    +0.193 C 
ATOM     11  C   UNL     1      -7.478 -11.748  19.736  0.00  0.00    +0.179 C 
ATOM     12  C   UNL     1      -4.533 -11.449  18.153  0.00  0.00    +0.265 C 
ENDROOT
BRANCH  12  13
ATOM      5  N   UNL     1      -4.190 -12.249  15.786  0.00  0.00    -0.262 N 
ATOM      6  N   UNL     1      -3.492 -11.989  14.668  0.00  0.00    -0.176 NA
ATOM     13  C   UNL     1      -3.917 -11.398  16.817  0.00  0.00    +0.123 A 
ATOM     14  C   UNL     1      -2.975 -10.519  16.339  0.00  0.00    +0.057 A 
ATOM     15  C   UNL     1      -2.753 -10.931  15.012  0.00  0.00    +0.061 A 
ATOM     17  C   UNL     1      -5.121 -13.354  15.797  0.00  0.00    +0.173 C 
ATOM     18  C   UNL     1      -1.831 -10.334  14.030  0.00  0.00    +0.067 C 
ENDBRANCH  12  13
BRANCH   8   2
ATOM      2  O   UNL     1      -8.339  -9.076  16.303  0.00  0.00    -0.376 OA
ATOM     16  C   UNL     1      -9.532  -8.336  16.510  0.00  0.00    +0.194 C 
ENDBRANCH   8   2
TORSDOF 2
ENDMDL
MODEL 5
REMARK VINA RESULT:      -4.9     13.000     15.518
REMARK  Name = 75536885
REMARK  5 active torsions:
REMARK  status: ('A' for Active; 'I' for Inactive)
REMARK    1  A    between atoms: O_2  and  C_8
REMARK    2  A    between atoms: O_2  and  C_16
REMARK    3  A    between atoms: N_5  and  C_17
REMARK    4  A    between atoms: C_12  and  C_13
REMARK    5  A    between atoms: C_15  and  C_18
REMARK                            x       y       z     vdW  Elec       q    Type
REMARK                         _______ _______ _______ _____ _____    ______ ____
ROOT
ATOM      1  O   UNL     1       8.579   7.972   7.186  0.00  0.00    -0.376 OA
ATOM      3  O   UNL     1       9.242   7.466   2.431  0.00  0.00    -0.268 OA
ATOM      4  N   UNL     1       9.146   6.417   4.525  0.00  0.00    -0.292 N 
ATOM      7  C   UNL     1       9.727   5.461   5.474  0.00  0.00    +0.142 C 
ATOM      8  C   UNL     1       9.425   5.695   6.957  0.00  0.00    +0.161 C 
ATOM      9  C   UNL     1       7.977   7.191   4.945  0.00  0.00    +0.136 C 
ATOM     10  C   UNL     1       9.703   7.127   7.408  0.00  0.00    +0.193 C 
ATOM     11  C   UNL     1       8.385   8.362   5.831  0.00  0.00    +0.179 C 
ATOM     12  C   UNL     1       9.677   6.653   3.246  0.00  0.00    +0.265 C 
ENDROOT
BRANCH  12  13
ATOM      5  N   UNL     1      12.148   6.289   2.904  0.00  0.00    -0.262 N 
ATOM      6  N   UNL     1      13.036   5.389   2.451  0.00  0.00    -0.176 NA
ATOM     13  C   UNL     1      10.852   5.874   2.823  0.00  0.00    +0.123 A 
ATOM     14  C   UNL     1      10.894   4.614   2.277  0.00  0.00    +0.057 A 
ATOM     15  C   UNL     1      12.264   4.368   2.070  0.00  0.00    +0.061 A 
ATOM     17  C   UNL     1      12.623   7.555   3.413  0.00  0.00    +0.173 C 
ATOM     18  C   UNL     1      12.882   3.157   1.503  0.00  0.00    +0.067 C 
ENDBRANCH  12  13
BRANCH   8   2
ATOM      2  O   UNL     1      10.265   4.804   7.693  0.00  0.00    -0.376 OA
ATOM     16  C   UNL     1       9.603   4.309   8.847  0.00  0.00    +0.194 C 
ENDBRANCH   8   2
TORSDOF 2
ENDMDL
MODEL 6
REMARK VINA RESULT:      -4.9     11.587     13.278
REMARK  Name = 75536885
REMARK  5 active torsions:
REMARK  status: ('A' for Active; 'I' for Inactive)
REMARK    1  A    between atoms: O_2  and  C_8
REMARK    2  A    between atoms: O_2  and  C_16
REMARK    3  A    between atoms: N_5  and  C_17
REMARK    4  A    between atoms: C_12  and  C_13
REMARK    5  A    between atoms: C_15  and  C_18
REMARK                            x       y       z     vdW  Elec       q    Type
REMARK                         _______ _______ _______ _____ _____    ______ ____
ROOT
ATOM      1  O   UNL     1      12.275   9.629   3.787  0.00  0.00    -0.376 OA
ATOM      3  O   UNL     1       8.170   8.044   5.774  0.00  0.00    -0.268 OA
ATOM      4  N   UNL     1      10.414   8.639   6.106  0.00  0.00    -0.292 N 
ATOM      7  C   UNL     1      11.713   8.331   6.712  0.00  0.00    +0.142 C 
ATOM      8  C   UNL     1      12.950   8.913   6.020  0.00  0.00    +0.161 C 
ATOM      9  C   UNL     1      10.311   9.812   5.237  0.00  0.00    +0.136 C 
ATOM     10  C   UNL     1      12.984   8.635   4.519  0.00  0.00    +0.193 C 
ATOM     11  C   UNL     1      10.857   9.514   3.846  0.00  0.00    +0.179 C 
ATOM     12  C   UNL     1       9.271   7.842   6.287  0.00  0.00    +0.265 C 
ENDROOT
BRANCH  12  13
ATOM      5  N   UNL     1       9.767   5.417   6.767  0.00  0.00    -0.262 N 
ATOM      6  N   UNL     1       9.776   4.511   7.760  0.00  0.00    -0.176 NA
ATOM     13  C   UNL     1       9.373   6.662   7.161  0.00  0.00    +0.123 A 
ATOM     14  C   UNL     1       9.106   6.564   8.505  0.00  0.00    +0.057 A 
ATOM     15  C   UNL     1       9.372   5.218   8.819  0.00  0.00    +0.061 A 
ATOM     17  C   UNL     1      10.155   5.011   5.436  0.00  0.00    +0.173 C 
ATOM     18  C   UNL     1       9.250   4.562  10.131  0.00  0.00    +0.067 C 
ENDBRANCH  12  13
BRANCH   8   2
ATOM      2  O   UNL     1      14.088   8.306   6.633  0.00  0.00    -0.376 OA
ATOM     16  C   UNL     1      13.849   6.936   6.918  0.00  0.00    +0.194 C 
ENDBRANCH   8   2
TORSDOF 2
ENDMDL
MODEL 7
REMARK VINA RESULT:      -4.7     26.140     27.821
REMARK  Name = 75536885
REMARK  5 active torsions:
REMARK  status: ('A' for Active; 'I' for Inactive)
REMARK    1  A    between atoms: O_2  and  C_8
REMARK    2  A    between atoms: O_2  and  C_16
REMARK    3  A    between atoms: N_5  and  C_17
REMARK    4  A    between atoms: C_12  and  C_13
REMARK    5  A    between atoms: C_15  and  C_18
REMARK                            x       y       z     vdW  Elec       q    Type
REMARK                         _______ _______ _______ _____ _____    ______ ____
ROOT
ATOM      1  O   UNL     1      -2.823 -12.455  11.857  0.00  0.00    -0.376 OA
ATOM      3  O   UNL     1      -1.970 -10.252  16.068  0.00  0.00    -0.268 OA
ATOM      4  N   UNL     1      -2.863 -12.123  14.973  0.00  0.00    -0.292 N 
ATOM      7  C   UNL     1      -3.961 -13.086  14.834  0.00  0.00    +0.142 C 
ATOM      8  C   UNL     1      -4.120 -13.754  13.465  0.00  0.00    +0.161 C 
ATOM      9  C   UNL     1      -1.740 -12.208  14.039  0.00  0.00    +0.136 C 
ATOM     10  C   UNL     1      -4.139 -12.756  12.309  0.00  0.00    +0.193 C 
ATOM     11  C   UNL     1      -2.091 -11.572  12.700  0.00  0.00    +0.179 C 
ATOM     12  C   UNL     1      -2.853 -11.100  15.935  0.00  0.00    +0.265 C 
ENDROOT
BRANCH  12  13
ATOM      5  N   UNL     1      -5.197 -10.454  16.605  0.00  0.00    -0.262 N 
ATOM      6  N   UNL     1      -6.058 -10.503  17.635  0.00  0.00    -0.176 NA
ATOM     13  C   UNL     1      -3.982 -11.013  16.875  0.00  0.00    +0.123 A 
ATOM     14  C   UNL     1      -4.054 -11.458  18.173  0.00  0.00    +0.057 A 
ATOM     15  C   UNL     1      -5.354 -11.118  18.590  0.00  0.00    +0.061 A 
ATOM     17  C   UNL     1      -5.614  -9.844  15.364  0.00  0.00    +0.173 C 
ATOM     18  C   UNL     1      -5.968 -11.364  19.906  0.00  0.00    +0.067 C 
ENDBRANCH  12  13
BRANCH   8   2
ATOM      2  O   UNL     1      -5.363 -14.457  13.493  0.00  0.00    -0.376 OA
ATOM     16  C   UNL     1      -6.255 -13.888  14.438  0.00  0.00    +0.194 C 
ENDBRANCH   8   2
TORSDOF 2
ENDMDL
MODEL 8
REMARK VINA RESULT:      -4.6     24.576     26.535
REMARK  Name = 75536885
REMARK  5 active torsions:
REMARK  status: ('A' for Active; 'I' for Inactive)
REMARK    1  A    between atoms: O_2  and  C_8
REMARK    2  A    between atoms: O_2  and  C_16
REMARK    3  A    between atoms: N_5  and  C_17
REMARK    4  A    between atoms: C_12  and  C_13
REMARK    5  A    between atoms: C_15  and  C_18
REMARK                            x       y       z     vdW  Elec       q    Type
REMARK                         _______ _______ _______ _____ _____    ______ ____
ROOT
ATOM      1  O   UNL     1     -11.233  10.882  15.468  0.00  0.00    -0.376 OA
ATOM      3  O   UNL     1      -9.911   9.488  19.897  0.00  0.00    -0.268 OA
ATOM      4  N   UNL     1     -10.903   8.885  17.860  0.00  0.00    -0.292 N 
ATOM      7  C   UNL     1     -11.996   8.210  17.152  0.00  0.00    +0.142 C 
ATOM      8  C   UNL     1     -12.310   8.709  15.738  0.00  0.00    +0.161 C 
ATOM      9  C   UNL     1      -9.899   9.600  17.071  0.00  0.00    +0.136 C 
ATOM     10  C   UNL     1     -12.482  10.224  15.660  0.00  0.00    +0.193 C 
ATOM     11  C   UNL     1     -10.417  10.964  16.632  0.00  0.00    +0.179 C 
ATOM     12  C   UNL     1     -10.791   8.909  19.260  0.00  0.00    +0.265 C 
ENDROOT
BRANCH  12  13
ATOM      5  N   UNL     1     -13.008   8.690  20.441  0.00  0.00    -0.262 N 
ATOM      6  N   UNL     1     -13.748   7.829  21.160  0.00  0.00    -0.176 NA
ATOM     13  C   UNL     1     -11.800   8.190  20.054  0.00  0.00    +0.123 A 
ATOM     14  C   UNL     1     -11.745   6.911  20.556  0.00  0.00    +0.057 A 
ATOM     15  C   UNL     1     -12.971   6.745  21.227  0.00  0.00    +0.061 A 
ATOM     17  C   UNL     1     -13.533  10.006  20.156  0.00  0.00    +0.173 C 
ATOM     18  C   UNL     1     -13.442   5.552  21.951  0.00  0.00    +0.067 C 
ENDBRANCH  12  13
BRANCH   8   2
ATOM      2  O   UNL     1     -13.531   8.081  15.342  0.00  0.00    -0.376 OA
ATOM     16  C   UNL     1     -13.502   7.720  13.970  0.00  0.00    +0.194 C 
ENDBRANCH   8   2
TORSDOF 2
ENDMDL
MODEL 9
REMARK VINA RESULT:      -4.5     16.723     18.899
REMARK  Name = 75536885
REMARK  5 active torsions:
REMARK  status: ('A' for Active; 'I' for Inactive)
REMARK    1  A    between atoms: O_2  and  C_8
REMARK    2  A    between atoms: O_2  and  C_16
REMARK    3  A    between atoms: N_5  and  C_17
REMARK    4  A    between atoms: C_12  and  C_13
REMARK    5  A    between atoms: C_15  and  C_18
REMARK                            x       y       z     vdW  Elec       q    Type
REMARK                         _______ _______ _______ _____ _____    ______ ____
ROOT
ATOM      1  O   UNL     1      12.985   4.713  -2.814  0.00  0.00    -0.376 OA
ATOM      3  O   UNL     1      13.658   3.033   1.662  0.00  0.00    -0.268 OA
ATOM      4  N   UNL     1      12.121   3.722   0.030  0.00  0.00    -0.292 N 
ATOM      7  C   UNL     1      10.923   4.494  -0.314  0.00  0.00    +0.142 C 
ATOM      8  C   UNL     1      10.793   4.949  -1.771  0.00  0.00    +0.161 C 
ATOM      9  C   UNL     1      12.835   3.029  -1.044  0.00  0.00    +0.136 C 
ATOM     10  C   UNL     1      12.044   5.648  -2.296  0.00  0.00    +0.193 C 
ATOM     11  C   UNL     1      13.717   3.994  -1.827  0.00  0.00    +0.179 C 
ATOM     12  C   UNL     1      12.640   3.643   1.333  0.00  0.00    +0.265 C 
ENDROOT
BRANCH  12  13
ATOM      5  N   UNL     1      12.143   5.625   2.811  0.00  0.00    -0.262 N 
ATOM      6  N   UNL     1      11.353   6.024   3.822  0.00  0.00    -0.176 NA
ATOM     13  C   UNL     1      11.923   4.339   2.414  0.00  0.00    +0.123 A 
ATOM     14  C   UNL     1      10.919   3.863   3.222  0.00  0.00    +0.057 A 
ATOM     15  C   UNL     1      10.607   4.944   4.068  0.00  0.00    +0.061 A 
ATOM     17  C   UNL     1      13.108   6.548   2.261  0.00  0.00    +0.173 C 
ATOM     18  C   UNL     1       9.594   4.984   5.136  0.00  0.00    +0.067 C 
ENDBRANCH  12  13
BRANCH   8   2
ATOM      2  O   UNL     1       9.694   5.861  -1.820  0.00  0.00    -0.376 OA
ATOM     16  C   UNL     1       8.801   5.535  -2.873  0.00  0.00    +0.194 C 
ENDBRANCH   8   2
TORSDOF 2
ENDMDL
MODEL 10
REMARK VINA RESULT:      -4.4     14.919     17.240
REMARK  Name = 75536885
REMARK  5 active torsions:
REMARK  status: ('A' for Active; 'I' for Inactive)
REMARK    1  A    between atoms: O_2  and  C_8
REMARK    2  A    between atoms: O_2  and  C_16
REMARK    3  A    between atoms: N_5  and  C_17
REMARK    4  A    between atoms: C_12  and  C_13
REMARK    5  A    between atoms: C_15  and  C_18
REMARK                            x       y       z     vdW  Elec       q    Type
REMARK                         _______ _______ _______ _____ _____    ______ ____
ROOT
ATOM      1  O   UNL     1      14.534   3.602   0.168  0.00  0.00    -0.376 OA
ATOM      3  O   UNL     1       9.812   3.954   1.114  0.00  0.00    -0.268 OA
ATOM      4  N   UNL     1      11.920   4.974   1.221  0.00  0.00    -0.292 N 
ATOM      7  C   UNL     1      12.904   5.736   1.998  0.00  0.00    +0.142 C 
ATOM      8  C   UNL     1      14.372   5.578   1.591  0.00  0.00    +0.161 C 
ATOM      9  C   UNL     1      12.288   4.531  -0.125  0.00  0.00    +0.136 C 
ATOM     10  C   UNL     1      14.807   4.119   1.467  0.00  0.00    +0.193 C 
ATOM     11  C   UNL     1      13.166   3.287  -0.072  0.00  0.00    +0.179 C 
ATOM     12  C   UNL     1      10.656   4.617   1.717  0.00  0.00    +0.265 C 
ENDROOT
BRANCH  12  13
ATOM      5  N   UNL     1       9.739   6.272   3.385  0.00  0.00    -0.262 N 
ATOM      6  N   UNL     1       9.492   6.432   4.696  0.00  0.00    -0.176 NA
ATOM     13  C   UNL     1      10.285   5.062   3.070  0.00  0.00    +0.123 A 
ATOM     14  C   UNL     1      10.404   4.383   4.260  0.00  0.00    +0.057 A 
ATOM     15  C   UNL     1       9.900   5.275   5.225  0.00  0.00    +0.061 A 
ATOM     17  C   UNL     1       9.420   7.343   2.469  0.00  0.00    +0.173 C 
ATOM     18  C   UNL     1       9.791   5.058   6.677  0.00  0.00    +0.067 C 
ENDBRANCH  12  13
BRANCH   8   2
ATOM      2  O   UNL     1      15.151   6.210   2.608  0.00  0.00    -0.376 OA
ATOM     16  C   UNL     1      15.381   7.577   2.304  0.00  0.00    +0.194 C 
ENDBRANCH   8   2
TORSDOF 2
ENDMDL
