MODEL 1
REMARK VINA RESULT:      -6.8      0.000      0.000
REMARK  Name = 40779879
REMARK  7 active torsions:
REMARK  status: ('A' for Active; 'I' for Inactive)
REMARK    1  A    between atoms: O_2  and  C_24
REMARK    2  A    between atoms: O_2  and  C_25
REMARK    3  A    between atoms: N_4  and  C_13
REMARK    4  A    between atoms: N_5  and  C_14
REMARK    5  A    between atoms: C_7  and  C_13
REMARK    6  A    between atoms: C_8  and  C_14
REMARK    7  A    between atoms: C_20  and  C_24
REMARK                            x       y       z     vdW  Elec       q    Type
REMARK                         _______ _______ _______ _____ _____    ______ ____
ROOT
ATOM      3  N   UNL     1      11.604   8.499  22.242  0.00  0.00    -0.298 NA
ATOM      6  C   UNL     1      12.319   9.305  19.874  0.00  0.00    -0.002 C 
ATOM      7  C   UNL     1      13.415   8.419  20.510  0.00  0.00    +0.023 C 
ATOM      8  C   UNL     1      11.468   9.977  22.145  0.00  0.00    +0.074 C 
ATOM      9  C   UNL     1      12.027  10.499  20.802  0.00  0.00    +0.024 C 
ATOM     10  C   UNL     1      13.002   8.091  21.964  0.00  0.00    +0.090 C 
ATOM     11  C   UNL     1      11.037   8.453  19.810  0.00  0.00    +0.019 C 
ATOM     12  C   UNL     1      10.730   7.893  21.209  0.00  0.00    +0.085 C 
ENDROOT
BRANCH   7  13
ATOM     13  C   UNL     1      14.806   9.044  20.448  0.00  0.00    +0.110 C 
BRANCH  13   4
ATOM      4  N   UNL     1      15.751   8.082  19.938  0.00  0.00    -0.329 N 
ATOM     15  C   UNL     1      15.335   6.878  19.222  0.00  0.00    +0.110 C 
ATOM     16  C   UNL     1      16.973   7.801  20.531  0.00  0.00    +0.033 A 
ATOM     17  C   UNL     1      16.607   6.035  19.001  0.00  0.00    +0.056 C 
ATOM     18  C   UNL     1      17.520   6.610  20.036  0.00  0.00    -0.025 A 
ATOM     19  C   UNL     1      17.665   8.531  21.485  0.00  0.00    +0.023 A 
ATOM     21  C   UNL     1      18.747   6.130  20.463  0.00  0.00    +0.005 A 
ATOM     22  C   UNL     1      18.901   8.056  21.934  0.00  0.00    +0.002 A 
ATOM     23  C   UNL     1      19.438   6.863  21.427  0.00  0.00    +0.000 A 
ENDBRANCH  13   4
ENDBRANCH   7  13
BRANCH   8  14
ATOM     14  C   UNL     1      12.094  10.701  23.340  0.00  0.00    +0.123 C 
BRANCH  14   5
ATOM      1  O   UNL     1      10.543  11.896  25.469  0.00  0.00    -0.273 OA
ATOM      5  N   UNL     1      11.598  12.049  23.401  0.00  0.00    -0.312 N 
ATOM     20  C   UNL     1      10.857  12.539  24.471  0.00  0.00    +0.239 C 
ATOM     26  H   UNL     1      11.804  12.667  22.621  0.00  0.00    +0.149 HD
BRANCH  20  24
ATOM     24  C   UNL     1      10.468  13.988  24.273  0.00  0.00    +0.255 C 
BRANCH  24   2
ATOM      2  O   UNL     1       9.369  14.092  23.391  0.00  0.00    -0.374 OA
ATOM     25  C   UNL     1       9.642  14.972  22.304  0.00  0.00    +0.194 C 
ENDBRANCH  24   2
ENDBRANCH  20  24
ENDBRANCH  14   5
ENDBRANCH   8  14
TORSDOF 6
ENDMDL
MODEL 2
REMARK VINA RESULT:      -6.4      1.282      2.065
REMARK  Name = 40779879
REMARK  7 active torsions:
REMARK  status: ('A' for Active; 'I' for Inactive)
REMARK    1  A    between atoms: O_2  and  C_24
REMARK    2  A    between atoms: O_2  and  C_25
REMARK    3  A    between atoms: N_4  and  C_13
REMARK    4  A    between atoms: N_5  and  C_14
REMARK    5  A    between atoms: C_7  and  C_13
REMARK    6  A    between atoms: C_8  and  C_14
REMARK    7  A    between atoms: C_20  and  C_24
REMARK                            x       y       z     vdW  Elec       q    Type
REMARK                         _______ _______ _______ _____ _____    ______ ____
ROOT
ATOM      3  N   UNL     1      12.207   8.472  22.098  0.00  0.00    -0.298 NA
ATOM      6  C   UNL     1      12.117   9.198  19.601  0.00  0.00    -0.002 C 
ATOM      7  C   UNL     1      13.367   8.332  19.880  0.00  0.00    +0.023 C 
ATOM      8  C   UNL     1      12.035   9.946  22.003  0.00  0.00    +0.074 C 
ATOM      9  C   UNL     1      12.127  10.422  20.536  0.00  0.00    +0.024 C 
ATOM     10  C   UNL     1      13.445   8.052  21.398  0.00  0.00    +0.090 C 
ATOM     11  C   UNL     1      10.890   8.347  19.980  0.00  0.00    +0.019 C 
ATOM     12  C   UNL     1      11.054   7.833  21.420  0.00  0.00    +0.085 C 
ENDROOT
BRANCH   7  13
ATOM     13  C   UNL     1      14.659   8.953  19.354  0.00  0.00    +0.110 C 
BRANCH  13   4
ATOM      4  N   UNL     1      15.749   8.634  20.242  0.00  0.00    -0.329 N 
ATOM     15  C   UNL     1      16.459   9.654  21.011  0.00  0.00    +0.110 C 
ATOM     16  C   UNL     1      16.636   7.585  20.042  0.00  0.00    +0.033 A 
ATOM     17  C   UNL     1      17.649   8.945  21.690  0.00  0.00    +0.056 C 
ATOM     18  C   UNL     1      17.773   7.715  20.849  0.00  0.00    -0.025 A 
ATOM     19  C   UNL     1      16.514   6.494  19.195  0.00  0.00    +0.023 A 
ATOM     21  C   UNL     1      18.793   6.778  20.839  0.00  0.00    +0.005 A 
ATOM     22  C   UNL     1      17.538   5.544  19.167  0.00  0.00    +0.002 A 
ATOM     23  C   UNL     1      18.671   5.685  19.983  0.00  0.00    +0.000 A 
ENDBRANCH  13   4
ENDBRANCH   7  13
BRANCH   8  14
ATOM     14  C   UNL     1      13.004  10.708  22.910  0.00  0.00    +0.123 C 
BRANCH  14   5
ATOM      1  O   UNL     1      11.007  12.791  23.105  0.00  0.00    -0.273 OA
ATOM      5  N   UNL     1      12.317  11.143  24.095  0.00  0.00    -0.312 N 
ATOM     20  C   UNL     1      11.366  12.157  24.094  0.00  0.00    +0.239 C 
ATOM     26  H   UNL     1      12.542  10.681  24.971  0.00  0.00    +0.149 HD
BRANCH  20  24
ATOM     24  C   UNL     1      10.803  12.406  25.476  0.00  0.00    +0.255 C 
BRANCH  24   2
ATOM      2  O   UNL     1      10.557  13.783  25.673  0.00  0.00    -0.374 OA
ATOM     25  C   UNL     1      11.697  14.457  26.197  0.00  0.00    +0.194 C 
ENDBRANCH  24   2
ENDBRANCH  20  24
ENDBRANCH  14   5
ENDBRANCH   8  14
TORSDOF 6
ENDMDL
MODEL 3
REMARK VINA RESULT:      -6.0     26.475     28.547
REMARK  Name = 40779879
REMARK  7 active torsions:
REMARK  status: ('A' for Active; 'I' for Inactive)
REMARK    1  A    between atoms: O_2  and  C_24
REMARK    2  A    between atoms: O_2  and  C_25
REMARK    3  A    between atoms: N_4  and  C_13
REMARK    4  A    between atoms: N_5  and  C_14
REMARK    5  A    between atoms: C_7  and  C_13
REMARK    6  A    between atoms: C_8  and  C_14
REMARK    7  A    between atoms: C_20  and  C_24
REMARK                            x       y       z     vdW  Elec       q    Type
REMARK                         _______ _______ _______ _____ _____    ______ ____
ROOT
ATOM      3  N   UNL     1      -7.120 -10.017  18.212  0.00  0.00    -0.298 NA
ATOM      6  C   UNL     1      -5.674 -12.155  17.888  0.00  0.00    -0.002 C 
ATOM      7  C   UNL     1      -5.193 -11.017  16.958  0.00  0.00    +0.023 C 
ATOM      8  C   UNL     1      -7.997 -11.191  17.956  0.00  0.00    +0.074 C 
ATOM      9  C   UNL     1      -7.161 -12.444  17.612  0.00  0.00    +0.024 C 
ATOM     10  C   UNL     1      -6.173  -9.827  17.088  0.00  0.00    +0.090 C 
ATOM     11  C   UNL     1      -5.572 -11.626  19.331  0.00  0.00    +0.019 C 
ATOM     12  C   UNL     1      -6.334 -10.294  19.438  0.00  0.00    +0.085 C 
ENDROOT
BRANCH   7  13
ATOM     13  C   UNL     1      -5.029 -11.455  15.505  0.00  0.00    +0.110 C 
BRANCH  13   4
ATOM      4  N   UNL     1      -3.678 -11.199  15.069  0.00  0.00    -0.329 N 
ATOM     15  C   UNL     1      -2.651 -10.672  15.965  0.00  0.00    +0.110 C 
ATOM     16  C   UNL     1      -3.337 -10.806  13.782  0.00  0.00    +0.033 A 
ATOM     17  C   UNL     1      -1.415 -10.376  15.091  0.00  0.00    +0.056 C 
ATOM     18  C   UNL     1      -2.031 -10.304  13.731  0.00  0.00    -0.025 A 
ATOM     19  C   UNL     1      -4.097 -10.867  12.625  0.00  0.00    +0.023 A 
ATOM     21  C   UNL     1      -1.457  -9.866  12.549  0.00  0.00    +0.005 A 
ATOM     22  C   UNL     1      -3.537 -10.421  11.424  0.00  0.00    +0.002 A 
ATOM     23  C   UNL     1      -2.225  -9.923  11.387  0.00  0.00    +0.000 A 
ENDBRANCH  13   4
ENDBRANCH   7  13
BRANCH   8  14
ATOM     14  C   UNL     1      -9.059 -10.906  16.890  0.00  0.00    +0.123 C 
BRANCH  14   5
ATOM      1  O   UNL     1      -9.385  -8.820  14.913  0.00  0.00    -0.273 OA
ATOM      5  N   UNL     1      -9.610  -9.594  17.096  0.00  0.00    -0.312 N 
ATOM     20  C   UNL     1      -9.729  -8.652  16.081  0.00  0.00    +0.239 C 
ATOM     26  H   UNL     1      -9.925  -9.353  18.031  0.00  0.00    +0.149 HD
BRANCH  20  24
ATOM     24  C   UNL     1     -10.342  -7.361  16.577  0.00  0.00    +0.255 C 
BRANCH  24   2
ATOM      2  O   UNL     1     -10.254  -6.355  15.589  0.00  0.00    -0.374 OA
ATOM     25  C   UNL     1     -11.529  -5.797  15.286  0.00  0.00    +0.194 C 
ENDBRANCH  24   2
ENDBRANCH  20  24
ENDBRANCH  14   5
ENDBRANCH   8  14
TORSDOF 6
ENDMDL
MODEL 4
REMARK VINA RESULT:      -5.9     27.507     28.812
REMARK  Name = 40779879
REMARK  7 active torsions:
REMARK  status: ('A' for Active; 'I' for Inactive)
REMARK    1  A    between atoms: O_2  and  C_24
REMARK    2  A    between atoms: O_2  and  C_25
REMARK    3  A    between atoms: N_4  and  C_13
REMARK    4  A    between atoms: N_5  and  C_14
REMARK    5  A    between atoms: C_7  and  C_13
REMARK    6  A    between atoms: C_8  and  C_14
REMARK    7  A    between atoms: C_20  and  C_24
REMARK                            x       y       z     vdW  Elec       q    Type
REMARK                         _______ _______ _______ _____ _____    ______ ____
ROOT
ATOM      3  N   UNL     1      -5.196 -10.540  18.004  0.00  0.00    -0.298 NA
ATOM      6  C   UNL     1      -5.646 -12.228  16.077  0.00  0.00    -0.002 C 
ATOM      7  C   UNL     1      -4.795 -11.037  15.580  0.00  0.00    +0.023 C 
ATOM      8  C   UNL     1      -6.654 -10.818  17.901  0.00  0.00    +0.074 C 
ATOM      9  C   UNL     1      -6.965 -11.699  16.671  0.00  0.00    +0.024 C 
ATOM     10  C   UNL     1      -4.682 -10.001  16.722  0.00  0.00    +0.090 C 
ATOM     11  C   UNL     1      -4.862 -12.889  17.226  0.00  0.00    +0.019 C 
ATOM     12  C   UNL     1      -4.506 -11.823  18.276  0.00  0.00    +0.085 C 
ENDROOT
BRANCH   7  13
ATOM     13  C   UNL     1      -5.334 -10.405  14.298  0.00  0.00    +0.110 C 
BRANCH  13   4
ATOM      4  N   UNL     1      -4.361 -10.542  13.242  0.00  0.00    -0.329 N 
ATOM     15  C   UNL     1      -2.939 -10.749  13.507  0.00  0.00    +0.110 C 
ATOM     16  C   UNL     1      -4.458  -9.911  12.009  0.00  0.00    +0.033 A 
ATOM     17  C   UNL     1      -2.221 -10.668  12.144  0.00  0.00    +0.056 C 
ATOM     18  C   UNL     1      -3.237  -9.940  11.324  0.00  0.00    -0.025 A 
ATOM     19  C   UNL     1      -5.562  -9.312  11.424  0.00  0.00    +0.023 A 
ATOM     21  C   UNL     1      -3.089  -9.390  10.061  0.00  0.00    +0.005 A 
ATOM     22  C   UNL     1      -5.428  -8.744  10.154  0.00  0.00    +0.002 A 
ATOM     23  C   UNL     1      -4.199  -8.783   9.476  0.00  0.00    +0.000 A 
ENDBRANCH  13   4
ENDBRANCH   7  13
BRANCH   8  14
ATOM     14  C   UNL     1      -7.495  -9.538  17.910  0.00  0.00    +0.123 C 
BRANCH  14   5
ATOM      1  O   UNL     1      -9.719  -7.752  17.430  0.00  0.00    -0.273 OA
ATOM      5  N   UNL     1      -8.366  -9.525  16.766  0.00  0.00    -0.312 N 
ATOM     20  C   UNL     1      -9.415  -8.624  16.620  0.00  0.00    +0.239 C 
ATOM     26  H   UNL     1      -8.200 -10.210  16.035  0.00  0.00    +0.149 HD
BRANCH  20  24
ATOM     24  C   UNL     1     -10.165  -8.836  15.323  0.00  0.00    +0.255 C 
BRANCH  24   2
ATOM      2  O   UNL     1     -10.801  -7.642  14.915  0.00  0.00    -0.374 OA
ATOM     25  C   UNL     1     -12.084  -7.892  14.349  0.00  0.00    +0.194 C 
ENDBRANCH  24   2
ENDBRANCH  20  24
ENDBRANCH  14   5
ENDBRANCH   8  14
TORSDOF 6
ENDMDL
MODEL 5
REMARK VINA RESULT:      -5.9     26.234     29.165
REMARK  Name = 40779879
REMARK  7 active torsions:
REMARK  status: ('A' for Active; 'I' for Inactive)
REMARK    1  A    between atoms: O_2  and  C_24
REMARK    2  A    between atoms: O_2  and  C_25
REMARK    3  A    between atoms: N_4  and  C_13
REMARK    4  A    between atoms: N_5  and  C_14
REMARK    5  A    between atoms: C_7  and  C_13
REMARK    6  A    between atoms: C_8  and  C_14
REMARK    7  A    between atoms: C_20  and  C_24
REMARK                            x       y       z     vdW  Elec       q    Type
REMARK                         _______ _______ _______ _____ _____    ______ ____
ROOT
ATOM      3  N   UNL     1      -7.152 -11.967  16.584  0.00  0.00    -0.298 NA
ATOM      6  C   UNL     1      -6.230  -9.550  16.305  0.00  0.00    -0.002 C 
ATOM      7  C   UNL     1      -6.602 -10.161  14.935  0.00  0.00    +0.023 C 
ATOM      8  C   UNL     1      -5.843 -11.838  17.280  0.00  0.00    +0.074 C 
ATOM      9  C   UNL     1      -5.203 -10.459  17.005  0.00  0.00    +0.024 C 
ATOM     10  C   UNL     1      -7.005 -11.638  15.146  0.00  0.00    +0.090 C 
ATOM     11  C   UNL     1      -7.509  -9.564  17.163  0.00  0.00    +0.019 C 
ATOM     12  C   UNL     1      -8.088 -10.989  17.189  0.00  0.00    +0.085 C 
ENDROOT
BRANCH   7  13
ATOM     13  C   UNL     1      -5.495 -10.022  13.893  0.00  0.00    +0.110 C 
BRANCH  13   4
ATOM      4  N   UNL     1      -6.040  -9.486  12.671  0.00  0.00    -0.329 N 
ATOM     15  C   UNL     1      -7.462  -9.570  12.342  0.00  0.00    +0.110 C 
ATOM     16  C   UNL     1      -5.348  -9.428  11.469  0.00  0.00    +0.033 A 
ATOM     17  C   UNL     1      -7.612  -9.050  10.898  0.00  0.00    +0.056 C 
ATOM     18  C   UNL     1      -6.212  -9.188  10.392  0.00  0.00    -0.025 A 
ATOM     19  C   UNL     1      -3.987  -9.560  11.243  0.00  0.00    +0.023 A 
ATOM     21  C   UNL     1      -5.750  -9.070   9.092  0.00  0.00    +0.005 A 
ATOM     22  C   UNL     1      -3.505  -9.451   9.935  0.00  0.00    +0.002 A 
ATOM     23  C   UNL     1      -4.382  -9.208   8.866  0.00  0.00    +0.000 A 
ENDBRANCH  13   4
ENDBRANCH   7  13
BRANCH   8  14
ATOM     14  C   UNL     1      -4.887 -12.986  16.944  0.00  0.00    +0.123 C 
BRANCH  14   5
ATOM      1  O   UNL     1      -4.019 -13.455  14.225  0.00  0.00    -0.273 OA
ATOM      5  N   UNL     1      -3.710 -12.463  16.307  0.00  0.00    -0.312 N 
ATOM     20  C   UNL     1      -3.371 -12.743  14.989  0.00  0.00    +0.239 C 
ATOM     26  H   UNL     1      -3.102 -11.860  16.854  0.00  0.00    +0.149 HD
BRANCH  20  24
ATOM     24  C   UNL     1      -2.083 -12.061  14.579  0.00  0.00    +0.255 C 
BRANCH  24   2
ATOM      2  O   UNL     1      -2.143 -10.677  14.854  0.00  0.00    -0.374 OA
ATOM     25  C   UNL     1      -1.035 -10.243  15.636  0.00  0.00    +0.194 C 
ENDBRANCH  24   2
ENDBRANCH  20  24
ENDBRANCH  14   5
ENDBRANCH   8  14
TORSDOF 6
ENDMDL
MODEL 6
REMARK VINA RESULT:      -5.9      3.082      4.582
REMARK  Name = 40779879
REMARK  7 active torsions:
REMARK  status: ('A' for Active; 'I' for Inactive)
REMARK    1  A    between atoms: O_2  and  C_24
REMARK    2  A    between atoms: O_2  and  C_25
REMARK    3  A    between atoms: N_4  and  C_13
REMARK    4  A    between atoms: N_5  and  C_14
REMARK    5  A    between atoms: C_7  and  C_13
REMARK    6  A    between atoms: C_8  and  C_14
REMARK    7  A    between atoms: C_20  and  C_24
REMARK                            x       y       z     vdW  Elec       q    Type
REMARK                         _______ _______ _______ _____ _____    ______ ____
ROOT
ATOM      3  N   UNL     1      13.445   8.649  21.912  0.00  0.00    -0.298 NA
ATOM      6  C   UNL     1      13.330   7.189  19.761  0.00  0.00    -0.002 C 
ATOM      7  C   UNL     1      13.535   8.680  19.406  0.00  0.00    +0.023 C 
ATOM      8  C   UNL     1      12.221   7.804  21.935  0.00  0.00    +0.074 C 
ATOM      9  C   UNL     1      12.050   7.038  20.604  0.00  0.00    +0.024 C 
ATOM     10  C   UNL     1      13.451   9.513  20.706  0.00  0.00    +0.090 C 
ATOM     11  C   UNL     1      14.515   6.776  20.654  0.00  0.00    +0.019 C 
ATOM     12  C   UNL     1      14.620   7.749  21.841  0.00  0.00    +0.085 C 
ENDROOT
BRANCH   7  13
ATOM     13  C   UNL     1      12.558   9.187  18.348  0.00  0.00    +0.110 C 
BRANCH  13   4
ATOM      4  N   UNL     1      13.283   9.595  17.171  0.00  0.00    -0.329 N 
ATOM     15  C   UNL     1      13.926   8.637  16.274  0.00  0.00    +0.110 C 
ATOM     16  C   UNL     1      13.986  10.787  17.063  0.00  0.00    +0.033 A 
ATOM     17  C   UNL     1      14.733   9.463  15.252  0.00  0.00    +0.056 C 
ATOM     18  C   UNL     1      14.859  10.769  15.969  0.00  0.00    -0.025 A 
ATOM     19  C   UNL     1      13.908  11.916  17.862  0.00  0.00    +0.023 A 
ATOM     21  C   UNL     1      15.655  11.855  15.645  0.00  0.00    +0.005 A 
ATOM     22  C   UNL     1      14.711  13.019  17.555  0.00  0.00    +0.002 A 
ATOM     23  C   UNL     1      15.579  12.988  16.453  0.00  0.00    +0.000 A 
ENDBRANCH  13   4
ENDBRANCH   7  13
BRANCH   8  14
ATOM     14  C   UNL     1      10.965   8.602  22.296  0.00  0.00    +0.123 C 
BRANCH  14   5
ATOM      1  O   UNL     1      10.876  11.488  22.472  0.00  0.00    -0.273 OA
ATOM      5  N   UNL     1      11.224   9.409  23.457  0.00  0.00    -0.312 N 
ATOM     20  C   UNL     1      11.157  10.798  23.449  0.00  0.00    +0.239 C 
ATOM     26  H   UNL     1      11.467   8.933  24.322  0.00  0.00    +0.149 HD
BRANCH  20  24
ATOM     24  C   UNL     1      11.474  11.388  24.805  0.00  0.00    +0.255 C 
BRANCH  24   2
ATOM      2  O   UNL     1      12.375  12.469  24.680  0.00  0.00    -0.374 OA
ATOM     25  C   UNL     1      13.288  12.528  25.772  0.00  0.00    +0.194 C 
ENDBRANCH  24   2
ENDBRANCH  20  24
ENDBRANCH  14   5
ENDBRANCH   8  14
TORSDOF 6
ENDMDL
MODEL 7
REMARK VINA RESULT:      -5.8     26.992     30.104
REMARK  Name = 40779879
REMARK  7 active torsions:
REMARK  status: ('A' for Active; 'I' for Inactive)
REMARK    1  A    between atoms: O_2  and  C_24
REMARK    2  A    between atoms: O_2  and  C_25
REMARK    3  A    between atoms: N_4  and  C_13
REMARK    4  A    between atoms: N_5  and  C_14
REMARK    5  A    between atoms: C_7  and  C_13
REMARK    6  A    between atoms: C_8  and  C_14
REMARK    7  A    between atoms: C_20  and  C_24
REMARK                            x       y       z     vdW  Elec       q    Type
REMARK                         _______ _______ _______ _____ _____    ______ ____
ROOT
ATOM      3  N   UNL     1      -6.044 -12.082  16.946  0.00  0.00    -0.298 NA
ATOM      6  C   UNL     1      -7.224 -10.914  18.949  0.00  0.00    -0.002 C 
ATOM      7  C   UNL     1      -8.002 -10.676  17.635  0.00  0.00    +0.023 C 
ATOM      8  C   UNL     1      -5.073 -11.228  17.682  0.00  0.00    +0.074 C 
ATOM      9  C   UNL     1      -5.779 -10.408  18.784  0.00  0.00    +0.024 C 
ATOM     10  C   UNL     1      -7.184 -11.265  16.463  0.00  0.00    +0.090 C 
ATOM     11  C   UNL     1      -7.152 -12.439  19.155  0.00  0.00    +0.019 C 
ATOM     12  C   UNL     1      -6.569 -13.095  17.892  0.00  0.00    +0.085 C 
ENDROOT
BRANCH   7  13
ATOM     13  C   UNL     1      -8.348  -9.208  17.397  0.00  0.00    +0.110 C 
BRANCH  13   4
ATOM      4  N   UNL     1      -9.768  -9.010  17.556  0.00  0.00    -0.329 N 
ATOM     15  C   UNL     1     -10.675 -10.094  17.929  0.00  0.00    +0.110 C 
ATOM     16  C   UNL     1     -10.511  -8.089  16.831  0.00  0.00    +0.033 A 
ATOM     17  C   UNL     1     -12.105  -9.527  17.823  0.00  0.00    +0.056 C 
ATOM     18  C   UNL     1     -11.884  -8.345  16.936  0.00  0.00    -0.025 A 
ATOM     19  C   UNL     1     -10.067  -7.013  16.079  0.00  0.00    +0.023 A 
ATOM     21  C   UNL     1     -12.830  -7.547  16.313  0.00  0.00    +0.005 A 
ATOM     22  C   UNL     1     -11.008  -6.203  15.437  0.00  0.00    +0.002 A 
ATOM     23  C   UNL     1     -12.381  -6.468  15.553  0.00  0.00    +0.000 A 
ENDBRANCH  13   4
ENDBRANCH   7  13
BRANCH   8  14
ATOM     14  C   UNL     1      -4.253 -10.335  16.747  0.00  0.00    +0.123 C 
BRANCH  14   5
ATOM      1  O   UNL     1      -1.442 -10.316  16.066  0.00  0.00    -0.273 OA
ATOM      5  N   UNL     1      -3.594 -11.146  15.760  0.00  0.00    -0.312 N 
ATOM     20  C   UNL     1      -2.230 -11.069  15.500  0.00  0.00    +0.239 C 
ATOM     26  H   UNL     1      -4.159 -11.805  15.232  0.00  0.00    +0.149 HD
BRANCH  20  24
ATOM     24  C   UNL     1      -1.806 -12.035  14.416  0.00  0.00    +0.255 C 
BRANCH  24   2
ATOM      2  O   UNL     1      -2.543 -11.811  13.231  0.00  0.00    -0.374 OA
ATOM     25  C   UNL     1      -1.992 -10.753  12.455  0.00  0.00    +0.194 C 
ENDBRANCH  24   2
ENDBRANCH  20  24
ENDBRANCH  14   5
ENDBRANCH   8  14
TORSDOF 6
ENDMDL
MODEL 8
REMARK VINA RESULT:      -5.7     28.140     30.969
REMARK  Name = 40779879
REMARK  7 active torsions:
REMARK  status: ('A' for Active; 'I' for Inactive)
REMARK    1  A    between atoms: O_2  and  C_24
REMARK    2  A    between atoms: O_2  and  C_25
REMARK    3  A    between atoms: N_4  and  C_13
REMARK    4  A    between atoms: N_5  and  C_14
REMARK    5  A    between atoms: C_7  and  C_13
REMARK    6  A    between atoms: C_8  and  C_14
REMARK    7  A    between atoms: C_20  and  C_24
REMARK                            x       y       z     vdW  Elec       q    Type
REMARK                         _______ _______ _______ _____ _____    ______ ____
ROOT
ATOM      3  N   UNL     1      -5.823 -12.321  16.548  0.00  0.00    -0.298 NA
ATOM      6  C   UNL     1      -5.606 -11.493  19.005  0.00  0.00    -0.002 C 
ATOM      7  C   UNL     1      -7.020 -12.059  18.735  0.00  0.00    +0.023 C 
ATOM      8  C   UNL     1      -5.311 -10.924  16.572  0.00  0.00    +0.074 C 
ATOM      9  C   UNL     1      -5.314 -10.356  18.008  0.00  0.00    +0.024 C 
ATOM     10  C   UNL     1      -7.136 -12.400  17.232  0.00  0.00    +0.090 C 
ATOM     11  C   UNL     1      -4.607 -12.627  18.708  0.00  0.00    +0.019 C 
ATOM     12  C   UNL     1      -4.862 -13.171  17.291  0.00  0.00    +0.085 C 
ENDROOT
BRANCH   7  13
ATOM     13  C   UNL     1      -8.139 -11.126  19.190  0.00  0.00    +0.110 C 
BRANCH  13   4
ATOM      4  N   UNL     1      -9.109 -11.866  19.958  0.00  0.00    -0.329 N 
ATOM     15  C   UNL     1      -9.110 -13.326  20.023  0.00  0.00    +0.110 C 
ATOM     16  C   UNL     1     -10.415 -11.448  20.173  0.00  0.00    +0.033 A 
ATOM     17  C   UNL     1     -10.387 -13.731  20.788  0.00  0.00    +0.056 C 
ATOM     18  C   UNL     1     -11.215 -12.495  20.646  0.00  0.00    -0.025 A 
ATOM     19  C   UNL     1     -10.965 -10.189  19.993  0.00  0.00    +0.023 A 
ATOM     21  C   UNL     1     -12.554 -12.317  20.952  0.00  0.00    +0.005 A 
ATOM     22  C   UNL     1     -12.317  -9.994  20.288  0.00  0.00    +0.002 A 
ATOM     23  C   UNL     1     -13.107 -11.051  20.765  0.00  0.00    +0.000 A 
ENDBRANCH  13   4
ENDBRANCH   7  13
BRANCH   8  14
ATOM     14  C   UNL     1      -6.061 -10.010  15.598  0.00  0.00    +0.123 C 
BRANCH  14   5
ATOM      1  O   UNL     1      -8.915  -9.905  15.139  0.00  0.00    -0.273 OA
ATOM      5  N   UNL     1      -7.027  -9.227  16.318  0.00  0.00    -0.312 N 
ATOM     20  C   UNL     1      -8.386  -9.240  16.026  0.00  0.00    +0.239 C 
ATOM     26  H   UNL     1      -6.692  -8.638  17.075  0.00  0.00    +0.149 HD
BRANCH  20  24
ATOM     24  C   UNL     1      -9.170  -8.324  16.940  0.00  0.00    +0.255 C 
BRANCH  24   2
ATOM      2  O   UNL     1      -9.800  -7.299  16.199  0.00  0.00    -0.374 OA
ATOM     25  C   UNL     1     -11.152  -7.106  16.602  0.00  0.00    +0.194 C 
ENDBRANCH  24   2
ENDBRANCH  20  24
ENDBRANCH  14   5
ENDBRANCH   8  14
TORSDOF 6
ENDMDL
MODEL 9
REMARK VINA RESULT:      -5.7     27.742     29.443
REMARK  Name = 40779879
REMARK  7 active torsions:
REMARK  status: ('A' for Active; 'I' for Inactive)
REMARK    1  A    between atoms: O_2  and  C_24
REMARK    2  A    between atoms: O_2  and  C_25
REMARK    3  A    between atoms: N_4  and  C_13
REMARK    4  A    between atoms: N_5  and  C_14
REMARK    5  A    between atoms: C_7  and  C_13
REMARK    6  A    between atoms: C_8  and  C_14
REMARK    7  A    between atoms: C_20  and  C_24
REMARK                            x       y       z     vdW  Elec       q    Type
REMARK                         _______ _______ _______ _____ _____    ______ ____
ROOT
ATOM      3  N   UNL     1      -3.902 -12.750  12.198  0.00  0.00    -0.298 NA
ATOM      6  C   UNL     1      -2.068 -12.518  14.028  0.00  0.00    -0.002 C 
ATOM      7  C   UNL     1      -3.463 -12.172  14.598  0.00  0.00    +0.023 C 
ATOM      8  C   UNL     1      -2.798 -11.883  11.706  0.00  0.00    +0.074 C 
ATOM      9  C   UNL     1      -1.769 -11.607  12.824  0.00  0.00    +0.024 C 
ATOM     10  C   UNL     1      -4.486 -12.186  13.438  0.00  0.00    +0.090 C 
ATOM     11  C   UNL     1      -2.148 -13.962  13.498  0.00  0.00    +0.019 C 
ATOM     12  C   UNL     1      -3.329 -14.079  12.519  0.00  0.00    +0.085 C 
ENDROOT
BRANCH   7  13
ATOM     13  C   UNL     1      -3.491 -10.848  15.358  0.00  0.00    +0.110 C 
BRANCH  13   4
ATOM      4  N   UNL     1      -4.756 -10.703  16.035  0.00  0.00    -0.329 N 
ATOM     15  C   UNL     1      -5.737  -9.689  15.657  0.00  0.00    +0.110 C 
ATOM     16  C   UNL     1      -4.954 -10.978  17.382  0.00  0.00    +0.033 A 
ATOM     17  C   UNL     1      -6.857  -9.742  16.716  0.00  0.00    +0.056 C 
ATOM     18  C   UNL     1      -6.159 -10.432  17.843  0.00  0.00    -0.025 A 
ATOM     19  C   UNL     1      -4.147 -11.696  18.249  0.00  0.00    +0.023 A 
ATOM     21  C   UNL     1      -6.584 -10.591  19.151  0.00  0.00    +0.005 A 
ATOM     22  C   UNL     1      -4.557 -11.858  19.576  0.00  0.00    +0.002 A 
ATOM     23  C   UNL     1      -5.769 -11.309  20.024  0.00  0.00    +0.000 A 
ENDBRANCH  13   4
ENDBRANCH   7  13
BRANCH   8  14
ATOM     14  C   UNL     1      -3.311 -10.586  11.073  0.00  0.00    +0.123 C 
BRANCH  14   5
ATOM      1  O   UNL     1      -4.037  -8.755   8.955  0.00  0.00    -0.273 OA
ATOM      5  N   UNL     1      -4.046 -10.892   9.876  0.00  0.00    -0.312 N 
ATOM     20  C   UNL     1      -4.350  -9.942   8.907  0.00  0.00    +0.239 C 
ATOM     26  H   UNL     1      -4.354 -11.850   9.739  0.00  0.00    +0.149 HD
BRANCH  20  24
ATOM     24  C   UNL     1      -5.129 -10.538   7.755  0.00  0.00    +0.255 C 
BRANCH  24   2
ATOM      2  O   UNL     1      -4.554 -11.761   7.344  0.00  0.00    -0.374 OA
ATOM     25  C   UNL     1      -4.373 -11.815   5.933  0.00  0.00    +0.194 C 
ENDBRANCH  24   2
ENDBRANCH  20  24
ENDBRANCH  14   5
ENDBRANCH   8  14
TORSDOF 6
ENDMDL
MODEL 10
REMARK VINA RESULT:      -5.7     27.423     29.217
REMARK  Name = 40779879
REMARK  7 active torsions:
REMARK  status: ('A' for Active; 'I' for Inactive)
REMARK    1  A    between atoms: O_2  and  C_24
REMARK    2  A    between atoms: O_2  and  C_25
REMARK    3  A    between atoms: N_4  and  C_13
REMARK    4  A    between atoms: N_5  and  C_14
REMARK    5  A    between atoms: C_7  and  C_13
REMARK    6  A    between atoms: C_8  and  C_14
REMARK    7  A    between atoms: C_20  and  C_24
REMARK                            x       y       z     vdW  Elec       q    Type
REMARK                         _______ _______ _______ _____ _____    ______ ____
ROOT
ATOM      3  N   UNL     1      -4.042 -12.184  12.423  0.00  0.00    -0.298 NA
ATOM      6  C   UNL     1      -2.464 -12.677  14.432  0.00  0.00    -0.002 C 
ATOM      7  C   UNL     1      -3.709 -11.885  14.890  0.00  0.00    +0.023 C 
ATOM      8  C   UNL     1      -2.658 -11.742  12.104  0.00  0.00    +0.074 C 
ATOM      9  C   UNL     1      -1.732 -11.885  13.332  0.00  0.00    +0.024 C 
ATOM     10  C   UNL     1      -4.534 -11.496  13.641  0.00  0.00    +0.090 C 
ATOM     11  C   UNL     1      -2.975 -13.981  13.790  0.00  0.00    +0.019 C 
ATOM     12  C   UNL     1      -4.003 -13.640  12.698  0.00  0.00    +0.085 C 
ENDROOT
BRANCH   7  13
ATOM     13  C   UNL     1      -3.367 -10.664  15.741  0.00  0.00    +0.110 C 
BRANCH  13   4
ATOM      4  N   UNL     1      -4.073 -10.732  16.996  0.00  0.00    -0.329 N 
ATOM     15  C   UNL     1      -3.785 -11.749  18.005  0.00  0.00    +0.110 C 
ATOM     16  C   UNL     1      -5.399 -10.356  17.164  0.00  0.00    +0.033 A 
ATOM     17  C   UNL     1      -4.855 -11.594  19.105  0.00  0.00    +0.056 C 
ATOM     18  C   UNL     1      -5.918 -10.840  18.372  0.00  0.00    -0.025 A 
ATOM     19  C   UNL     1      -6.199  -9.596  16.327  0.00  0.00    +0.023 A 
ATOM     21  C   UNL     1      -7.217 -10.577  18.772  0.00  0.00    +0.005 A 
ATOM     22  C   UNL     1      -7.517  -9.329  16.711  0.00  0.00    +0.002 A 
ATOM     23  C   UNL     1      -8.023  -9.817  17.926  0.00  0.00    +0.000 A 
ENDBRANCH  13   4
ENDBRANCH   7  13
BRANCH   8  14
ATOM     14  C   UNL     1      -2.616 -10.325  11.523  0.00  0.00    +0.123 C 
BRANCH  14   5
ATOM      1  O   UNL     1      -4.590  -8.400  10.649  0.00  0.00    -0.273 OA
ATOM      5  N   UNL     1      -3.304 -10.300  10.262  0.00  0.00    -0.312 N 
ATOM     20  C   UNL     1      -4.242  -9.331   9.926  0.00  0.00    +0.239 C 
ATOM     26  H   UNL     1      -3.089 -11.030   9.589  0.00  0.00    +0.149 HD
BRANCH  20  24
ATOM     24  C   UNL     1      -4.807  -9.546   8.539  0.00  0.00    +0.255 C 
BRANCH  24   2
ATOM      2  O   UNL     1      -4.487 -10.838   8.066  0.00  0.00    -0.374 OA
ATOM     25  C   UNL     1      -5.461 -11.322   7.146  0.00  0.00    +0.194 C 
ENDBRANCH  24   2
ENDBRANCH  20  24
ENDBRANCH  14   5
ENDBRANCH   8  14
TORSDOF 6
ENDMDL
