MODEL 1
REMARK VINA RESULT:      -7.6      0.000      0.000
REMARK  Name = 56774551
REMARK  7 active torsions:
REMARK  status: ('A' for Active; 'I' for Inactive)
REMARK    1  A    between atoms: O_2  and  C_15
REMARK    2  A    between atoms: N_5  and  C_18
REMARK    3  A    between atoms: N_6  and  C_21
REMARK    4  A    between atoms: C_7  and  C_14
REMARK    5  A    between atoms: C_13  and  C_15
REMARK    6  A    between atoms: C_15  and  C_17
REMARK    7  A    between atoms: C_18  and  C_26
REMARK                            x       y       z     vdW  Elec       q    Type
REMARK                         _______ _______ _______ _____ _____    ______ ____
ROOT
ATOM     17  C   UNL     1      15.983   6.523  19.885  0.00  0.00    -0.017 A 
ATOM     21  C   UNL     1      18.721   6.142  20.266  0.00  0.00    +0.033 A 
ATOM     22  C   UNL     1      16.596   6.985  21.049  0.00  0.00    +0.008 A 
ATOM     23  C   UNL     1      16.739   5.869  18.911  0.00  0.00    +0.008 A 
ATOM     24  C   UNL     1      17.966   6.795  21.239  0.00  0.00    +0.023 A 
ATOM     25  C   UNL     1      18.108   5.679  19.101  0.00  0.00    +0.023 A 
ENDROOT
BRANCH  21   6
ATOM      3  O   UNL     1      20.328   3.607  20.493  0.00  0.00    -0.275 OA
ATOM      6  N   UNL     1      20.090   5.952  20.455  0.00  0.00    -0.285 N 
ATOM     14  C   UNL     1      20.789   4.742  20.557  0.00  0.00    +0.220 C 
ATOM     27  H   UNL     1      20.637   6.808  20.520  0.00  0.00    +0.155 HD
BRANCH  14   7
ATOM      7  C   UNL     1      22.260   4.964  20.758  0.00  0.00    +0.075 C 
ATOM      8  C   UNL     1      22.934   3.663  21.198  0.00  0.00    +0.013 C 
ATOM      9  C   UNL     1      22.512   6.119  21.730  0.00  0.00    +0.013 C 
ATOM     10  C   UNL     1      22.670   3.317  22.662  0.00  0.00    +0.001 C 
ATOM     11  C   UNL     1      22.272   5.747  23.193  0.00  0.00    +0.001 C 
ATOM     12  C   UNL     1      23.019   4.478  23.586  0.00  0.00    +0.000 C 
ENDBRANCH  14   7
ENDBRANCH  21   6
BRANCH  17  15
ATOM     15  C   UNL     1      14.504   6.728  19.679  0.00  0.00    +0.167 C 
BRANCH  15  13
ATOM      1  O   UNL     1      13.214   7.742  17.246  0.00  0.00    -0.369 OA
ATOM      4  O   UNL     1      10.537   8.491  19.552  0.00  0.00    -0.273 OA
ATOM      5  N   UNL     1      12.837   8.531  19.910  0.00  0.00    -0.292 N 
ATOM     13  C   UNL     1      14.167   8.194  19.390  0.00  0.00    +0.135 C 
ATOM     16  C   UNL     1      14.234   8.489  17.897  0.00  0.00    +0.185 C 
ATOM     19  C   UNL     1      11.691   8.392  19.130  0.00  0.00    +0.242 C 
ATOM     20  C   UNL     1      11.934   8.186  17.639  0.00  0.00    +0.255 C 
BRANCH   5  18
ATOM     18  C   UNL     1      12.726   8.841  21.329  0.00  0.00    +0.105 C 
ATOM     26  C   UNL     1      13.861   9.731  21.792  0.00  0.00    +0.024 C 
ENDBRANCH   5  18
ENDBRANCH  15  13
BRANCH  15   2
ATOM      2  O   UNL     1      13.799   6.302  20.840  0.00  0.00    -0.385 OA
ATOM     28  H   UNL     1      12.849   6.264  20.643  0.00  0.00    +0.210 HD
ENDBRANCH  15   2
ENDBRANCH  17  15
TORSDOF 6
ENDMDL
MODEL 2
REMARK VINA RESULT:      -6.7      1.845      8.950
REMARK  Name = 56774551
REMARK  7 active torsions:
REMARK  status: ('A' for Active; 'I' for Inactive)
REMARK    1  A    between atoms: O_2  and  C_15
REMARK    2  A    between atoms: N_5  and  C_18
REMARK    3  A    between atoms: N_6  and  C_21
REMARK    4  A    between atoms: C_7  and  C_14
REMARK    5  A    between atoms: C_13  and  C_15
REMARK    6  A    between atoms: C_15  and  C_17
REMARK    7  A    between atoms: C_18  and  C_26
REMARK                            x       y       z     vdW  Elec       q    Type
REMARK                         _______ _______ _______ _____ _____    ______ ____
ROOT
ATOM     17  C   UNL     1      18.764   6.147  20.523  0.00  0.00    -0.017 A 
ATOM     21  C   UNL     1      16.358   7.333  19.756  0.00  0.00    +0.033 A 
ATOM     22  C   UNL     1      18.309   7.290  21.179  0.00  0.00    +0.008 A 
ATOM     23  C   UNL     1      18.015   5.596  19.482  0.00  0.00    +0.008 A 
ATOM     24  C   UNL     1      17.106   7.883  20.796  0.00  0.00    +0.023 A 
ATOM     25  C   UNL     1      16.812   6.189  19.099  0.00  0.00    +0.023 A 
ENDROOT
BRANCH  21   6
ATOM      3  O   UNL     1      13.532   6.749  20.613  0.00  0.00    -0.275 OA
ATOM      6  N   UNL     1      15.154   7.925  19.372  0.00  0.00    -0.285 N 
ATOM     14  C   UNL     1      13.859   7.611  19.804  0.00  0.00    +0.220 C 
ATOM     27  H   UNL     1      15.245   8.682  18.697  0.00  0.00    +0.155 HD
BRANCH  14   7
ATOM      7  C   UNL     1      12.827   8.483  19.150  0.00  0.00    +0.075 C 
ATOM      8  C   UNL     1      13.316   9.933  19.103  0.00  0.00    +0.013 C 
ATOM      9  C   UNL     1      11.469   8.339  19.840  0.00  0.00    +0.013 C 
ATOM     10  C   UNL     1      13.223  10.640  20.454  0.00  0.00    +0.001 C 
ATOM     11  C   UNL     1      11.384   9.077  21.176  0.00  0.00    +0.001 C 
ATOM     12  C   UNL     1      11.825  10.530  21.051  0.00  0.00    +0.000 C 
ENDBRANCH  14   7
ENDBRANCH  21   6
BRANCH  17  15
ATOM     15  C   UNL     1      20.064   5.506  20.937  0.00  0.00    +0.167 C 
BRANCH  15  13
ATOM      1  O   UNL     1      21.941   4.654  23.026  0.00  0.00    -0.369 OA
ATOM      4  O   UNL     1      24.367   6.057  20.749  0.00  0.00    -0.273 OA
ATOM      5  N   UNL     1      22.184   6.744  21.172  0.00  0.00    -0.292 N 
ATOM     13  C   UNL     1      20.902   6.436  21.818  0.00  0.00    +0.135 C 
ATOM     16  C   UNL     1      21.144   5.821  23.191  0.00  0.00    +0.185 C 
ATOM     19  C   UNL     1      23.316   5.960  21.385  0.00  0.00    +0.242 C 
ATOM     20  C   UNL     1      23.227   4.984  22.553  0.00  0.00    +0.255 C 
BRANCH   5  18
ATOM     18  C   UNL     1      22.193   7.786  20.156  0.00  0.00    +0.105 C 
ATOM     26  C   UNL     1      21.668   9.098  20.702  0.00  0.00    +0.024 C 
ENDBRANCH   5  18
ENDBRANCH  15  13
BRANCH  15   2
ATOM      2  O   UNL     1      20.811   5.154  19.777  0.00  0.00    -0.385 OA
ATOM     28  H   UNL     1      21.564   5.761  19.685  0.00  0.00    +0.210 HD
ENDBRANCH  15   2
ENDBRANCH  17  15
TORSDOF 6
ENDMDL
MODEL 3
REMARK VINA RESULT:      -6.3      2.264      9.110
REMARK  Name = 56774551
REMARK  7 active torsions:
REMARK  status: ('A' for Active; 'I' for Inactive)
REMARK    1  A    between atoms: O_2  and  C_15
REMARK    2  A    between atoms: N_5  and  C_18
REMARK    3  A    between atoms: N_6  and  C_21
REMARK    4  A    between atoms: C_7  and  C_14
REMARK    5  A    between atoms: C_13  and  C_15
REMARK    6  A    between atoms: C_15  and  C_17
REMARK    7  A    between atoms: C_18  and  C_26
REMARK                            x       y       z     vdW  Elec       q    Type
REMARK                         _______ _______ _______ _____ _____    ______ ____
ROOT
ATOM     17  C   UNL     1      19.078   7.014  21.310  0.00  0.00    -0.017 A 
ATOM     21  C   UNL     1      16.584   7.171  20.069  0.00  0.00    +0.033 A 
ATOM     22  C   UNL     1      18.748   6.120  20.292  0.00  0.00    +0.008 A 
ATOM     23  C   UNL     1      18.160   7.987  21.709  0.00  0.00    +0.008 A 
ATOM     24  C   UNL     1      17.501   6.199  19.671  0.00  0.00    +0.023 A 
ATOM     25  C   UNL     1      16.914   8.065  21.088  0.00  0.00    +0.023 A 
ENDROOT
BRANCH  21   6
ATOM      3  O   UNL     1      15.083   9.549  18.996  0.00  0.00    -0.275 OA
ATOM      6  N   UNL     1      15.337   7.250  19.448  0.00  0.00    -0.285 N 
ATOM     14  C   UNL     1      14.681   8.391  18.967  0.00  0.00    +0.220 C 
ATOM     27  H   UNL     1      14.859   6.359  19.333  0.00  0.00    +0.155 HD
BRANCH  14   7
ATOM      7  C   UNL     1      13.349   8.054  18.364  0.00  0.00    +0.075 C 
ATOM      8  C   UNL     1      12.420   9.269  18.424  0.00  0.00    +0.013 C 
ATOM      9  C   UNL     1      12.744   6.814  19.025  0.00  0.00    +0.013 C 
ATOM     10  C   UNL     1      11.852   9.520  19.820  0.00  0.00    +0.001 C 
ATOM     11  C   UNL     1      12.154   7.088  20.408  0.00  0.00    +0.001 C 
ATOM     12  C   UNL     1      11.191   8.270  20.390  0.00  0.00    +0.000 C 
ENDBRANCH  14   7
ENDBRANCH  21   6
BRANCH  17  15
ATOM     15  C   UNL     1      20.426   6.930  21.980  0.00  0.00    +0.167 C 
BRANCH  15  13
ATOM      1  O   UNL     1      22.984   8.155  21.229  0.00  0.00    -0.369 OA
ATOM      4  O   UNL     1      24.319   5.420  23.174  0.00  0.00    -0.273 OA
ATOM      5  N   UNL     1      22.413   5.478  21.837  0.00  0.00    -0.292 N 
ATOM     13  C   UNL     1      21.480   6.305  21.063  0.00  0.00    +0.135 C 
ATOM     16  C   UNL     1      22.245   7.376  20.296  0.00  0.00    +0.185 C 
ATOM     19  C   UNL     1      23.584   6.007  22.378  0.00  0.00    +0.242 C 
ATOM     20  C   UNL     1      23.985   7.381  21.852  0.00  0.00    +0.255 C 
BRANCH   5  18
ATOM     18  C   UNL     1      21.991   4.127  22.182  0.00  0.00    +0.105 C 
ATOM     26  C   UNL     1      21.369   3.420  20.995  0.00  0.00    +0.024 C 
ENDBRANCH   5  18
ENDBRANCH  15  13
BRANCH  15   2
ATOM      2  O   UNL     1      20.316   6.156  23.170  0.00  0.00    -0.385 OA
ATOM     28  H   UNL     1      21.198   6.039  23.560  0.00  0.00    +0.210 HD
ENDBRANCH  15   2
ENDBRANCH  17  15
TORSDOF 6
ENDMDL
MODEL 4
REMARK VINA RESULT:      -6.2     16.094     20.043
REMARK  Name = 56774551
REMARK  7 active torsions:
REMARK  status: ('A' for Active; 'I' for Inactive)
REMARK    1  A    between atoms: O_2  and  C_15
REMARK    2  A    between atoms: N_5  and  C_18
REMARK    3  A    between atoms: N_6  and  C_21
REMARK    4  A    between atoms: C_7  and  C_14
REMARK    5  A    between atoms: C_13  and  C_15
REMARK    6  A    between atoms: C_15  and  C_17
REMARK    7  A    between atoms: C_18  and  C_26
REMARK                            x       y       z     vdW  Elec       q    Type
REMARK                         _______ _______ _______ _____ _____    ______ ____
ROOT
ATOM     17  C   UNL     1       9.403   6.382   3.566  0.00  0.00    -0.017 A 
ATOM     21  C   UNL     1      10.486   5.864   1.048  0.00  0.00    +0.033 A 
ATOM     22  C   UNL     1       9.341   7.353   2.566  0.00  0.00    +0.008 A 
ATOM     23  C   UNL     1      10.008   5.152   3.307  0.00  0.00    +0.008 A 
ATOM     24  C   UNL     1       9.881   7.093   1.306  0.00  0.00    +0.023 A 
ATOM     25  C   UNL     1      10.549   4.893   2.047  0.00  0.00    +0.023 A 
ENDROOT
BRANCH  21   6
ATOM      3  O   UNL     1       9.157   4.990  -1.508  0.00  0.00    -0.275 OA
ATOM      6  N   UNL     1      11.027   5.603  -0.212  0.00  0.00    -0.285 N 
ATOM     14  C   UNL     1      10.359   5.195  -1.373  0.00  0.00    +0.220 C 
ATOM     27  H   UNL     1      12.034   5.737  -0.281  0.00  0.00    +0.155 HD
BRANCH  14   7
ATOM      7  C   UNL     1      11.303   5.021  -2.527  0.00  0.00    +0.075 C 
ATOM      8  C   UNL     1      10.701   4.068  -3.562  0.00  0.00    +0.013 C 
ATOM      9  C   UNL     1      12.684   4.574  -2.044  0.00  0.00    +0.013 C 
ATOM     10  C   UNL     1      10.770   2.601  -3.137  0.00  0.00    +0.001 C 
ATOM     11  C   UNL     1      12.743   3.098  -1.651  0.00  0.00    +0.001 C 
ATOM     12  C   UNL     1      12.187   2.196  -2.746  0.00  0.00    +0.000 C 
ENDBRANCH  14   7
ENDBRANCH  21   6
BRANCH  17  15
ATOM     15  C   UNL     1       8.818   6.663   4.927  0.00  0.00    +0.167 C 
BRANCH  15  13
ATOM      1  O   UNL     1       8.235   7.643   7.630  0.00  0.00    -0.369 OA
ATOM      4  O   UNL     1      11.183   5.722   8.445  0.00  0.00    -0.273 OA
ATOM      5  N   UNL     1      10.697   6.912   6.504  0.00  0.00    -0.292 N 
ATOM     13  C   UNL     1       9.683   7.638   5.729  0.00  0.00    +0.135 C 
ATOM     16  C   UNL     1       8.831   8.493   6.658  0.00  0.00    +0.185 C 
ATOM     19  C   UNL     1      10.450   6.478   7.805  0.00  0.00    +0.242 C 
ATOM     20  C   UNL     1       9.214   7.074   8.471  0.00  0.00    +0.255 C 
BRANCH   5  18
ATOM     18  C   UNL     1      11.906   6.495   5.808  0.00  0.00    +0.105 C 
ATOM     26  C   UNL     1      12.539   7.648   5.055  0.00  0.00    +0.024 C 
ENDBRANCH   5  18
ENDBRANCH  15  13
BRANCH  15   2
ATOM      2  O   UNL     1       8.689   5.442   5.648  0.00  0.00    -0.385 OA
ATOM     28  H   UNL     1       7.962   5.522   6.288  0.00  0.00    +0.210 HD
ENDBRANCH  15   2
ENDBRANCH  17  15
TORSDOF 6
ENDMDL
MODEL 5
REMARK VINA RESULT:      -6.1     27.016     29.894
REMARK  Name = 56774551
REMARK  7 active torsions:
REMARK  status: ('A' for Active; 'I' for Inactive)
REMARK    1  A    between atoms: O_2  and  C_15
REMARK    2  A    between atoms: N_5  and  C_18
REMARK    3  A    between atoms: N_6  and  C_21
REMARK    4  A    between atoms: C_7  and  C_14
REMARK    5  A    between atoms: C_13  and  C_15
REMARK    6  A    between atoms: C_15  and  C_17
REMARK    7  A    between atoms: C_18  and  C_26
REMARK                            x       y       z     vdW  Elec       q    Type
REMARK                         _______ _______ _______ _____ _____    ______ ____
ROOT
ATOM     17  C   UNL     1      -6.493 -10.707  17.009  0.00  0.00    -0.017 A 
ATOM     21  C   UNL     1      -4.804 -11.109  14.826  0.00  0.00    +0.033 A 
ATOM     22  C   UNL     1      -6.390  -9.731  16.018  0.00  0.00    +0.008 A 
ATOM     23  C   UNL     1      -5.750 -11.885  16.909  0.00  0.00    +0.008 A 
ATOM     24  C   UNL     1      -5.546  -9.933  14.926  0.00  0.00    +0.023 A 
ATOM     25  C   UNL     1      -4.906 -12.085  15.817  0.00  0.00    +0.023 A 
ENDROOT
BRANCH  21   6
ATOM      3  O   UNL     1      -2.034 -10.063  14.278  0.00  0.00    -0.275 OA
ATOM      6  N   UNL     1      -3.959 -11.311  13.734  0.00  0.00    -0.285 N 
ATOM     14  C   UNL     1      -2.672 -10.795  13.528  0.00  0.00    +0.220 C 
ATOM     27  H   UNL     1      -4.335 -11.916  13.007  0.00  0.00    +0.155 HD
BRANCH  14   7
ATOM      7  C   UNL     1      -2.093 -11.249  12.221  0.00  0.00    +0.075 C 
ATOM      8  C   UNL     1      -1.582 -10.047  11.424  0.00  0.00    +0.013 C 
ATOM      9  C   UNL     1      -3.100 -12.093  11.437  0.00  0.00    +0.013 C 
ATOM     10  C   UNL     1      -2.704  -9.238  10.776  0.00  0.00    +0.001 C 
ATOM     11  C   UNL     1      -4.199 -11.266  10.770  0.00  0.00    +0.001 C 
ATOM     12  C   UNL     1      -3.625 -10.122   9.943  0.00  0.00    +0.000 C 
ENDBRANCH  14   7
ENDBRANCH  21   6
BRANCH  17  15
ATOM     15  C   UNL     1      -7.406 -10.490  18.189  0.00  0.00    +0.167 C 
BRANCH  15  13
ATOM      1  O   UNL     1      -9.353 -10.881  20.349  0.00  0.00    -0.369 OA
ATOM      4  O   UNL     1     -11.544  -9.182  18.036  0.00  0.00    -0.273 OA
ATOM      5  N   UNL     1      -9.793 -10.649  17.590  0.00  0.00    -0.292 N 
ATOM     13  C   UNL     1      -8.644 -11.390  18.124  0.00  0.00    +0.135 C 
ATOM     16  C   UNL     1      -8.982 -11.958  19.497  0.00  0.00    +0.185 C 
ATOM     19  C   UNL     1     -10.668  -9.957  18.424  0.00  0.00    +0.242 C 
ATOM     20  C   UNL     1     -10.550 -10.279  19.910  0.00  0.00    +0.255 C 
BRANCH   5  18
ATOM     18  C   UNL     1      -9.888 -10.506  16.144  0.00  0.00    +0.105 C 
ATOM     26  C   UNL     1      -9.592 -11.812  15.435  0.00  0.00    +0.024 C 
ENDBRANCH   5  18
ENDBRANCH  15  13
BRANCH  15   2
ATOM      2  O   UNL     1      -7.815  -9.127  18.229  0.00  0.00    -0.385 OA
ATOM     28  H   UNL     1      -8.461  -9.006  18.944  0.00  0.00    +0.210 HD
ENDBRANCH  15   2
ENDBRANCH  17  15
TORSDOF 6
ENDMDL
MODEL 6
REMARK VINA RESULT:      -6.1     27.425     30.901
REMARK  Name = 56774551
REMARK  7 active torsions:
REMARK  status: ('A' for Active; 'I' for Inactive)
REMARK    1  A    between atoms: O_2  and  C_15
REMARK    2  A    between atoms: N_5  and  C_18
REMARK    3  A    between atoms: N_6  and  C_21
REMARK    4  A    between atoms: C_7  and  C_14
REMARK    5  A    between atoms: C_13  and  C_15
REMARK    6  A    between atoms: C_15  and  C_17
REMARK    7  A    between atoms: C_18  and  C_26
REMARK                            x       y       z     vdW  Elec       q    Type
REMARK                         _______ _______ _______ _____ _____    ______ ____
ROOT
ATOM     17  C   UNL     1      -4.861 -10.455  16.877  0.00  0.00    -0.017 A 
ATOM     21  C   UNL     1      -7.243 -10.310  18.322  0.00  0.00    +0.033 A 
ATOM     22  C   UNL     1      -5.958  -9.778  16.346  0.00  0.00    +0.008 A 
ATOM     23  C   UNL     1      -4.954 -11.061  18.130  0.00  0.00    +0.008 A 
ATOM     24  C   UNL     1      -7.149  -9.704  17.070  0.00  0.00    +0.023 A 
ATOM     25  C   UNL     1      -6.146 -10.988  18.853  0.00  0.00    +0.023 A 
ENDROOT
BRANCH  21   6
ATOM      3  O   UNL     1      -9.246 -12.450  19.008  0.00  0.00    -0.275 OA
ATOM      6  N   UNL     1      -8.434 -10.237  19.045  0.00  0.00    -0.285 N 
ATOM     14  C   UNL     1      -9.335 -11.271  19.335  0.00  0.00    +0.220 C 
ATOM     27  H   UNL     1      -8.660  -9.313  19.407  0.00  0.00    +0.155 HD
BRANCH  14   7
ATOM      7  C   UNL     1     -10.501 -10.782  20.143  0.00  0.00    +0.075 C 
ATOM      8  C   UNL     1     -11.510 -11.914  20.349  0.00  0.00    +0.013 C 
ATOM      9  C   UNL     1     -11.127  -9.539  19.507  0.00  0.00    +0.013 C 
ATOM     10  C   UNL     1     -12.348 -12.203  19.104  0.00  0.00    +0.001 C 
ATOM     11  C   UNL     1     -11.986  -9.850  18.281  0.00  0.00    +0.001 C 
ATOM     12  C   UNL     1     -13.011 -10.940  18.567  0.00  0.00    +0.000 C 
ENDBRANCH  14   7
ENDBRANCH  21   6
BRANCH  17  15
ATOM     15  C   UNL     1      -3.573 -10.534  16.096  0.00  0.00    +0.167 C 
BRANCH  15  13
ATOM      1  O   UNL     1      -1.483 -11.061  14.106  0.00  0.00    -0.369 OA
ATOM      4  O   UNL     1      -2.652 -14.458  14.480  0.00  0.00    -0.273 OA
ATOM      5  N   UNL     1      -3.857 -12.470  14.595  0.00  0.00    -0.292 N 
ATOM     13  C   UNL     1      -3.807 -11.004  14.658  0.00  0.00    +0.135 C 
ATOM     16  C   UNL     1      -2.724 -10.479  13.726  0.00  0.00    +0.185 C 
ATOM     19  C   UNL     1      -2.711 -13.231  14.375  0.00  0.00    +0.242 C 
ATOM     20  C   UNL     1      -1.492 -12.455  13.890  0.00  0.00    +0.255 C 
BRANCH   5  18
ATOM     18  C   UNL     1      -5.112 -13.118  14.954  0.00  0.00    +0.105 C 
ATOM     26  C   UNL     1      -6.241 -12.683  14.042  0.00  0.00    +0.024 C 
ENDBRANCH   5  18
ENDBRANCH  15  13
BRANCH  15   2
ATOM      2  O   UNL     1      -2.679 -11.430  16.746  0.00  0.00    -0.385 OA
ATOM     28  H   UNL     1      -2.227 -10.965  17.469  0.00  0.00    +0.210 HD
ENDBRANCH  15   2
ENDBRANCH  17  15
TORSDOF 6
ENDMDL
MODEL 7
REMARK VINA RESULT:      -6.1     31.468     33.793
REMARK  Name = 56774551
REMARK  7 active torsions:
REMARK  status: ('A' for Active; 'I' for Inactive)
REMARK    1  A    between atoms: O_2  and  C_15
REMARK    2  A    between atoms: N_5  and  C_18
REMARK    3  A    between atoms: N_6  and  C_21
REMARK    4  A    between atoms: C_7  and  C_14
REMARK    5  A    between atoms: C_13  and  C_15
REMARK    6  A    between atoms: C_15  and  C_17
REMARK    7  A    between atoms: C_18  and  C_26
REMARK                            x       y       z     vdW  Elec       q    Type
REMARK                         _______ _______ _______ _____ _____    ______ ____
ROOT
ATOM     17  C   UNL     1     -15.048   4.643  32.803  0.00  0.00    -0.017 A 
ATOM     21  C   UNL     1     -13.850   6.599  34.391  0.00  0.00    +0.033 A 
ATOM     22  C   UNL     1     -14.903   5.942  32.318  0.00  0.00    +0.008 A 
ATOM     23  C   UNL     1     -14.595   4.321  34.083  0.00  0.00    +0.008 A 
ATOM     24  C   UNL     1     -14.303   6.920  33.112  0.00  0.00    +0.023 A 
ATOM     25  C   UNL     1     -13.996   5.299  34.877  0.00  0.00    +0.023 A 
ENDROOT
BRANCH  21   6
ATOM      3  O   UNL     1     -11.928   8.799  33.665  0.00  0.00    -0.275 OA
ATOM      6  N   UNL     1     -13.251   7.577  35.186  0.00  0.00    -0.285 N 
ATOM     14  C   UNL     1     -12.357   8.582  34.794  0.00  0.00    +0.220 C 
ATOM     27  H   UNL     1     -13.511   7.548  36.170  0.00  0.00    +0.155 HD
BRANCH  14   7
ATOM      7  C   UNL     1     -11.939   9.438  35.953  0.00  0.00    +0.075 C 
ATOM      8  C   UNL     1     -10.660  10.205  35.609  0.00  0.00    +0.013 C 
ATOM      9  C   UNL     1     -11.804   8.606  37.230  0.00  0.00    +0.013 C 
ATOM     10  C   UNL     1      -9.407   9.331  35.656  0.00  0.00    +0.001 C 
ATOM     11  C   UNL     1     -10.531   7.761  37.274  0.00  0.00    +0.001 C 
ATOM     12  C   UNL     1      -9.287   8.592  36.984  0.00  0.00    +0.000 C 
ENDBRANCH  14   7
ENDBRANCH  21   6
BRANCH  17  15
ATOM     15  C   UNL     1     -15.695   3.585  31.945  0.00  0.00    +0.167 C 
BRANCH  15  13
ATOM      1  O   UNL     1     -13.536   1.664  31.437  0.00  0.00    -0.369 OA
ATOM      4  O   UNL     1     -16.012   0.182  29.266  0.00  0.00    -0.273 OA
ATOM      5  N   UNL     1     -15.656   2.427  29.768  0.00  0.00    -0.292 N 
ATOM     13  C   UNL     1     -14.957   3.401  30.616  0.00  0.00    +0.135 C 
ATOM     16  C   UNL     1     -13.518   2.956  30.843  0.00  0.00    +0.185 C 
ATOM     19  C   UNL     1     -15.355   1.067  29.817  0.00  0.00    +0.242 C 
ATOM     20  C   UNL     1     -14.066   0.707  30.547  0.00  0.00    +0.255 C 
BRANCH   5  18
ATOM     18  C   UNL     1     -16.803   2.899  29.004  0.00  0.00    +0.105 C 
ATOM     26  C   UNL     1     -16.447   4.103  28.156  0.00  0.00    +0.024 C 
ENDBRANCH   5  18
ENDBRANCH  15  13
BRANCH  15   2
ATOM      2  O   UNL     1     -17.048   3.945  31.688  0.00  0.00    -0.385 OA
ATOM     28  H   UNL     1     -17.400   4.436  32.449  0.00  0.00    +0.210 HD
ENDBRANCH  15   2
ENDBRANCH  17  15
TORSDOF 6
ENDMDL
MODEL 8
REMARK VINA RESULT:      -6.0     16.755     20.495
REMARK  Name = 56774551
REMARK  7 active torsions:
REMARK  status: ('A' for Active; 'I' for Inactive)
REMARK    1  A    between atoms: O_2  and  C_15
REMARK    2  A    between atoms: N_5  and  C_18
REMARK    3  A    between atoms: N_6  and  C_21
REMARK    4  A    between atoms: C_7  and  C_14
REMARK    5  A    between atoms: C_13  and  C_15
REMARK    6  A    between atoms: C_15  and  C_17
REMARK    7  A    between atoms: C_18  and  C_26
REMARK                            x       y       z     vdW  Elec       q    Type
REMARK                         _______ _______ _______ _____ _____    ______ ____
ROOT
ATOM     17  C   UNL     1      10.829   4.784   0.673  0.00  0.00    -0.017 A 
ATOM     21  C   UNL     1      10.994   5.230   3.422  0.00  0.00    +0.033 A 
ATOM     22  C   UNL     1      11.157   3.735   1.532  0.00  0.00    +0.008 A 
ATOM     23  C   UNL     1      10.584   6.057   1.189  0.00  0.00    +0.008 A 
ATOM     24  C   UNL     1      11.238   3.958   2.907  0.00  0.00    +0.023 A 
ATOM     25  C   UNL     1      10.666   6.279   2.564  0.00  0.00    +0.023 A 
ENDROOT
BRANCH  21   6
ATOM      3  O   UNL     1       8.830   5.377   5.510  0.00  0.00    -0.275 OA
ATOM      6  N   UNL     1      11.075   5.453   4.797  0.00  0.00    -0.285 N 
ATOM     14  C   UNL     1      10.029   5.514   5.727  0.00  0.00    +0.220 C 
ATOM     27  H   UNL     1      12.020   5.580   5.155  0.00  0.00    +0.155 HD
BRANCH  14   7
ATOM      7  C   UNL     1      10.534   5.775   7.116  0.00  0.00    +0.075 C 
ATOM      8  C   UNL     1       9.370   6.138   8.041  0.00  0.00    +0.013 C 
ATOM      9  C   UNL     1      11.639   6.834   7.110  0.00  0.00    +0.013 C 
ATOM     10  C   UNL     1       8.866   7.566   7.834  0.00  0.00    +0.001 C 
ATOM     11  C   UNL     1      11.114   8.258   6.932  0.00  0.00    +0.001 C 
ATOM     12  C   UNL     1      10.000   8.581   7.921  0.00  0.00    +0.000 C 
ENDBRANCH  14   7
ENDBRANCH  21   6
BRANCH  17  15
ATOM     15  C   UNL     1      10.740   4.543  -0.812  0.00  0.00    +0.167 C 
BRANCH  15  13
ATOM      1  O   UNL     1      10.927   3.369  -3.495  0.00  0.00    -0.369 OA
ATOM      4  O   UNL     1      13.807   5.536  -3.722  0.00  0.00    -0.273 OA
ATOM      5  N   UNL     1      12.963   4.406  -1.870  0.00  0.00    -0.292 N 
ATOM     13  C   UNL     1      11.857   3.621  -1.308  0.00  0.00    +0.135 C 
ATOM     16  C   UNL     1      11.336   2.636  -2.347  0.00  0.00    +0.185 C 
ATOM     19  C   UNL     1      13.007   4.743  -3.221  0.00  0.00    +0.242 C 
ATOM     20  C   UNL     1      12.030   3.990  -4.117  0.00  0.00    +0.255 C 
BRANCH   5  18
ATOM     18  C   UNL     1      13.924   4.980  -0.938  0.00  0.00    +0.105 C 
ATOM     26  C   UNL     1      14.495   3.926  -0.011  0.00  0.00    +0.024 C 
ENDBRANCH   5  18
ENDBRANCH  15  13
BRANCH  15   2
ATOM      2  O   UNL     1      10.815   5.788  -1.500  0.00  0.00    -0.385 OA
ATOM     28  H   UNL     1      11.382   6.397  -1.000  0.00  0.00    +0.210 HD
ENDBRANCH  15   2
ENDBRANCH  17  15
TORSDOF 6
ENDMDL
MODEL 9
REMARK VINA RESULT:      -5.9     23.387     25.333
REMARK  Name = 56774551
REMARK  7 active torsions:
REMARK  status: ('A' for Active; 'I' for Inactive)
REMARK    1  A    between atoms: O_2  and  C_15
REMARK    2  A    between atoms: N_5  and  C_18
REMARK    3  A    between atoms: N_6  and  C_21
REMARK    4  A    between atoms: C_7  and  C_14
REMARK    5  A    between atoms: C_13  and  C_15
REMARK    6  A    between atoms: C_15  and  C_17
REMARK    7  A    between atoms: C_18  and  C_26
REMARK                            x       y       z     vdW  Elec       q    Type
REMARK                         _______ _______ _______ _____ _____    ______ ____
ROOT
ATOM     17  C   UNL     1      -0.069  11.862  36.016  0.00  0.00    -0.017 A 
ATOM     21  C   UNL     1      -0.552  10.124  38.143  0.00  0.00    +0.033 A 
ATOM     22  C   UNL     1      -0.194  10.493  35.783  0.00  0.00    +0.008 A 
ATOM     23  C   UNL     1      -0.185  12.363  37.313  0.00  0.00    +0.008 A 
ATOM     24  C   UNL     1      -0.437   9.624  36.847  0.00  0.00    +0.023 A 
ATOM     25  C   UNL     1      -0.427  11.493  38.377  0.00  0.00    +0.023 A 
ENDROOT
BRANCH  21   6
ATOM      3  O   UNL     1      -2.889   8.306  38.690  0.00  0.00    -0.275 OA
ATOM      6  N   UNL     1      -0.794   9.255  39.208  0.00  0.00    -0.285 N 
ATOM     14  C   UNL     1      -1.907   8.429  39.415  0.00  0.00    +0.220 C 
ATOM     27  H   UNL     1      -0.059   9.224  39.912  0.00  0.00    +0.155 HD
BRANCH  14   7
ATOM      7  C   UNL     1      -1.788   7.642  40.688  0.00  0.00    +0.075 C 
ATOM      8  C   UNL     1      -0.321   7.306  40.964  0.00  0.00    +0.013 C 
ATOM      9  C   UNL     1      -2.683   6.402  40.653  0.00  0.00    +0.013 C 
ATOM     10  C   UNL     1       0.210   6.176  40.083  0.00  0.00    +0.001 C 
ATOM     11  C   UNL     1      -2.123   5.271  39.791  0.00  0.00    +0.001 C 
ATOM     12  C   UNL     1      -0.680   4.941  40.156  0.00  0.00    +0.000 C 
ENDBRANCH  14   7
ENDBRANCH  21   6
BRANCH  17  15
ATOM     15  C   UNL     1       0.192  12.802  34.866  0.00  0.00    +0.167 C 
BRANCH  15  13
ATOM      1  O   UNL     1       0.463  15.236  33.250  0.00  0.00    -0.369 OA
ATOM      4  O   UNL     1      -2.513  13.940  31.665  0.00  0.00    -0.273 OA
ATOM      5  N   UNL     1      -1.849  13.784  33.891  0.00  0.00    -0.292 N 
ATOM     13  C   UNL     1      -0.775  13.989  34.870  0.00  0.00    +0.135 C 
ATOM     16  C   UNL     1      -0.044  15.293  34.577  0.00  0.00    +0.185 C 
ATOM     19  C   UNL     1      -1.732  14.227  32.574  0.00  0.00    +0.242 C 
ATOM     20  C   UNL     1      -0.587  15.199  32.309  0.00  0.00    +0.255 C 
BRANCH   5  18
ATOM     18  C   UNL     1      -2.968  12.940  34.285  0.00  0.00    +0.105 C 
ATOM     26  C   UNL     1      -3.475  13.300  35.666  0.00  0.00    +0.024 C 
ENDBRANCH   5  18
ENDBRANCH  15  13
BRANCH  15   2
ATOM      2  O   UNL     1       0.066  12.094  33.637  0.00  0.00    -0.385 OA
ATOM     28  H   UNL     1      -0.776  11.609  33.631  0.00  0.00    +0.210 HD
ENDBRANCH  15   2
ENDBRANCH  17  15
TORSDOF 6
ENDMDL
MODEL 10
REMARK VINA RESULT:      -5.9     16.445     20.398
REMARK  Name = 56774551
REMARK  7 active torsions:
REMARK  status: ('A' for Active; 'I' for Inactive)
REMARK    1  A    between atoms: O_2  and  C_15
REMARK    2  A    between atoms: N_5  and  C_18
REMARK    3  A    between atoms: N_6  and  C_21
REMARK    4  A    between atoms: C_7  and  C_14
REMARK    5  A    between atoms: C_13  and  C_15
REMARK    6  A    between atoms: C_15  and  C_17
REMARK    7  A    between atoms: C_18  and  C_26
REMARK                            x       y       z     vdW  Elec       q    Type
REMARK                         _______ _______ _______ _____ _____    ______ ____
ROOT
ATOM     17  C   UNL     1      11.309   5.626   3.655  0.00  0.00    -0.017 A 
ATOM     21  C   UNL     1      11.573   4.920   0.969  0.00  0.00    +0.033 A 
ATOM     22  C   UNL     1      11.803   6.552   2.736  0.00  0.00    +0.008 A 
ATOM     23  C   UNL     1      10.948   4.347   3.231  0.00  0.00    +0.008 A 
ATOM     24  C   UNL     1      11.934   6.199   1.392  0.00  0.00    +0.023 A 
ATOM     25  C   UNL     1      11.080   3.994   1.888  0.00  0.00    +0.023 A 
ENDROOT
BRANCH  21   6
ATOM      3  O   UNL     1       9.548   4.920  -1.259  0.00  0.00    -0.275 OA
ATOM      6  N   UNL     1      11.705   4.567  -0.375  0.00  0.00    -0.285 N 
ATOM     14  C   UNL     1      10.722   4.584  -1.374  0.00  0.00    +0.220 C 
ATOM     27  H   UNL     1      12.638   4.267  -0.649  0.00  0.00    +0.155 HD
BRANCH  14   7
ATOM      7  C   UNL     1      11.266   4.128  -2.696  0.00  0.00    +0.075 C 
ATOM      8  C   UNL     1      10.306   4.517  -3.823  0.00  0.00    +0.013 C 
ATOM      9  C   UNL     1      11.578   2.630  -2.675  0.00  0.00    +0.013 C 
ATOM     10  C   UNL     1       9.071   3.621  -3.893  0.00  0.00    +0.001 C 
ATOM     11  C   UNL     1      10.333   1.748  -2.777  0.00  0.00    +0.001 C 
ATOM     12  C   UNL     1       9.450   2.145  -3.953  0.00  0.00    +0.000 C 
ENDBRANCH  14   7
ENDBRANCH  21   6
BRANCH  17  15
ATOM     15  C   UNL     1      11.166   6.008   5.106  0.00  0.00    +0.167 C 
BRANCH  15  13
ATOM      1  O   UNL     1      10.174   5.155   7.733  0.00  0.00    -0.369 OA
ATOM      4  O   UNL     1       9.367   8.662   8.035  0.00  0.00    -0.273 OA
ATOM      5  N   UNL     1       9.345   7.309   6.141  0.00  0.00    -0.292 N 
ATOM     13  C   UNL     1       9.702   6.012   5.553  0.00  0.00    +0.135 C 
ATOM     16  C   UNL     1       9.428   4.894   6.550  0.00  0.00    +0.185 C 
ATOM     19  C   UNL     1       9.483   7.555   7.506  0.00  0.00    +0.242 C 
ATOM     20  C   UNL     1       9.712   6.323   8.374  0.00  0.00    +0.255 C 
BRANCH   5  18
ATOM     18  C   UNL     1       9.014   8.395   5.229  0.00  0.00    +0.105 C 
ATOM     26  C   UNL     1       8.104   7.924   4.112  0.00  0.00    +0.024 C 
ENDBRANCH   5  18
ENDBRANCH  15  13
BRANCH  15   2
ATOM      2  O   UNL     1      11.727   7.300   5.315  0.00  0.00    -0.385 OA
ATOM     28  H   UNL     1      11.014   7.959   5.339  0.00  0.00    +0.210 HD
ENDBRANCH  15   2
ENDBRANCH  17  15
TORSDOF 6
ENDMDL
