MODEL 1
REMARK VINA RESULT:      -6.2      0.000      0.000
REMARK  Name = 7143738
REMARK  4 active torsions:
REMARK  status: ('A' for Active; 'I' for Inactive)
REMARK    1  A    between atoms: O_4  and  C_19
REMARK    2  A    between atoms: O_4  and  C_23
REMARK    3  A    between atoms: C_16  and  C_19
REMARK    4  A    between atoms: C_17  and  C_20
REMARK                            x       y       z     vdW  Elec       q    Type
REMARK                         _______ _______ _______ _____ _____    ______ ____
ROOT
ATOM      2  O   UNL     1      -8.236 -10.464  13.657  0.00  0.00    -0.267 OA
ATOM      3  O   UNL     1      -5.375 -14.963  14.069  0.00  0.00    -0.272 OA
ATOM      5  N   UNL     1      -3.997 -13.097  14.216  0.00  0.00    -0.298 N 
ATOM      6  N   UNL     1      -5.951 -10.574  14.112  0.00  0.00    -0.311 N 
ATOM      7  C   UNL     1      -4.244 -11.405  12.394  0.00  0.00    +0.027 C 
ATOM      8  C   UNL     1      -3.488 -10.696  14.624  0.00  0.00    +0.054 C 
ATOM      9  C   UNL     1      -3.270 -10.491  13.127  0.00  0.00    +0.018 C 
ATOM     10  C   UNL     1      -3.988 -12.876  12.768  0.00  0.00    +0.113 C 
ATOM     11  C   UNL     1      -5.676 -10.967  12.724  0.00  0.00    +0.130 C 
ATOM     12  C   UNL     1      -3.176 -12.159  14.995  0.00  0.00    +0.117 C 
ATOM     13  C   UNL     1      -4.913 -10.358  15.020  0.00  0.00    +0.027 A 
ATOM     14  C   UNL     1      -5.179  -9.882  16.247  0.00  0.00    +0.022 A 
ATOM     15  C   UNL     1      -7.297 -10.319  14.442  0.00  0.00    +0.259 A 
ATOM     16  C   UNL     1      -4.691 -14.187  14.741  0.00  0.00    +0.253 C 
ATOM     17  C   UNL     1      -7.568  -9.822  15.836  0.00  0.00    +0.047 A 
ATOM     18  C   UNL     1      -6.529  -9.617  16.659  0.00  0.00    +0.015 A 
ENDROOT
BRANCH  17  20
ATOM      1 CL   UNL     1     -13.150  -8.794  17.735  0.00  0.00    -0.084 Cl
ATOM     20  C   UNL     1      -8.942  -9.569  16.303  0.00  0.00    -0.013 A 
ATOM     21  C   UNL     1      -9.437  -8.264  16.345  0.00  0.00    +0.010 A 
ATOM     22  C   UNL     1      -9.750 -10.633  16.705  0.00  0.00    +0.010 A 
ATOM     24  C   UNL     1     -10.737  -8.026  16.788  0.00  0.00    +0.020 A 
ATOM     25  C   UNL     1     -11.052 -10.394  17.147  0.00  0.00    +0.020 A 
ATOM     26  C   UNL     1     -11.545  -9.089  17.189  0.00  0.00    +0.041 A 
ENDBRANCH  17  20
BRANCH  16  19
ATOM     19  C   UNL     1      -4.582 -14.402  16.230  0.00  0.00    +0.324 C 
BRANCH  19   4
ATOM      4  O   UNL     1      -5.843 -14.096  16.773  0.00  0.00    -0.483 OA
BRANCH   4  23
ATOM     23  C   UNL     1      -5.882 -13.193  17.812  0.00  0.00    +0.121 A 
ATOM     27  C   UNL     1      -4.694 -12.719  18.348  0.00  0.00    +0.045 A 
ATOM     28  C   UNL     1      -7.109 -12.771  18.304  0.00  0.00    +0.045 A 
ATOM     29  C   UNL     1      -4.732 -11.805  19.400  0.00  0.00    +0.004 A 
ATOM     30  C   UNL     1      -7.147 -11.857  19.357  0.00  0.00    +0.004 A 
ATOM     31  C   UNL     1      -5.959 -11.373  19.905  0.00  0.00    +0.000 A 
ENDBRANCH   4  23
ENDBRANCH  19   4
ENDBRANCH  16  19
TORSDOF 4
ENDMDL
MODEL 2
REMARK VINA RESULT:      -6.1      3.780      7.935
REMARK  Name = 7143738
REMARK  4 active torsions:
REMARK  status: ('A' for Active; 'I' for Inactive)
REMARK    1  A    between atoms: O_4  and  C_19
REMARK    2  A    between atoms: O_4  and  C_23
REMARK    3  A    between atoms: C_16  and  C_19
REMARK    4  A    between atoms: C_17  and  C_20
REMARK                            x       y       z     vdW  Elec       q    Type
REMARK                         _______ _______ _______ _____ _____    ______ ____
ROOT
ATOM      2  O   UNL     1      -4.520 -14.859  15.290  0.00  0.00    -0.267 OA
ATOM      3  O   UNL     1      -8.345 -11.237  14.368  0.00  0.00    -0.272 OA
ATOM      5  N   UNL     1      -6.782 -10.414  15.877  0.00  0.00    -0.298 N 
ATOM      6  N   UNL     1      -4.545 -12.679  16.121  0.00  0.00    -0.311 N 
ATOM      7  C   UNL     1      -6.271 -11.879  17.835  0.00  0.00    +0.027 C 
ATOM      8  C   UNL     1      -4.563 -10.319  16.999  0.00  0.00    +0.054 C 
ATOM      9  C   UNL     1      -5.182 -10.903  18.267  0.00  0.00    +0.018 C 
ATOM     10  C   UNL     1      -7.347 -11.155  17.007  0.00  0.00    +0.113 C 
ATOM     11  C   UNL     1      -5.622 -13.030  17.056  0.00  0.00    +0.130 C 
ATOM     12  C   UNL     1      -5.639  -9.550  16.206  0.00  0.00    +0.117 C 
ATOM     13  C   UNL     1      -3.965 -11.409  16.130  0.00  0.00    +0.027 A 
ATOM     14  C   UNL     1      -2.903 -11.147  15.352  0.00  0.00    +0.022 A 
ATOM     15  C   UNL     1      -4.058 -13.716  15.300  0.00  0.00    +0.259 A 
ATOM     16  C   UNL     1      -7.385 -10.505  14.623  0.00  0.00    +0.253 C 
ATOM     17  C   UNL     1      -2.890 -13.383  14.412  0.00  0.00    +0.047 A 
ATOM     18  C   UNL     1      -2.364 -12.151  14.477  0.00  0.00    +0.015 A 
ENDROOT
BRANCH  17  20
ATOM      1 CL   UNL     1      -0.620 -17.421  10.623  0.00  0.00    -0.084 Cl
ATOM     20  C   UNL     1      -2.332 -14.377  13.480  0.00  0.00    -0.013 A 
ATOM     21  C   UNL     1      -1.214 -15.129  13.847  0.00  0.00    +0.010 A 
ATOM     22  C   UNL     1      -2.918 -14.568  12.228  0.00  0.00    +0.010 A 
ATOM     24  C   UNL     1      -0.685 -16.069  12.964  0.00  0.00    +0.020 A 
ATOM     25  C   UNL     1      -2.389 -15.510  11.345  0.00  0.00    +0.020 A 
ATOM     26  C   UNL     1      -1.272 -16.260  11.713  0.00  0.00    +0.041 A 
ENDBRANCH  17  20
BRANCH  16  19
ATOM     19  C   UNL     1      -6.802  -9.646  13.529  0.00  0.00    +0.324 C 
BRANCH  19   4
ATOM      4  O   UNL     1      -5.726 -10.368  12.982  0.00  0.00    -0.483 OA
BRANCH   4  23
ATOM     23  C   UNL     1      -5.133  -9.858  11.848  0.00  0.00    +0.121 A 
ATOM     27  C   UNL     1      -3.860 -10.280  11.497  0.00  0.00    +0.045 A 
ATOM     28  C   UNL     1      -5.821  -8.933  11.077  0.00  0.00    +0.045 A 
ATOM     29  C   UNL     1      -3.258  -9.764  10.349  0.00  0.00    +0.004 A 
ATOM     30  C   UNL     1      -5.219  -8.417   9.929  0.00  0.00    +0.004 A 
ATOM     31  C   UNL     1      -3.939  -8.832   9.565  0.00  0.00    +0.000 A 
ENDBRANCH   4  23
ENDBRANCH  19   4
ENDBRANCH  16  19
TORSDOF 4
ENDMDL
MODEL 3
REMARK VINA RESULT:      -6.1     20.454     23.577
REMARK  Name = 7143738
REMARK  4 active torsions:
REMARK  status: ('A' for Active; 'I' for Inactive)
REMARK    1  A    between atoms: O_4  and  C_19
REMARK    2  A    between atoms: O_4  and  C_23
REMARK    3  A    between atoms: C_16  and  C_19
REMARK    4  A    between atoms: C_17  and  C_20
REMARK                            x       y       z     vdW  Elec       q    Type
REMARK                         _______ _______ _______ _____ _____    ______ ____
ROOT
ATOM      2  O   UNL     1       9.306  -9.568  32.942  0.00  0.00    -0.267 OA
ATOM      3  O   UNL     1       8.663  -7.639  37.888  0.00  0.00    -0.272 OA
ATOM      5  N   UNL     1       8.403  -5.954  36.309  0.00  0.00    -0.298 N 
ATOM      6  N   UNL     1       8.666  -7.388  33.468  0.00  0.00    -0.311 N 
ATOM      7  C   UNL     1      10.239  -5.733  34.628  0.00  0.00    +0.027 C 
ATOM      8  C   UNL     1       7.954  -5.040  34.039  0.00  0.00    +0.054 C 
ATOM      9  C   UNL     1       9.428  -4.668  33.900  0.00  0.00    +0.018 C 
ATOM     10  C   UNL     1       9.846  -5.788  36.115  0.00  0.00    +0.113 C 
ATOM     11  C   UNL     1      10.027  -7.080  33.927  0.00  0.00    +0.130 C 
ATOM     12  C   UNL     1       7.559  -5.037  35.529  0.00  0.00    +0.117 C 
ATOM     13  C   UNL     1       7.675  -6.404  33.436  0.00  0.00    +0.027 A 
ATOM     14  C   UNL     1       6.474  -6.674  32.900  0.00  0.00    +0.022 A 
ATOM     15  C   UNL     1       8.447  -8.685  32.962  0.00  0.00    +0.259 A 
ATOM     16  C   UNL     1       7.936  -6.879  37.243  0.00  0.00    +0.253 C 
ATOM     17  C   UNL     1       7.080  -8.969  32.402  0.00  0.00    +0.047 A 
ATOM     18  C   UNL     1       6.174  -7.979  32.382  0.00  0.00    +0.015 A 
ENDROOT
BRANCH  17  20
ATOM      1 CL   UNL     1       5.645 -14.396  30.325  0.00  0.00    -0.084 Cl
ATOM     20  C   UNL     1       6.726 -10.304  31.891  0.00  0.00    -0.013 A 
ATOM     21  C   UNL     1       6.315 -11.305  32.774  0.00  0.00    +0.010 A 
ATOM     22  C   UNL     1       6.803 -10.572  30.524  0.00  0.00    +0.010 A 
ATOM     24  C   UNL     1       5.981 -12.569  32.290  0.00  0.00    +0.020 A 
ATOM     25  C   UNL     1       6.468 -11.837  30.039  0.00  0.00    +0.020 A 
ATOM     26  C   UNL     1       6.058 -12.835  30.923  0.00  0.00    +0.041 A 
ENDBRANCH  17  20
BRANCH  16  19
ATOM     19  C   UNL     1       6.444  -6.932  37.451  0.00  0.00    +0.324 C 
BRANCH  19   4
ATOM      4  O   UNL     1       6.120  -8.279  37.701  0.00  0.00    -0.483 OA
BRANCH   4  23
ATOM     23  C   UNL     1       5.010  -8.791  37.066  0.00  0.00    +0.121 A 
ATOM     27  C   UNL     1       5.084  -9.112  35.719  0.00  0.00    +0.045 A 
ATOM     28  C   UNL     1       3.840  -8.977  37.786  0.00  0.00    +0.045 A 
ATOM     29  C   UNL     1       3.961  -9.631  35.075  0.00  0.00    +0.004 A 
ATOM     30  C   UNL     1       2.716  -9.495  37.142  0.00  0.00    +0.004 A 
ATOM     31  C   UNL     1       2.776  -9.823  35.787  0.00  0.00    +0.000 A 
ENDBRANCH   4  23
ENDBRANCH  19   4
ENDBRANCH  16  19
TORSDOF 4
ENDMDL
MODEL 4
REMARK VINA RESULT:      -6.1     27.146     29.101
REMARK  Name = 7143738
REMARK  4 active torsions:
REMARK  status: ('A' for Active; 'I' for Inactive)
REMARK    1  A    between atoms: O_4  and  C_19
REMARK    2  A    between atoms: O_4  and  C_23
REMARK    3  A    between atoms: C_16  and  C_19
REMARK    4  A    between atoms: C_17  and  C_20
REMARK                            x       y       z     vdW  Elec       q    Type
REMARK                         _______ _______ _______ _____ _____    ______ ____
ROOT
ATOM      2  O   UNL     1      12.087   7.844   2.246  0.00  0.00    -0.267 OA
ATOM      3  O   UNL     1      12.822   5.603  -2.553  0.00  0.00    -0.272 OA
ATOM      5  N   UNL     1      13.388   4.118  -0.858  0.00  0.00    -0.298 N 
ATOM      6  N   UNL     1      12.705   5.626   1.872  0.00  0.00    -0.311 N 
ATOM      7  C   UNL     1      14.972   4.979   0.871  0.00  0.00    +0.027 C 
ATOM      8  C   UNL     1      13.352   3.227   1.465  0.00  0.00    +0.054 C 
ATOM      9  C   UNL     1      14.794   3.688   1.661  0.00  0.00    +0.018 C 
ATOM     10  C   UNL     1      14.692   4.741  -0.623  0.00  0.00    +0.113 C 
ATOM     11  C   UNL     1      14.051   6.052   1.465  0.00  0.00    +0.130 C 
ATOM     12  C   UNL     1      13.101   2.938  -0.029  0.00  0.00    +0.117 C 
ATOM     13  C   UNL     1      12.371   4.273   1.958  0.00  0.00    +0.027 A 
ATOM     14  C   UNL     1      11.176   3.904   2.447  0.00  0.00    +0.022 A 
ATOM     15  C   UNL     1      11.815   6.642   2.274  0.00  0.00    +0.259 A 
ATOM     16  C   UNL     1      12.561   4.611  -1.868  0.00  0.00    +0.253 C 
ATOM     17  C   UNL     1      10.470   6.199   2.783  0.00  0.00    +0.047 A 
ATOM     18  C   UNL     1      10.212   4.885   2.860  0.00  0.00    +0.015 A 
ENDROOT
BRANCH  17  20
ATOM      1 CL   UNL     1       6.307  10.177   4.418  0.00  0.00    -0.084 Cl
ATOM     20  C   UNL     1       9.446   7.178   3.186  0.00  0.00    -0.013 A 
ATOM     21  C   UNL     1       8.871   8.020   2.232  0.00  0.00    +0.010 A 
ATOM     22  C   UNL     1       9.049   7.266   4.521  0.00  0.00    +0.010 A 
ATOM     24  C   UNL     1       7.901   8.947   2.613  0.00  0.00    +0.020 A 
ATOM     25  C   UNL     1       8.078   8.192   4.902  0.00  0.00    +0.020 A 
ATOM     26  C   UNL     1       7.505   9.034   3.948  0.00  0.00    +0.041 A 
ENDBRANCH  17  20
BRANCH  16  19
ATOM     19  C   UNL     1      11.273   3.865  -2.110  0.00  0.00    +0.324 C 
BRANCH  19   4
ATOM      4  O   UNL     1      10.327   4.395  -1.215  0.00  0.00    -0.483 OA
BRANCH   4  23
ATOM     23  C   UNL     1       9.586   5.474  -1.644  0.00  0.00    +0.121 A 
ATOM     27  C   UNL     1       9.695   6.685  -0.976  0.00  0.00    +0.045 A 
ATOM     28  C   UNL     1       8.744   5.332  -2.736  0.00  0.00    +0.045 A 
ATOM     29  C   UNL     1       8.946   7.777  -1.408  0.00  0.00    +0.004 A 
ATOM     30  C   UNL     1       7.993   6.425  -3.169  0.00  0.00    +0.004 A 
ATOM     31  C   UNL     1       8.094   7.648  -2.506  0.00  0.00    +0.000 A 
ENDBRANCH   4  23
ENDBRANCH  19   4
ENDBRANCH  16  19
TORSDOF 4
ENDMDL
MODEL 5
REMARK VINA RESULT:      -5.9     26.185     28.805
REMARK  Name = 7143738
REMARK  4 active torsions:
REMARK  status: ('A' for Active; 'I' for Inactive)
REMARK    1  A    between atoms: O_4  and  C_19
REMARK    2  A    between atoms: O_4  and  C_23
REMARK    3  A    between atoms: C_16  and  C_19
REMARK    4  A    between atoms: C_17  and  C_20
REMARK                            x       y       z     vdW  Elec       q    Type
REMARK                         _______ _______ _______ _____ _____    ______ ____
ROOT
ATOM      2  O   UNL     1       9.776   7.154   2.054  0.00  0.00    -0.267 OA
ATOM      3  O   UNL     1      12.278   9.912   5.893  0.00  0.00    -0.272 OA
ATOM      5  N   UNL     1      10.657   8.519   6.806  0.00  0.00    -0.298 N 
ATOM      6  N   UNL     1       9.444   6.882   4.347  0.00  0.00    -0.311 N 
ATOM      7  C   UNL     1       8.373   8.692   5.807  0.00  0.00    +0.027 C 
ATOM      8  C   UNL     1       9.103   6.576   6.823  0.00  0.00    +0.054 C 
ATOM      9  C   UNL     1       7.918   7.526   6.675  0.00  0.00    +0.018 C 
ATOM     10  C   UNL     1       9.557   9.424   6.464  0.00  0.00    +0.113 C 
ATOM     11  C   UNL     1       8.727   8.162   4.412  0.00  0.00    +0.130 C 
ATOM     12  C   UNL     1      10.263   7.303   7.532  0.00  0.00    +0.117 C 
ATOM     13  C   UNL     1       9.567   6.065   5.472  0.00  0.00    +0.027 A 
ATOM     14  C   UNL     1      10.120   4.846   5.363  0.00  0.00    +0.022 A 
ATOM     15  C   UNL     1       9.899   6.476   3.076  0.00  0.00    +0.259 A 
ATOM     16  C   UNL     1      11.969   8.885   6.504  0.00  0.00    +0.253 C 
ATOM     17  C   UNL     1      10.547   5.121   2.992  0.00  0.00    +0.047 A 
ATOM     18  C   UNL     1      10.621   4.373   4.103  0.00  0.00    +0.015 A 
ENDROOT
BRANCH  17  20
ATOM      1 CL   UNL     1      12.794   3.070  -2.163  0.00  0.00    -0.084 Cl
ATOM     20  C   UNL     1      11.100   4.616   1.723  0.00  0.00    -0.013 A 
ATOM     21  C   UNL     1      10.349   4.703   0.550  0.00  0.00    +0.010 A 
ATOM     22  C   UNL     1      12.375   4.051   1.693  0.00  0.00    +0.010 A 
ATOM     24  C   UNL     1      10.872   4.225  -0.651  0.00  0.00    +0.020 A 
ATOM     25  C   UNL     1      12.899   3.573   0.491  0.00  0.00    +0.020 A 
ATOM     26  C   UNL     1      12.147   3.660  -0.681  0.00  0.00    +0.041 A 
ENDBRANCH  17  20
BRANCH  16  19
ATOM     19  C   UNL     1      13.055   7.945   6.964  0.00  0.00    +0.324 C 
BRANCH  19   4
ATOM      4  O   UNL     1      13.174   6.954   5.972  0.00  0.00    -0.483 OA
BRANCH   4  23
ATOM     23  C   UNL     1      14.040   7.203   4.930  0.00  0.00    +0.121 A 
ATOM     27  C   UNL     1      15.328   7.640   5.204  0.00  0.00    +0.045 A 
ATOM     28  C   UNL     1      13.609   7.012   3.626  0.00  0.00    +0.045 A 
ATOM     29  C   UNL     1      16.205   7.893   4.150  0.00  0.00    +0.004 A 
ATOM     30  C   UNL     1      14.486   7.265   2.571  0.00  0.00    +0.004 A 
ATOM     31  C   UNL     1      15.784   7.705   2.833  0.00  0.00    +0.000 A 
ENDBRANCH   4  23
ENDBRANCH  19   4
ENDBRANCH  16  19
TORSDOF 4
ENDMDL
MODEL 6
REMARK VINA RESULT:      -5.9     25.412     28.588
REMARK  Name = 7143738
REMARK  4 active torsions:
REMARK  status: ('A' for Active; 'I' for Inactive)
REMARK    1  A    between atoms: O_4  and  C_19
REMARK    2  A    between atoms: O_4  and  C_23
REMARK    3  A    between atoms: C_16  and  C_19
REMARK    4  A    between atoms: C_17  and  C_20
REMARK                            x       y       z     vdW  Elec       q    Type
REMARK                         _______ _______ _______ _____ _____    ______ ____
ROOT
ATOM      2  O   UNL     1       8.422   6.905   4.423  0.00  0.00    -0.267 OA
ATOM      3  O   UNL     1       9.994   4.125   0.134  0.00  0.00    -0.272 OA
ATOM      5  N   UNL     1      11.222   6.087   0.336  0.00  0.00    -0.298 N 
ATOM      6  N   UNL     1      10.214   7.460   3.037  0.00  0.00    -0.311 N 
ATOM      7  C   UNL     1       9.897   8.188   0.602  0.00  0.00    +0.027 C 
ATOM      8  C   UNL     1      12.161   8.045   1.550  0.00  0.00    +0.054 C 
ATOM      9  C   UNL     1      11.191   8.965   0.812  0.00  0.00    +0.018 C 
ATOM     10  C   UNL     1      10.157   6.919  -0.229  0.00  0.00    +0.113 C 
ATOM     11  C   UNL     1       9.287   7.864   1.971  0.00  0.00    +0.130 C 
ATOM     12  C   UNL     1      12.457   6.805   0.684  0.00  0.00    +0.117 C 
ATOM     13  C   UNL     1      11.594   7.614   2.889  0.00  0.00    +0.027 A 
ATOM     14  C   UNL     1      12.415   7.352   3.919  0.00  0.00    +0.022 A 
ATOM     15  C   UNL     1       9.636   7.019   4.244  0.00  0.00    +0.259 A 
ATOM     16  C   UNL     1      11.040   4.708   0.432  0.00  0.00    +0.253 C 
ATOM     17  C   UNL     1      10.583   6.698   5.368  0.00  0.00    +0.047 A 
ATOM     18  C   UNL     1      11.898   6.882   5.174  0.00  0.00    +0.015 A 
ENDROOT
BRANCH  17  20
ATOM      1 CL   UNL     1       8.586   4.611  10.609  0.00  0.00    -0.084 Cl
ATOM     20  C   UNL     1      10.092   6.184   6.658  0.00  0.00    -0.013 A 
ATOM     21  C   UNL     1       9.553   7.062   7.600  0.00  0.00    +0.010 A 
ATOM     22  C   UNL     1      10.165   4.820   6.940  0.00  0.00    +0.010 A 
ATOM     24  C   UNL     1       9.088   6.575   8.821  0.00  0.00    +0.020 A 
ATOM     25  C   UNL     1       9.698   4.333   8.161  0.00  0.00    +0.020 A 
ATOM     26  C   UNL     1       9.160   5.211   9.103  0.00  0.00    +0.041 A 
ENDBRANCH  17  20
BRANCH  16  19
ATOM     19  C   UNL     1      12.212   3.906   0.941  0.00  0.00    +0.324 C 
BRANCH  19   4
ATOM      4  O   UNL     1      12.761   3.245  -0.173  0.00  0.00    -0.483 OA
BRANCH   4  23
ATOM     23  C   UNL     1      13.924   3.757  -0.702  0.00  0.00    +0.121 A 
ATOM     27  C   UNL     1      15.050   3.863   0.102  0.00  0.00    +0.045 A 
ATOM     28  C   UNL     1      13.951   4.156  -2.030  0.00  0.00    +0.045 A 
ATOM     29  C   UNL     1      16.228   4.381  -0.433  0.00  0.00    +0.004 A 
ATOM     30  C   UNL     1      15.130   4.675  -2.565  0.00  0.00    +0.004 A 
ATOM     31  C   UNL     1      16.269   4.787  -1.767  0.00  0.00    +0.000 A 
ENDBRANCH   4  23
ENDBRANCH  19   4
ENDBRANCH  16  19
TORSDOF 4
ENDMDL
MODEL 7
REMARK VINA RESULT:      -5.9     26.167     29.495
REMARK  Name = 7143738
REMARK  4 active torsions:
REMARK  status: ('A' for Active; 'I' for Inactive)
REMARK    1  A    between atoms: O_4  and  C_19
REMARK    2  A    between atoms: O_4  and  C_23
REMARK    3  A    between atoms: C_16  and  C_19
REMARK    4  A    between atoms: C_17  and  C_20
REMARK                            x       y       z     vdW  Elec       q    Type
REMARK                         _______ _______ _______ _____ _____    ______ ____
ROOT
ATOM      2  O   UNL     1      14.090   6.629   7.254  0.00  0.00    -0.267 OA
ATOM      3  O   UNL     1      10.475   3.766   4.547  0.00  0.00    -0.272 OA
ATOM      5  N   UNL     1       9.530   5.729   5.355  0.00  0.00    -0.298 N 
ATOM      6  N   UNL     1      11.914   7.314   6.770  0.00  0.00    -0.311 N 
ATOM      7  C   UNL     1       9.856   6.182   7.790  0.00  0.00    +0.027 C 
ATOM      8  C   UNL     1       9.570   8.059   6.228  0.00  0.00    +0.054 C 
ATOM      9  C   UNL     1       9.194   7.543   7.614  0.00  0.00    +0.018 C 
ATOM     10  C   UNL     1       9.367   5.200   6.711  0.00  0.00    +0.113 C 
ATOM     11  C   UNL     1      11.378   6.365   7.755  0.00  0.00    +0.130 C 
ATOM     12  C   UNL     1       9.027   7.096   5.153  0.00  0.00    +0.117 C 
ATOM     13  C   UNL     1      11.074   8.194   6.084  0.00  0.00    +0.027 A 
ATOM     14  C   UNL     1      11.596   9.133   5.279  0.00  0.00    +0.022 A 
ATOM     15  C   UNL     1      13.316   7.365   6.639  0.00  0.00    +0.259 A 
ATOM     16  C   UNL     1      10.058   4.912   4.356  0.00  0.00    +0.253 C 
ATOM     17  C   UNL     1      13.870   8.404   5.702  0.00  0.00    +0.047 A 
ATOM     18  C   UNL     1      13.015   9.233   5.084  0.00  0.00    +0.015 A 
ENDROOT
BRANCH  17  20
ATOM      1 CL   UNL     1      19.752   8.854   4.692  0.00  0.00    -0.084 Cl
ATOM     20  C   UNL     1      15.317   8.514   5.454  0.00  0.00    -0.013 A 
ATOM     21  C   UNL     1      16.098   9.366   6.237  0.00  0.00    +0.010 A 
ATOM     22  C   UNL     1      15.910   7.768   4.434  0.00  0.00    +0.010 A 
ATOM     24  C   UNL     1      17.468   9.471   6.001  0.00  0.00    +0.020 A 
ATOM     25  C   UNL     1      17.281   7.872   4.199  0.00  0.00    +0.020 A 
ATOM     26  C   UNL     1      18.060   8.725   4.983  0.00  0.00    +0.041 A 
ENDBRANCH  17  20
BRANCH  16  19
ATOM     19  C   UNL     1      10.115   5.495   2.966  0.00  0.00    +0.324 C 
BRANCH  19   4
ATOM      4  O   UNL     1      10.706   4.518   2.144  0.00  0.00    -0.483 OA
BRANCH   4  23
ATOM     23  C   UNL     1      12.071   4.574   1.976  0.00  0.00    +0.121 A 
ATOM     27  C   UNL     1      12.727   5.786   2.131  0.00  0.00    +0.045 A 
ATOM     28  C   UNL     1      12.767   3.418   1.655  0.00  0.00    +0.045 A 
ATOM     29  C   UNL     1      14.110   5.845   1.961  0.00  0.00    +0.004 A 
ATOM     30  C   UNL     1      14.150   3.477   1.484  0.00  0.00    +0.004 A 
ATOM     31  C   UNL     1      14.822   4.689   1.638  0.00  0.00    +0.000 A 
ENDBRANCH   4  23
ENDBRANCH  19   4
ENDBRANCH  16  19
TORSDOF 4
ENDMDL
MODEL 8
REMARK VINA RESULT:      -5.8     30.324     32.917
REMARK  Name = 7143738
REMARK  4 active torsions:
REMARK  status: ('A' for Active; 'I' for Inactive)
REMARK    1  A    between atoms: O_4  and  C_19
REMARK    2  A    between atoms: O_4  and  C_23
REMARK    3  A    between atoms: C_16  and  C_19
REMARK    4  A    between atoms: C_17  and  C_20
REMARK                            x       y       z     vdW  Elec       q    Type
REMARK                         _______ _______ _______ _____ _____    ______ ____
ROOT
ATOM      2  O   UNL     1      18.770  -7.485  -1.577  0.00  0.00    -0.267 OA
ATOM      3  O   UNL     1      18.846  -6.865  -6.888  0.00  0.00    -0.272 OA
ATOM      5  N   UNL     1      16.973  -5.842  -5.968  0.00  0.00    -0.298 N 
ATOM      6  N   UNL     1      17.255  -6.210  -2.809  0.00  0.00    -0.311 N 
ATOM      7  C   UNL     1      15.587  -7.257  -4.446  0.00  0.00    +0.027 C 
ATOM      8  C   UNL     1      15.633  -4.817  -4.140  0.00  0.00    +0.054 C 
ATOM      9  C   UNL     1      14.723  -6.043  -4.124  0.00  0.00    +0.018 C 
ATOM     10  C   UNL     1      16.239  -7.102  -5.831  0.00  0.00    +0.113 C 
ATOM     11  C   UNL     1      16.629  -7.431  -3.335  0.00  0.00    +0.130 C 
ATOM     12  C   UNL     1      16.236  -4.641  -5.547  0.00  0.00    +0.117 C 
ATOM     13  C   UNL     1      16.744  -4.947  -3.116  0.00  0.00    +0.027 A 
ATOM     14  C   UNL     1      17.255  -3.853  -2.529  0.00  0.00    +0.022 A 
ATOM     15  C   UNL     1      18.316  -6.385  -1.899  0.00  0.00    +0.259 A 
ATOM     16  C   UNL     1      18.245  -5.845  -6.541  0.00  0.00    +0.253 C 
ATOM     17  C   UNL     1      18.893  -5.138  -1.286  0.00  0.00    +0.047 A 
ATOM     18  C   UNL     1      18.350  -3.954  -1.605  0.00  0.00    +0.015 A 
ENDROOT
BRANCH  17  20
ATOM      1 CL   UNL     1      23.536  -5.394   2.482  0.00  0.00    -0.084 Cl
ATOM     20  C   UNL     1      20.036  -5.201  -0.359  0.00  0.00    -0.013 A 
ATOM     21  C   UNL     1      21.315  -5.478  -0.844  0.00  0.00    +0.010 A 
ATOM     22  C   UNL     1      19.841  -4.984   1.006  0.00  0.00    +0.010 A 
ATOM     24  C   UNL     1      22.396  -5.538   0.034  0.00  0.00    +0.020 A 
ATOM     25  C   UNL     1      20.923  -5.043   1.884  0.00  0.00    +0.020 A 
ATOM     26  C   UNL     1      22.201  -5.321   1.398  0.00  0.00    +0.041 A 
ENDBRANCH  17  20
BRANCH  16  19
ATOM     19  C   UNL     1      18.904  -4.501  -6.730  0.00  0.00    +0.324 C 
BRANCH  19   4
ATOM      4  O   UNL     1      20.069  -4.510  -5.943  0.00  0.00    -0.483 OA
BRANCH   4  23
ATOM     23  C   UNL     1      20.228  -3.486  -5.036  0.00  0.00    +0.121 A 
ATOM     27  C   UNL     1      19.399  -2.376  -5.110  0.00  0.00    +0.045 A 
ATOM     28  C   UNL     1      21.212  -3.582  -4.064  0.00  0.00    +0.045 A 
ATOM     29  C   UNL     1      19.558  -1.338  -4.193  0.00  0.00    +0.004 A 
ATOM     30  C   UNL     1      21.373  -2.543  -3.147  0.00  0.00    +0.004 A 
ATOM     31  C   UNL     1      20.545  -1.422  -3.210  0.00  0.00    +0.000 A 
ENDBRANCH   4  23
ENDBRANCH  19   4
ENDBRANCH  16  19
TORSDOF 4
ENDMDL
MODEL 9
REMARK VINA RESULT:      -5.8     22.208     24.613
REMARK  Name = 7143738
REMARK  4 active torsions:
REMARK  status: ('A' for Active; 'I' for Inactive)
REMARK    1  A    between atoms: O_4  and  C_19
REMARK    2  A    between atoms: O_4  and  C_23
REMARK    3  A    between atoms: C_16  and  C_19
REMARK    4  A    between atoms: C_17  and  C_20
REMARK                            x       y       z     vdW  Elec       q    Type
REMARK                         _______ _______ _______ _____ _____    ______ ____
ROOT
ATOM      2  O   UNL     1      -6.565   9.643   5.686  0.00  0.00    -0.267 OA
ATOM      3  O   UNL     1      -2.992  12.000   2.480  0.00  0.00    -0.272 OA
ATOM      5  N   UNL     1      -1.924  10.737   4.112  0.00  0.00    -0.298 N 
ATOM      6  N   UNL     1      -4.256   9.318   5.768  0.00  0.00    -0.311 N 
ATOM      7  C   UNL     1      -2.630  11.168   6.469  0.00  0.00    +0.027 C 
ATOM      8  C   UNL     1      -1.766   8.954   5.839  0.00  0.00    +0.054 C 
ATOM      9  C   UNL     1      -1.743  10.019   6.933  0.00  0.00    +0.018 C 
ATOM     10  C   UNL     1      -2.104  11.757   5.148  0.00  0.00    +0.113 C 
ATOM     11  C   UNL     1      -4.071  10.659   6.340  0.00  0.00    +0.130 C 
ATOM     12  C   UNL     1      -1.185   9.539   4.536  0.00  0.00    +0.117 C 
ATOM     13  C   UNL     1      -3.176   8.452   5.594  0.00  0.00    +0.027 A 
ATOM     14  C   UNL     1      -3.383   7.190   5.183  0.00  0.00    +0.022 A 
ATOM     15  C   UNL     1      -5.583   8.919   5.511  0.00  0.00    +0.259 A 
ATOM     16  C   UNL     1      -2.374  10.986   2.815  0.00  0.00    +0.253 C 
ATOM     17  C   UNL     1      -5.781   7.511   5.017  0.00  0.00    +0.047 A 
ATOM     18  C   UNL     1      -4.707   6.719   4.887  0.00  0.00    +0.015 A 
ENDROOT
BRANCH  17  20
ATOM      1 CL   UNL     1     -11.223   5.450   3.619  0.00  0.00    -0.084 Cl
ATOM     20  C   UNL     1      -7.120   7.004   4.673  0.00  0.00    -0.013 A 
ATOM     21  C   UNL     1      -7.776   7.477   3.535  0.00  0.00    +0.010 A 
ATOM     22  C   UNL     1      -7.736   6.050   5.485  0.00  0.00    +0.010 A 
ATOM     24  C   UNL     1      -9.043   6.996   3.210  0.00  0.00    +0.020 A 
ATOM     25  C   UNL     1      -9.004   5.569   5.159  0.00  0.00    +0.020 A 
ATOM     26  C   UNL     1      -9.658   6.043   4.021  0.00  0.00    +0.041 A 
ENDBRANCH  17  20
BRANCH  16  19
ATOM     19  C   UNL     1      -2.075   9.929   1.782  0.00  0.00    +0.324 C 
BRANCH  19   4
ATOM      4  O   UNL     1      -3.250   9.762   1.027  0.00  0.00    -0.483 OA
BRANCH   4  23
ATOM     23  C   UNL     1      -3.170   9.994  -0.328  0.00  0.00    +0.121 A 
ATOM     27  C   UNL     1      -1.926  10.161  -0.918  0.00  0.00    +0.045 A 
ATOM     28  C   UNL     1      -4.334  10.057  -1.079  0.00  0.00    +0.045 A 
ATOM     29  C   UNL     1      -1.843  10.397  -2.289  0.00  0.00    +0.004 A 
ATOM     30  C   UNL     1      -4.251  10.293  -2.452  0.00  0.00    +0.004 A 
ATOM     31  C   UNL     1      -3.006  10.462  -3.057  0.00  0.00    +0.000 A 
ENDBRANCH   4  23
ENDBRANCH  19   4
ENDBRANCH  16  19
TORSDOF 4
ENDMDL
MODEL 10
REMARK VINA RESULT:      -5.8      3.957      6.331
REMARK  Name = 7143738
REMARK  4 active torsions:
REMARK  status: ('A' for Active; 'I' for Inactive)
REMARK    1  A    between atoms: O_4  and  C_19
REMARK    2  A    between atoms: O_4  and  C_23
REMARK    3  A    between atoms: C_16  and  C_19
REMARK    4  A    between atoms: C_17  and  C_20
REMARK                            x       y       z     vdW  Elec       q    Type
REMARK                         _______ _______ _______ _____ _____    ______ ____
ROOT
ATOM      2  O   UNL     1      -4.754 -13.126   9.799  0.00  0.00    -0.267 OA
ATOM      3  O   UNL     1      -6.100 -12.566  14.945  0.00  0.00    -0.272 OA
ATOM      5  N   UNL     1      -3.822 -12.216  14.649  0.00  0.00    -0.298 N 
ATOM      6  N   UNL     1      -3.318 -12.440  11.504  0.00  0.00    -0.311 N 
ATOM      7  C   UNL     1      -2.591 -13.997  13.402  0.00  0.00    +0.027 C 
ATOM      8  C   UNL     1      -1.774 -11.679  13.342  0.00  0.00    +0.054 C 
ATOM      9  C   UNL     1      -1.334 -13.138  13.438  0.00  0.00    +0.018 C 
ATOM     10  C   UNL     1      -3.518 -13.648  14.580  0.00  0.00    +0.113 C 
ATOM     11  C   UNL     1      -3.283 -13.804  12.047  0.00  0.00    +0.130 C 
ATOM     12  C   UNL     1      -2.656 -11.325  14.556  0.00  0.00    +0.117 C 
ATOM     13  C   UNL     1      -2.539 -11.422  12.058  0.00  0.00    +0.027 A 
ATOM     14  C   UNL     1      -2.493 -10.214  11.473  0.00  0.00    +0.022 A 
ATOM     15  C   UNL     1      -4.084 -12.243  10.337  0.00  0.00    +0.259 A 
ATOM     16  C   UNL     1      -5.135 -11.801  14.870  0.00  0.00    +0.253 C 
ATOM     17  C   UNL     1      -4.041 -10.869   9.725  0.00  0.00    +0.047 A 
ATOM     18  C   UNL     1      -3.261  -9.936  10.292  0.00  0.00    +0.015 A 
ENDROOT
BRANCH  17  20
ATOM      1 CL   UNL     1      -7.288  -9.529   4.879  0.00  0.00    -0.084 Cl
ATOM     20  C   UNL     1      -4.840 -10.539   8.532  0.00  0.00    -0.013 A 
ATOM     21  C   UNL     1      -5.879  -9.612   8.622  0.00  0.00    +0.010 A 
ATOM     22  C   UNL     1      -4.559 -11.154   7.311  0.00  0.00    +0.010 A 
ATOM     24  C   UNL     1      -6.635  -9.300   7.493  0.00  0.00    +0.020 A 
ATOM     25  C   UNL     1      -5.315 -10.841   6.182  0.00  0.00    +0.020 A 
ATOM     26  C   UNL     1      -6.354  -9.915   6.273  0.00  0.00    +0.041 A 
ENDBRANCH  17  20
BRANCH  16  19
ATOM     19  C   UNL     1      -5.358 -10.317  15.017  0.00  0.00    +0.324 C 
BRANCH  19   4
ATOM      4  O   UNL     1      -4.825  -9.952  16.266  0.00  0.00    -0.483 OA
BRANCH   4  23
ATOM     23  C   UNL     1      -5.491 -10.387  17.390  0.00  0.00    +0.121 A 
ATOM     27  C   UNL     1      -6.843 -10.108  17.531  0.00  0.00    +0.045 A 
ATOM     28  C   UNL     1      -4.800 -11.097  18.360  0.00  0.00    +0.045 A 
ATOM     29  C   UNL     1      -7.519 -10.548  18.668  0.00  0.00    +0.004 A 
ATOM     30  C   UNL     1      -5.476 -11.537  19.498  0.00  0.00    +0.004 A 
ATOM     31  C   UNL     1      -6.835 -11.263  19.653  0.00  0.00    +0.000 A 
ENDBRANCH   4  23
ENDBRANCH  19   4
ENDBRANCH  16  19
TORSDOF 4
ENDMDL
