MODEL 1
REMARK VINA RESULT:      -7.3      0.000      0.000
REMARK  Name = 26742858
REMARK  5 active torsions:
REMARK  status: ('A' for Active; 'I' for Inactive)
REMARK    1  A    between atoms: N_8  and  C_21
REMARK    2  A    between atoms: N_9  and  C_23
REMARK    3  A    between atoms: N_10  and  C_27
REMARK    4  A    between atoms: C_21  and  C_23
REMARK    5  A    between atoms: C_30  and  C_33
REMARK                            x       y       z     vdW  Elec       q    Type
REMARK                         _______ _______ _______ _____ _____    ______ ____
ROOT
ATOM      4  O   UNL     1      14.235   4.327  -3.445  0.00  0.00    -0.276 OA
ATOM      5  O   UNL     1      10.633   3.690   2.395  0.00  0.00    -0.252 OA
ATOM      7  N   UNL     1      12.787   4.441   2.022  0.00  0.00    -0.285 N 
ATOM      8  N   UNL     1      13.625   6.298  -2.383  0.00  0.00    -0.300 N 
ATOM     10  N   UNL     1      11.218   5.811   3.128  0.00  0.00    -0.269 N 
ATOM     12  C   UNL     1      14.393   5.836   0.741  0.00  0.00    +0.011 C 
ATOM     13  C   UNL     1      14.804   4.567  -0.046  0.00  0.00    +0.004 C 
ATOM     14  C   UNL     1      13.675   3.518  -0.075  0.00  0.00    +0.023 C 
ATOM     15  C   UNL     1      13.874   5.425   2.133  0.00  0.00    +0.113 C 
ATOM     16  C   UNL     1      13.362   6.740   0.039  0.00  0.00    +0.024 C 
ATOM     17  C   UNL     1      15.392   4.852  -1.434  0.00  0.00    +0.100 C 
ATOM     18  C   UNL     1      13.170   3.208   1.334  0.00  0.00    +0.109 C 
ATOM     19  C   UNL     1      13.838   7.266  -1.310  0.00  0.00    +0.108 C 
ATOM     20  C   UNL     1      14.368   5.130  -2.517  0.00  0.00    +0.216 C 
ATOM     22  C   UNL     1      11.475   4.582   2.521  0.00  0.00    +0.306 C 
ATOM     34  H   UNL     1      11.741   6.620   2.808  0.00  0.00    +0.156 HD
ENDROOT
BRANCH  10  27
ATOM     27  C   UNL     1      10.311   6.075   4.184  0.00  0.00    +0.035 A 
ATOM     28  C   UNL     1      10.545   5.546   5.453  0.00  0.00    +0.035 A 
ATOM     29  C   UNL     1       9.185   6.865   3.955  0.00  0.00    +0.023 A 
ATOM     30  C   UNL     1       9.653   5.808   6.493  0.00  0.00    +0.057 A 
ATOM     31  C   UNL     1       8.292   7.126   4.994  0.00  0.00    +0.002 A 
ATOM     32  C   UNL     1       8.526   6.598   6.264  0.00  0.00    +0.012 A 
BRANCH  30  33
ATOM      1  F   UNL     1      11.152   5.529   8.318  0.00  0.00    -0.166 F 
ATOM      2  F   UNL     1       9.040   5.707   8.803  0.00  0.00    -0.166 F 
ATOM      3  F   UNL     1       9.793   3.882   7.905  0.00  0.00    -0.166 F 
ATOM     33  C   UNL     1       9.902   5.243   7.850  0.00  0.00    +0.417 C 
ENDBRANCH  30  33
ENDBRANCH  10  27
BRANCH   8  21
ATOM     21  C   UNL     1      12.563   6.600  -3.333  0.00  0.00    +0.126 C 
BRANCH  21  23
ATOM     23  C   UNL     1      11.190   6.238  -2.792  0.00  0.00    +0.128 C 
BRANCH  23   9
ATOM      6  O   UNL     1      10.421   4.052  -0.879  0.00  0.00    -0.253 OA
ATOM      9  N   UNL     1      10.854   4.864  -3.051  0.00  0.00    -0.283 N 
ATOM     11  N   UNL     1      10.222   2.710  -2.788  0.00  0.00    -0.298 N 
ATOM     24  C   UNL     1      10.766   4.327  -4.398  0.00  0.00    +0.128 C 
ATOM     25  C   UNL     1      10.454   2.851  -4.202  0.00  0.00    +0.124 C 
ATOM     26  C   UNL     1      10.492   3.900  -2.091  0.00  0.00    +0.302 C 
ATOM     35  H   UNL     1       9.943   1.844  -2.337  0.00  0.00    +0.150 HD
ENDBRANCH  23   9
ENDBRANCH  21  23
ENDBRANCH   8  21
TORSDOF 5
ENDMDL
MODEL 2
REMARK VINA RESULT:      -7.2     23.514     26.899
REMARK  Name = 26742858
REMARK  5 active torsions:
REMARK  status: ('A' for Active; 'I' for Inactive)
REMARK    1  A    between atoms: N_8  and  C_21
REMARK    2  A    between atoms: N_9  and  C_23
REMARK    3  A    between atoms: N_10  and  C_27
REMARK    4  A    between atoms: C_21  and  C_23
REMARK    5  A    between atoms: C_30  and  C_33
REMARK                            x       y       z     vdW  Elec       q    Type
REMARK                         _______ _______ _______ _____ _____    ______ ____
ROOT
ATOM      4  O   UNL     1      -1.449 -10.607  16.152  0.00  0.00    -0.276 OA
ATOM      5  O   UNL     1      -4.196  -8.271  10.280  0.00  0.00    -0.252 OA
ATOM      7  N   UNL     1      -3.584 -10.407  10.918  0.00  0.00    -0.285 N 
ATOM      8  N   UNL     1      -3.628 -11.260  15.695  0.00  0.00    -0.300 N 
ATOM     10  N   UNL     1      -5.790  -9.954  10.216  0.00  0.00    -0.269 N 
ATOM     12  C   UNL     1      -3.576 -12.237  12.596  0.00  0.00    +0.011 C 
ATOM     13  C   UNL     1      -2.138 -11.814  12.989  0.00  0.00    +0.004 C 
ATOM     14  C   UNL     1      -1.872 -10.329  12.678  0.00  0.00    +0.023 C 
ATOM     15  C   UNL     1      -3.839 -11.840  11.130  0.00  0.00    +0.113 C 
ATOM     16  C   UNL     1      -4.694 -11.687  13.502  0.00  0.00    +0.024 C 
ATOM     17  C   UNL     1      -1.736 -12.209  14.416  0.00  0.00    +0.100 C 
ATOM     18  C   UNL     1      -2.214  -9.996  11.226  0.00  0.00    +0.109 C 
ATOM     19  C   UNL     1      -4.556 -12.114  14.959  0.00  0.00    +0.108 C 
ATOM     20  C   UNL     1      -2.250 -11.285  15.503  0.00  0.00    +0.216 C 
ATOM     22  C   UNL     1      -4.509  -9.452  10.444  0.00  0.00    +0.306 C 
ATOM     34  H   UNL     1      -6.099 -10.744  10.774  0.00  0.00    +0.156 HD
ENDROOT
BRANCH  10  27
ATOM     27  C   UNL     1      -6.731  -9.504   9.258  0.00  0.00    +0.035 A 
ATOM     28  C   UNL     1      -6.446  -9.608   7.897  0.00  0.00    +0.035 A 
ATOM     29  C   UNL     1      -7.944  -8.958   9.676  0.00  0.00    +0.023 A 
ATOM     30  C   UNL     1      -7.373  -9.166   6.953  0.00  0.00    +0.057 A 
ATOM     31  C   UNL     1      -8.872  -8.515   8.733  0.00  0.00    +0.002 A 
ATOM     32  C   UNL     1      -8.586  -8.619   7.372  0.00  0.00    +0.012 A 
BRANCH  30  33
ATOM      1  F   UNL     1      -6.791  -8.069   4.926  0.00  0.00    -0.166 F 
ATOM      2  F   UNL     1      -5.990 -10.069   5.223  0.00  0.00    -0.166 F 
ATOM      3  F   UNL     1      -8.093  -9.802   4.762  0.00  0.00    -0.166 F 
ATOM     33  C   UNL     1      -7.069  -9.277   5.498  0.00  0.00    +0.417 C 
ENDBRANCH  30  33
ENDBRANCH  10  27
BRANCH   8  21
ATOM     21  C   UNL     1      -4.213 -10.341  16.661  0.00  0.00    +0.126 C 
BRANCH  21  23
ATOM     23  C   UNL     1      -4.685 -11.053  17.918  0.00  0.00    +0.128 C 
BRANCH  23   9
ATOM      6  O   UNL     1      -6.131 -11.148  20.551  0.00  0.00    -0.253 OA
ATOM      9  N   UNL     1      -6.056 -10.749  18.227  0.00  0.00    -0.283 N 
ATOM     11  N   UNL     1      -7.992 -10.402  19.341  0.00  0.00    -0.298 N 
ATOM     24  C   UNL     1      -6.983 -10.242  17.229  0.00  0.00    +0.128 C 
ATOM     25  C   UNL     1      -8.309 -10.124  17.964  0.00  0.00    +0.124 C 
ATOM     26  C   UNL     1      -6.656 -10.810  19.499  0.00  0.00    +0.302 C 
ATOM     35  H   UNL     1      -8.662 -10.359  20.102  0.00  0.00    +0.150 HD
ENDBRANCH  23   9
ENDBRANCH  21  23
ENDBRANCH   8  21
TORSDOF 5
ENDMDL
MODEL 3
REMARK VINA RESULT:      -7.1     25.170     29.138
REMARK  Name = 26742858
REMARK  5 active torsions:
REMARK  status: ('A' for Active; 'I' for Inactive)
REMARK    1  A    between atoms: N_8  and  C_21
REMARK    2  A    between atoms: N_9  and  C_23
REMARK    3  A    between atoms: N_10  and  C_27
REMARK    4  A    between atoms: C_21  and  C_23
REMARK    5  A    between atoms: C_30  and  C_33
REMARK                            x       y       z     vdW  Elec       q    Type
REMARK                         _______ _______ _______ _____ _____    ______ ____
ROOT
ATOM      4  O   UNL     1      -9.630 -10.591  20.463  0.00  0.00    -0.276 OA
ATOM      5  O   UNL     1      -4.044  -9.687  16.532  0.00  0.00    -0.252 OA
ATOM      7  N   UNL     1      -5.151 -11.615  17.164  0.00  0.00    -0.285 N 
ATOM      8  N   UNL     1      -9.861 -11.080  18.207  0.00  0.00    -0.300 N 
ATOM     10  N   UNL     1      -4.826 -11.117  14.882  0.00  0.00    -0.269 N 
ATOM     12  C   UNL     1      -7.261 -12.887  17.474  0.00  0.00    +0.011 C 
ATOM     13  C   UNL     1      -7.196 -12.546  18.983  0.00  0.00    +0.004 C 
ATOM     14  C   UNL     1      -6.404 -11.251  19.246  0.00  0.00    +0.023 C 
ATOM     15  C   UNL     1      -5.833 -12.889  16.892  0.00  0.00    +0.113 C 
ATOM     16  C   UNL     1      -8.173 -11.976  16.632  0.00  0.00    +0.024 C 
ATOM     17  C   UNL     1      -8.558 -12.569  19.690  0.00  0.00    +0.100 C 
ATOM     18  C   UNL     1      -5.026 -11.301  18.588  0.00  0.00    +0.109 C 
ATOM     19  C   UNL     1      -9.628 -11.989  17.087  0.00  0.00    +0.108 C 
ATOM     20  C   UNL     1      -9.400 -11.323  19.497  0.00  0.00    +0.216 C 
ATOM     22  C   UNL     1      -4.618 -10.728  16.205  0.00  0.00    +0.306 C 
ATOM     34  H   UNL     1      -5.648 -11.676  14.672  0.00  0.00    +0.156 HD
ENDROOT
BRANCH  10  27
ATOM     27  C   UNL     1      -3.998 -10.845  13.765  0.00  0.00    +0.035 A 
ATOM     28  C   UNL     1      -4.523 -10.191  12.650  0.00  0.00    +0.035 A 
ATOM     29  C   UNL     1      -2.658 -11.230  13.781  0.00  0.00    +0.023 A 
ATOM     30  C   UNL     1      -3.707  -9.922  11.551  0.00  0.00    +0.057 A 
ATOM     31  C   UNL     1      -1.842 -10.961  12.683  0.00  0.00    +0.002 A 
ATOM     32  C   UNL     1      -2.366 -10.307  11.568  0.00  0.00    +0.012 A 
BRANCH  30  33
ATOM      1  F   UNL     1      -4.843  -8.027  10.673  0.00  0.00    -0.166 F 
ATOM      2  F   UNL     1      -3.332  -8.939   9.404  0.00  0.00    -0.166 F 
ATOM      3  F   UNL     1      -5.233  -9.937   9.710  0.00  0.00    -0.166 F 
ATOM     33  C   UNL     1      -4.266  -9.223  10.359  0.00  0.00    +0.417 C 
ENDBRANCH  30  33
ENDBRANCH  10  27
BRANCH   8  21
ATOM     21  C   UNL     1     -10.606  -9.863  17.916  0.00  0.00    +0.126 C 
BRANCH  21  23
ATOM     23  C   UNL     1      -9.714  -8.763  17.365  0.00  0.00    +0.128 C 
BRANCH  23   9
ATOM      6  O   UNL     1     -10.316  -9.347  14.479  0.00  0.00    -0.253 OA
ATOM      9  N   UNL     1     -10.393  -7.959  16.386  0.00  0.00    -0.283 N 
ATOM     11  N   UNL     1     -11.357  -7.249  14.468  0.00  0.00    -0.298 N 
ATOM     24  C   UNL     1     -10.993  -6.677  16.714  0.00  0.00    +0.128 C 
ATOM     25  C   UNL     1     -11.535  -6.158  15.391  0.00  0.00    +0.124 C 
ATOM     26  C   UNL     1     -10.645  -8.314  15.046  0.00  0.00    +0.302 C 
ATOM     35  H   UNL     1     -11.663  -7.235  13.500  0.00  0.00    +0.150 HD
ENDBRANCH  23   9
ENDBRANCH  21  23
ENDBRANCH   8  21
TORSDOF 5
ENDMDL
MODEL 4
REMARK VINA RESULT:      -7.0      2.470      4.470
REMARK  Name = 26742858
REMARK  5 active torsions:
REMARK  status: ('A' for Active; 'I' for Inactive)
REMARK    1  A    between atoms: N_8  and  C_21
REMARK    2  A    between atoms: N_9  and  C_23
REMARK    3  A    between atoms: N_10  and  C_27
REMARK    4  A    between atoms: C_21  and  C_23
REMARK    5  A    between atoms: C_30  and  C_33
REMARK                            x       y       z     vdW  Elec       q    Type
REMARK                         _______ _______ _______ _____ _____    ______ ____
ROOT
ATOM      4  O   UNL     1      14.078   5.274  -2.139  0.00  0.00    -0.276 OA
ATOM      5  O   UNL     1       9.510   6.871   2.766  0.00  0.00    -0.252 OA
ATOM      7  N   UNL     1      10.516   4.859   2.235  0.00  0.00    -0.285 N 
ATOM      8  N   UNL     1      14.838   5.189   0.052  0.00  0.00    -0.300 N 
ATOM     10  N   UNL     1      10.703   5.752   4.410  0.00  0.00    -0.269 N 
ATOM     12  C   UNL     1      12.546   3.546   1.668  0.00  0.00    +0.011 C 
ATOM     13  C   UNL     1      12.124   3.617   0.179  0.00  0.00    +0.004 C 
ATOM     14  C   UNL     1      11.244   4.848  -0.112  0.00  0.00    +0.023 C 
ATOM     15  C   UNL     1      11.290   3.651   2.556  0.00  0.00    +0.113 C 
ATOM     16  C   UNL     1      13.591   4.589   2.105  0.00  0.00    +0.024 C 
ATOM     17  C   UNL     1      13.288   3.466  -0.810  0.00  0.00    +0.100 C 
ATOM     18  C   UNL     1      10.056   4.918   0.847  0.00  0.00    +0.109 C 
ATOM     19  C   UNL     1      14.903   4.492   1.334  0.00  0.00    +0.108 C 
ATOM     20  C   UNL     1      14.103   4.725  -1.034  0.00  0.00    +0.216 C 
ATOM     22  C   UNL     1      10.183   5.903   3.125  0.00  0.00    +0.306 C 
ATOM     34  H   UNL     1      11.571   5.237   4.516  0.00  0.00    +0.156 HD
ENDROOT
BRANCH  10  27
ATOM     27  C   UNL     1      10.143   6.219   5.624  0.00  0.00    +0.035 A 
ATOM     28  C   UNL     1      10.065   5.370   6.728  0.00  0.00    +0.035 A 
ATOM     29  C   UNL     1       9.670   7.527   5.716  0.00  0.00    +0.023 A 
ATOM     30  C   UNL     1       9.514   5.830   7.925  0.00  0.00    +0.057 A 
ATOM     31  C   UNL     1       9.118   7.987   6.912  0.00  0.00    +0.002 A 
ATOM     32  C   UNL     1       9.040   7.139   8.016  0.00  0.00    +0.012 A 
BRANCH  30  33
ATOM      1  F   UNL     1       9.431   3.604   8.756  0.00  0.00    -0.166 F 
ATOM      2  F   UNL     1      10.466   5.071   9.983  0.00  0.00    -0.166 F 
ATOM      3  F   UNL     1       8.301   5.103   9.854  0.00  0.00    -0.166 F 
ATOM     33  C   UNL     1       9.430   4.923   9.105  0.00  0.00    +0.417 C 
ENDBRANCH  30  33
ENDBRANCH  10  27
BRANCH   8  21
ATOM     21  C   UNL     1      15.583   6.436  -0.051  0.00  0.00    +0.126 C 
BRANCH  21  23
ATOM     23  C   UNL     1      14.768   7.631   0.415  0.00  0.00    +0.128 C 
BRANCH  23   9
ATOM      6  O   UNL     1      12.868   8.154   2.685  0.00  0.00    -0.253 OA
ATOM      9  N   UNL     1      15.042   7.968   1.786  0.00  0.00    -0.283 N 
ATOM     11  N   UNL     1      14.796   8.459   3.978  0.00  0.00    -0.298 N 
ATOM     24  C   UNL     1      16.394   8.035   2.314  0.00  0.00    +0.128 C 
ATOM     25  C   UNL     1      16.219   8.479   3.758  0.00  0.00    +0.124 C 
ATOM     26  C   UNL     1      14.086   8.189   2.796  0.00  0.00    +0.302 C 
ATOM     35  H   UNL     1      14.352   8.664   4.868  0.00  0.00    +0.150 HD
ENDBRANCH  23   9
ENDBRANCH  21  23
ENDBRANCH   8  21
TORSDOF 5
ENDMDL
MODEL 5
REMARK VINA RESULT:      -7.0     23.954     25.509
REMARK  Name = 26742858
REMARK  5 active torsions:
REMARK  status: ('A' for Active; 'I' for Inactive)
REMARK    1  A    between atoms: N_8  and  C_21
REMARK    2  A    between atoms: N_9  and  C_23
REMARK    3  A    between atoms: N_10  and  C_27
REMARK    4  A    between atoms: C_21  and  C_23
REMARK    5  A    between atoms: C_30  and  C_33
REMARK                            x       y       z     vdW  Elec       q    Type
REMARK                         _______ _______ _______ _____ _____    ______ ____
ROOT
ATOM      4  O   UNL     1      -8.045 -10.843   6.972  0.00  0.00    -0.276 OA
ATOM      5  O   UNL     1      -3.900 -12.636  12.176  0.00  0.00    -0.252 OA
ATOM      7  N   UNL     1      -3.661 -11.019  10.541  0.00  0.00    -0.285 N 
ATOM      8  N   UNL     1      -7.797  -9.293   8.681  0.00  0.00    -0.300 N 
ATOM     10  N   UNL     1      -3.563 -10.435  12.824  0.00  0.00    -0.269 N 
ATOM     12  C   UNL     1      -4.595  -9.140   9.213  0.00  0.00    +0.011 C 
ATOM     13  C   UNL     1      -4.841 -10.137   8.053  0.00  0.00    +0.004 C 
ATOM     14  C   UNL     1      -5.005 -11.582   8.563  0.00  0.00    +0.023 C 
ATOM     15  C   UNL     1      -3.422  -9.645  10.076  0.00  0.00    +0.113 C 
ATOM     16  C   UNL     1      -5.819  -8.852  10.103  0.00  0.00    +0.024 C 
ATOM     17  C   UNL     1      -5.954  -9.713   7.087  0.00  0.00    +0.100 C 
ATOM     18  C   UNL     1      -3.836 -11.990   9.460  0.00  0.00    +0.109 C 
ATOM     19  C   UNL     1      -6.998  -8.261   9.337  0.00  0.00    +0.108 C 
ATOM     20  C   UNL     1      -7.363 -10.005   7.568  0.00  0.00    +0.216 C 
ATOM     22  C   UNL     1      -3.711 -11.453  11.883  0.00  0.00    +0.306 C 
ATOM     34  H   UNL     1      -3.869  -9.501  12.569  0.00  0.00    +0.156 HD
ENDROOT
BRANCH  10  27
ATOM     27  C   UNL     1      -2.999 -10.537  14.119  0.00  0.00    +0.035 A 
ATOM     28  C   UNL     1      -3.804 -10.879  15.206  0.00  0.00    +0.035 A 
ATOM     29  C   UNL     1      -1.639 -10.297  14.308  0.00  0.00    +0.023 A 
ATOM     30  C   UNL     1      -3.248 -10.982  16.481  0.00  0.00    +0.057 A 
ATOM     31  C   UNL     1      -1.082 -10.398  15.584  0.00  0.00    +0.002 A 
ATOM     32  C   UNL     1      -1.887 -10.740  16.670  0.00  0.00    +0.012 A 
BRANCH  30  33
ATOM      1  F   UNL     1      -4.853 -10.297  18.097  0.00  0.00    -0.166 F 
ATOM      2  F   UNL     1      -5.004 -12.340  17.370  0.00  0.00    -0.166 F 
ATOM      3  F   UNL     1      -3.404 -11.791  18.727  0.00  0.00    -0.166 F 
ATOM     33  C   UNL     1      -4.108 -11.347  17.644  0.00  0.00    +0.417 C 
ENDBRANCH  30  33
ENDBRANCH  10  27
BRANCH   8  21
ATOM     21  C   UNL     1      -9.105  -9.570   9.259  0.00  0.00    +0.126 C 
BRANCH  21  23
ATOM     23  C   UNL     1      -9.833  -8.300   9.666  0.00  0.00    +0.128 C 
BRANCH  23   9
ATOM      6  O   UNL     1      -9.329  -5.590   8.468  0.00  0.00    -0.253 OA
ATOM      9  N   UNL     1     -10.463  -7.658   8.544  0.00  0.00    -0.283 N 
ATOM     11  N   UNL     1     -10.992  -6.172   6.925  0.00  0.00    -0.298 N 
ATOM     24  C   UNL     1     -11.463  -8.325   7.728  0.00  0.00    +0.128 C 
ATOM     25  C   UNL     1     -11.894  -7.275   6.715  0.00  0.00    +0.124 C 
ATOM     26  C   UNL     1     -10.158  -6.380   8.037  0.00  0.00    +0.302 C 
ATOM     35  H   UNL     1     -10.988  -5.322   6.369  0.00  0.00    +0.150 HD
ENDBRANCH  23   9
ENDBRANCH  21  23
ENDBRANCH   8  21
TORSDOF 5
ENDMDL
MODEL 6
REMARK VINA RESULT:      -6.8      2.457      3.983
REMARK  Name = 26742858
REMARK  5 active torsions:
REMARK  status: ('A' for Active; 'I' for Inactive)
REMARK    1  A    between atoms: N_8  and  C_21
REMARK    2  A    between atoms: N_9  and  C_23
REMARK    3  A    between atoms: N_10  and  C_27
REMARK    4  A    between atoms: C_21  and  C_23
REMARK    5  A    between atoms: C_30  and  C_33
REMARK                            x       y       z     vdW  Elec       q    Type
REMARK                         _______ _______ _______ _____ _____    ______ ____
ROOT
ATOM      4  O   UNL     1      13.767   5.694  -2.158  0.00  0.00    -0.276 OA
ATOM      5  O   UNL     1       9.298   7.075   2.901  0.00  0.00    -0.252 OA
ATOM      7  N   UNL     1      10.311   5.093   2.279  0.00  0.00    -0.285 N 
ATOM      8  N   UNL     1      14.578   5.543   0.010  0.00  0.00    -0.300 N 
ATOM     10  N   UNL     1      10.541   5.914   4.479  0.00  0.00    -0.269 N 
ATOM     12  C   UNL     1      12.341   3.823   1.622  0.00  0.00    +0.011 C 
ATOM     13  C   UNL     1      11.884   3.938   0.146  0.00  0.00    +0.004 C 
ATOM     14  C   UNL     1      10.985   5.169  -0.082  0.00  0.00    +0.023 C 
ATOM     15  C   UNL     1      11.105   3.884   2.542  0.00  0.00    +0.113 C 
ATOM     16  C   UNL     1      13.385   4.861   2.070  0.00  0.00    +0.024 C 
ATOM     17  C   UNL     1      13.026   3.834  -0.874  0.00  0.00    +0.100 C 
ATOM     18  C   UNL     1       9.819   5.194   0.905  0.00  0.00    +0.109 C 
ATOM     19  C   UNL     1      14.680   4.804   1.266  0.00  0.00    +0.108 C 
ATOM     20  C   UNL     1      13.823   5.108  -1.074  0.00  0.00    +0.216 C 
ATOM     22  C   UNL     1       9.989   6.102   3.212  0.00  0.00    +0.306 C 
ATOM     34  H   UNL     1      11.416   5.405   4.547  0.00  0.00    +0.156 HD
ENDROOT
BRANCH  10  27
ATOM     27  C   UNL     1      10.004   6.333   5.720  0.00  0.00    +0.035 A 
ATOM     28  C   UNL     1       9.999   5.461   6.809  0.00  0.00    +0.035 A 
ATOM     29  C   UNL     1       9.481   7.619   5.856  0.00  0.00    +0.023 A 
ATOM     30  C   UNL     1       9.471   5.874   8.032  0.00  0.00    +0.057 A 
ATOM     31  C   UNL     1       8.953   8.033   7.079  0.00  0.00    +0.002 A 
ATOM     32  C   UNL     1       8.948   7.160   8.167  0.00  0.00    +0.012 A 
BRANCH  30  33
ATOM      1  F   UNL     1       8.321   5.033   9.935  0.00  0.00    -0.166 F 
ATOM      2  F   UNL     1       9.569   3.627   8.844  0.00  0.00    -0.166 F 
ATOM      3  F   UNL     1      10.487   5.157  10.076  0.00  0.00    -0.166 F 
ATOM     33  C   UNL     1       9.465   4.942   9.196  0.00  0.00    +0.417 C 
ENDBRANCH  30  33
ENDBRANCH  10  27
BRANCH   8  21
ATOM     21  C   UNL     1      15.308   6.801  -0.067  0.00  0.00    +0.126 C 
BRANCH  21  23
ATOM     23  C   UNL     1      16.800   6.588  -0.255  0.00  0.00    +0.128 C 
BRANCH  23   9
ATOM      6  O   UNL     1      17.288   3.678  -0.829  0.00  0.00    -0.253 OA
ATOM      9  N   UNL     1      17.098   5.933  -1.499  0.00  0.00    -0.283 N 
ATOM     11  N   UNL     1      17.535   4.355  -3.058  0.00  0.00    -0.298 N 
ATOM     24  C   UNL     1      17.134   6.647  -2.764  0.00  0.00    +0.128 C 
ATOM     25  C   UNL     1      17.542   5.597  -3.786  0.00  0.00    +0.124 C 
ATOM     26  C   UNL     1      17.304   4.552  -1.686  0.00  0.00    +0.302 C 
ATOM     35  H   UNL     1      17.721   3.447  -3.473  0.00  0.00    +0.150 HD
ENDBRANCH  23   9
ENDBRANCH  21  23
ENDBRANCH   8  21
TORSDOF 5
ENDMDL
MODEL 7
REMARK VINA RESULT:      -6.8      1.804      2.081
REMARK  Name = 26742858
REMARK  5 active torsions:
REMARK  status: ('A' for Active; 'I' for Inactive)
REMARK    1  A    between atoms: N_8  and  C_21
REMARK    2  A    between atoms: N_9  and  C_23
REMARK    3  A    between atoms: N_10  and  C_27
REMARK    4  A    between atoms: C_21  and  C_23
REMARK    5  A    between atoms: C_30  and  C_33
REMARK                            x       y       z     vdW  Elec       q    Type
REMARK                         _______ _______ _______ _____ _____    ______ ____
ROOT
ATOM      4  O   UNL     1      12.841   2.800  -3.375  0.00  0.00    -0.276 OA
ATOM      5  O   UNL     1      10.795   3.381   3.179  0.00  0.00    -0.252 OA
ATOM      7  N   UNL     1      12.460   4.481   2.013  0.00  0.00    -0.285 N 
ATOM      8  N   UNL     1      11.802   4.789  -2.786  0.00  0.00    -0.300 N 
ATOM     10  N   UNL     1      10.747   5.698   3.085  0.00  0.00    -0.269 N 
ATOM     12  C   UNL     1      13.234   5.692  -0.012  0.00  0.00    +0.011 C 
ATOM     13  C   UNL     1      13.902   4.379  -0.491  0.00  0.00    +0.004 C 
ATOM     14  C   UNL     1      13.211   3.134   0.100  0.00  0.00    +0.023 C 
ATOM     15  C   UNL     1      13.149   5.686   1.527  0.00  0.00    +0.113 C 
ATOM     16  C   UNL     1      11.849   5.983  -0.618  0.00  0.00    +0.024 C 
ATOM     17  C   UNL     1      14.096   4.291  -2.010  0.00  0.00    +0.100 C 
ATOM     18  C   UNL     1      13.107   3.228   1.622  0.00  0.00    +0.109 C 
ATOM     19  C   UNL     1      11.864   6.097  -2.138  0.00  0.00    +0.108 C 
ATOM     20  C   UNL     1      12.860   3.886  -2.790  0.00  0.00    +0.216 C 
ATOM     22  C   UNL     1      11.291   4.445   2.803  0.00  0.00    +0.306 C 
ATOM     34  H   UNL     1      10.896   6.445   2.414  0.00  0.00    +0.156 HD
ENDROOT
BRANCH  10  27
ATOM     27  C   UNL     1      10.012   6.077   4.235  0.00  0.00    +0.035 A 
ATOM     28  C   UNL     1      10.337   5.537   5.479  0.00  0.00    +0.035 A 
ATOM     29  C   UNL     1       8.965   6.991   4.123  0.00  0.00    +0.023 A 
ATOM     30  C   UNL     1       9.615   5.912   6.613  0.00  0.00    +0.057 A 
ATOM     31  C   UNL     1       8.242   7.365   5.256  0.00  0.00    +0.002 A 
ATOM     32  C   UNL     1       8.567   6.826   6.501  0.00  0.00    +0.012 A 
BRANCH  30  33
ATOM      1  F   UNL     1      11.199   5.715   8.374  0.00  0.00    -0.166 F 
ATOM      2  F   UNL     1       9.099   5.700   8.938  0.00  0.00    -0.166 F 
ATOM      3  F   UNL     1       9.969   3.969   7.963  0.00  0.00    -0.166 F 
ATOM     33  C   UNL     1       9.961   5.335   7.943  0.00  0.00    +0.417 C 
ENDBRANCH  30  33
ENDBRANCH  10  27
BRANCH   8  21
ATOM     21  C   UNL     1      10.546   4.445  -3.439  0.00  0.00    +0.126 C 
BRANCH  21  23
ATOM     23  C   UNL     1      10.035   5.567  -4.327  0.00  0.00    +0.128 C 
BRANCH  23   9
ATOM      6  O   UNL     1       8.514   6.915  -2.113  0.00  0.00    -0.253 OA
ATOM      9  N   UNL     1       8.620   5.772  -4.175  0.00  0.00    -0.283 N 
ATOM     11  N   UNL     1       6.607   6.423  -3.381  0.00  0.00    -0.298 N 
ATOM     24  C   UNL     1       7.664   5.383  -5.198  0.00  0.00    +0.128 C 
ATOM     25  C   UNL     1       6.307   5.720  -4.602  0.00  0.00    +0.124 C 
ATOM     26  C   UNL     1       7.984   6.427  -3.103  0.00  0.00    +0.302 C 
ATOM     35  H   UNL     1       5.906   6.827  -2.766  0.00  0.00    +0.150 HD
ENDBRANCH  23   9
ENDBRANCH  21  23
ENDBRANCH   8  21
TORSDOF 5
ENDMDL
MODEL 8
REMARK VINA RESULT:      -6.7      1.648      2.375
REMARK  Name = 26742858
REMARK  5 active torsions:
REMARK  status: ('A' for Active; 'I' for Inactive)
REMARK    1  A    between atoms: N_8  and  C_21
REMARK    2  A    between atoms: N_9  and  C_23
REMARK    3  A    between atoms: N_10  and  C_27
REMARK    4  A    between atoms: C_21  and  C_23
REMARK    5  A    between atoms: C_30  and  C_33
REMARK                            x       y       z     vdW  Elec       q    Type
REMARK                         _______ _______ _______ _____ _____    ______ ____
ROOT
ATOM      4  O   UNL     1      12.519   2.456  -3.213  0.00  0.00    -0.276 OA
ATOM      5  O   UNL     1      10.919   3.430   3.418  0.00  0.00    -0.252 OA
ATOM      7  N   UNL     1      12.351   4.590   2.023  0.00  0.00    -0.285 N 
ATOM      8  N   UNL     1      11.302   4.366  -2.710  0.00  0.00    -0.300 N 
ATOM     10  N   UNL     1      10.593   5.708   3.129  0.00  0.00    -0.269 N 
ATOM     12  C   UNL     1      12.824   5.680  -0.158  0.00  0.00    +0.011 C 
ATOM     13  C   UNL     1      13.603   4.409  -0.577  0.00  0.00    +0.004 C 
ATOM     14  C   UNL     1      13.109   3.158   0.176  0.00  0.00    +0.023 C 
ATOM     15  C   UNL     1      12.855   5.812   1.378  0.00  0.00    +0.113 C 
ATOM     16  C   UNL     1      11.372   5.759  -0.665  0.00  0.00    +0.024 C 
ATOM     17  C   UNL     1      13.690   4.199  -2.094  0.00  0.00    +0.100 C 
ATOM     18  C   UNL     1      13.109   3.385   1.687  0.00  0.00    +0.109 C 
ATOM     19  C   UNL     1      11.259   5.729  -2.185  0.00  0.00    +0.108 C 
ATOM     20  C   UNL     1      12.455   3.589  -2.727  0.00  0.00    +0.216 C 
ATOM     22  C   UNL     1      11.257   4.501   2.911  0.00  0.00    +0.306 C 
ATOM     34  H   UNL     1      10.603   6.400   2.386  0.00  0.00    +0.156 HD
ENDROOT
BRANCH  10  27
ATOM     27  C   UNL     1       9.908   6.112   4.301  0.00  0.00    +0.035 A 
ATOM     28  C   UNL     1      10.222   5.528   5.529  0.00  0.00    +0.035 A 
ATOM     29  C   UNL     1       8.921   7.094   4.228  0.00  0.00    +0.023 A 
ATOM     30  C   UNL     1       9.548   5.927   6.684  0.00  0.00    +0.057 A 
ATOM     31  C   UNL     1       8.246   7.492   5.383  0.00  0.00    +0.002 A 
ATOM     32  C   UNL     1       8.560   6.909   6.610  0.00  0.00    +0.012 A 
BRANCH  30  33
ATOM      1  F   UNL     1       9.873   3.939   7.947  0.00  0.00    -0.166 F 
ATOM      2  F   UNL     1      11.118   5.645   8.465  0.00  0.00    -0.166 F 
ATOM      3  F   UNL     1       9.016   5.639   8.998  0.00  0.00    -0.166 F 
ATOM     33  C   UNL     1       9.882   5.303   7.996  0.00  0.00    +0.417 C 
ENDBRANCH  30  33
ENDBRANCH  10  27
BRANCH   8  21
ATOM     21  C   UNL     1      10.050   3.826  -3.222  0.00  0.00    +0.126 C 
BRANCH  21  23
ATOM     23  C   UNL     1       9.645   4.465  -4.540  0.00  0.00    +0.128 C 
BRANCH  23   9
ATOM      6  O   UNL     1      12.169   5.223  -5.983  0.00  0.00    -0.253 OA
ATOM      9  N   UNL     1      10.287   3.837  -5.662  0.00  0.00    -0.283 N 
ATOM     11  N   UNL     1      11.754   3.337  -7.308  0.00  0.00    -0.298 N 
ATOM     24  C   UNL     1       9.793   2.604  -6.251  0.00  0.00    +0.128 C 
ATOM     25  C   UNL     1      10.720   2.342  -7.427  0.00  0.00    +0.124 C 
ATOM     26  C   UNL     1      11.483   4.254  -6.277  0.00  0.00    +0.302 C 
ATOM     35  H   UNL     1      12.559   3.403  -7.923  0.00  0.00    +0.150 HD
ENDBRANCH  23   9
ENDBRANCH  21  23
ENDBRANCH   8  21
TORSDOF 5
ENDMDL
MODEL 9
REMARK VINA RESULT:      -6.3     17.984     20.666
REMARK  Name = 26742858
REMARK  5 active torsions:
REMARK  status: ('A' for Active; 'I' for Inactive)
REMARK    1  A    between atoms: N_8  and  C_21
REMARK    2  A    between atoms: N_9  and  C_23
REMARK    3  A    between atoms: N_10  and  C_27
REMARK    4  A    between atoms: C_21  and  C_23
REMARK    5  A    between atoms: C_30  and  C_33
REMARK                            x       y       z     vdW  Elec       q    Type
REMARK                         _______ _______ _______ _____ _____    ______ ____
ROOT
ATOM      4  O   UNL     1      23.882   7.517  20.149  0.00  0.00    -0.276 OA
ATOM      5  O   UNL     1      17.450   5.678  18.499  0.00  0.00    -0.252 OA
ATOM      7  N   UNL     1      18.430   6.066  20.556  0.00  0.00    -0.285 N 
ATOM      8  N   UNL     1      22.224   9.093  20.531  0.00  0.00    -0.300 N 
ATOM     10  N   UNL     1      16.508   7.266  19.902  0.00  0.00    -0.269 N 
ATOM     12  C   UNL     1      19.851   7.462  22.038  0.00  0.00    +0.011 C 
ATOM     13  C   UNL     1      21.018   6.478  21.778  0.00  0.00    +0.004 C 
ATOM     14  C   UNL     1      20.863   5.748  20.430  0.00  0.00    +0.023 C 
ATOM     15  C   UNL     1      18.511   6.718  21.872  0.00  0.00    +0.113 C 
ATOM     16  C   UNL     1      19.859   8.736  21.172  0.00  0.00    +0.024 C 
ATOM     17  C   UNL     1      22.411   7.091  21.970  0.00  0.00    +0.100 C 
ATOM     18  C   UNL     1      19.490   5.087  20.311  0.00  0.00    +0.109 C 
ATOM     19  C   UNL     1      21.116   9.580  21.349  0.00  0.00    +0.108 C 
ATOM     20  C   UNL     1      22.913   7.916  20.801  0.00  0.00    +0.216 C 
ATOM     22  C   UNL     1      17.446   6.289  19.570  0.00  0.00    +0.306 C 
ATOM     34  H   UNL     1      16.798   8.014  20.523  0.00  0.00    +0.156 HD
ENDROOT
BRANCH  10  27
ATOM     27  C   UNL     1      15.155   7.334  19.490  0.00  0.00    +0.035 A 
ATOM     28  C   UNL     1      14.132   7.148  20.420  0.00  0.00    +0.035 A 
ATOM     29  C   UNL     1      14.844   7.587  18.154  0.00  0.00    +0.023 A 
ATOM     30  C   UNL     1      12.799   7.216  20.015  0.00  0.00    +0.057 A 
ATOM     31  C   UNL     1      13.511   7.655  17.748  0.00  0.00    +0.002 A 
ATOM     32  C   UNL     1      12.489   7.469  18.678  0.00  0.00    +0.012 A 
BRANCH  30  33
ATOM      1  F   UNL     1      11.361   5.704  21.154  0.00  0.00    -0.166 F 
ATOM      2  F   UNL     1      12.019   7.455  22.263  0.00  0.00    -0.166 F 
ATOM      3  F   UNL     1      10.547   7.664  20.684  0.00  0.00    -0.166 F 
ATOM     33  C   UNL     1      11.705   7.016  21.008  0.00  0.00    +0.417 C 
ENDBRANCH  30  33
ENDBRANCH  10  27
BRANCH   8  21
ATOM     21  C   UNL     1      22.586   9.903  19.376  0.00  0.00    +0.126 C 
BRANCH  21  23
ATOM     23  C   UNL     1      22.182  11.358  19.546  0.00  0.00    +0.128 C 
BRANCH  23   9
ATOM      6  O   UNL     1      19.419  12.530  19.712  0.00  0.00    -0.253 OA
ATOM      9  N   UNL     1      21.305  11.799  18.496  0.00  0.00    -0.283 N 
ATOM     11  N   UNL     1      19.542  12.664  17.377  0.00  0.00    -0.298 N 
ATOM     24  C   UNL     1      21.706  11.803  17.099  0.00  0.00    +0.128 C 
ATOM     25  C   UNL     1      20.472  12.277  16.348  0.00  0.00    +0.124 C 
ATOM     26  C   UNL     1      20.020  12.350  18.660  0.00  0.00    +0.302 C 
ATOM     35  H   UNL     1      18.629  13.072  17.199  0.00  0.00    +0.150 HD
ENDBRANCH  23   9
ENDBRANCH  21  23
ENDBRANCH   8  21
TORSDOF 5
ENDMDL
MODEL 10
REMARK VINA RESULT:      -6.2     26.268     30.179
REMARK  Name = 26742858
REMARK  5 active torsions:
REMARK  status: ('A' for Active; 'I' for Inactive)
REMARK    1  A    between atoms: N_8  and  C_21
REMARK    2  A    between atoms: N_9  and  C_23
REMARK    3  A    between atoms: N_10  and  C_27
REMARK    4  A    between atoms: C_21  and  C_23
REMARK    5  A    between atoms: C_30  and  C_33
REMARK                            x       y       z     vdW  Elec       q    Type
REMARK                         _______ _______ _______ _____ _____    ______ ____
ROOT
ATOM      4  O   UNL     1      -9.797 -10.389  20.463  0.00  0.00    -0.276 OA
ATOM      5  O   UNL     1      -4.001 -10.045  16.754  0.00  0.00    -0.252 OA
ATOM      7  N   UNL     1      -5.248 -11.865  17.444  0.00  0.00    -0.285 N 
ATOM      8  N   UNL     1      -9.958 -11.001  18.231  0.00  0.00    -0.300 N 
ATOM     10  N   UNL     1      -4.794 -11.526  15.155  0.00  0.00    -0.269 N 
ATOM     12  C   UNL     1      -7.441 -12.994  17.727  0.00  0.00    +0.011 C 
ATOM     13  C   UNL     1      -7.422 -12.566  19.216  0.00  0.00    +0.004 C 
ATOM     14  C   UNL     1      -6.567 -11.304  19.440  0.00  0.00    +0.023 C 
ATOM     15  C   UNL     1      -5.992 -13.112  17.215  0.00  0.00    +0.113 C 
ATOM     16  C   UNL     1      -8.260 -12.085  16.792  0.00  0.00    +0.024 C 
ATOM     17  C   UNL     1      -8.812 -12.468  19.858  0.00  0.00    +0.100 C 
ATOM     18  C   UNL     1      -5.166 -11.472  18.851  0.00  0.00    +0.109 C 
ATOM     19  C   UNL     1      -9.732 -11.988  17.178  0.00  0.00    +0.108 C 
ATOM     20  C   UNL     1      -9.569 -11.190  19.553  0.00  0.00    +0.216 C 
ATOM     22  C   UNL     1      -4.621 -11.070  16.461  0.00  0.00    +0.306 C 
ATOM     34  H   UNL     1      -5.638 -12.049  14.939  0.00  0.00    +0.156 HD
ENDROOT
BRANCH  10  27
ATOM     27  C   UNL     1      -3.903 -11.370  14.065  0.00  0.00    +0.035 A 
ATOM     28  C   UNL     1      -4.268 -10.583  12.972  0.00  0.00    +0.035 A 
ATOM     29  C   UNL     1      -2.661 -12.002  14.084  0.00  0.00    +0.023 A 
ATOM     30  C   UNL     1      -3.390 -10.428  11.900  0.00  0.00    +0.057 A 
ATOM     31  C   UNL     1      -1.782 -11.848  13.011  0.00  0.00    +0.002 A 
ATOM     32  C   UNL     1      -2.147 -11.061  11.919  0.00  0.00    +0.012 A 
BRANCH  30  33
ATOM      1  F   UNL     1      -4.392 -10.308   9.747  0.00  0.00    -0.166 F 
ATOM      2  F   UNL     1      -4.649  -8.583  11.046  0.00  0.00    -0.166 F 
ATOM      3  F   UNL     1      -2.723  -8.967  10.127  0.00  0.00    -0.166 F 
ATOM     33  C   UNL     1      -3.779  -9.588  10.731  0.00  0.00    +0.417 C 
ENDBRANCH  30  33
ENDBRANCH  10  27
BRANCH   8  21
ATOM     21  C   UNL     1     -10.616  -9.764  17.834  0.00  0.00    +0.126 C 
BRANCH  21  23
ATOM     23  C   UNL     1     -11.519  -9.956  16.627  0.00  0.00    +0.128 C 
BRANCH  23   9
ATOM      6  O   UNL     1     -13.484 -11.722  18.059  0.00  0.00    -0.253 OA
ATOM      9  N   UNL     1     -12.901  -9.724  16.947  0.00  0.00    -0.283 N 
ATOM     11  N   UNL     1     -15.000  -9.964  17.751  0.00  0.00    -0.298 N 
ATOM     24  C   UNL     1     -13.566  -8.465  16.657  0.00  0.00    +0.128 C 
ATOM     25  C   UNL     1     -15.005  -8.681  17.096  0.00  0.00    +0.124 C 
ATOM     26  C   UNL     1     -13.756 -10.607  17.635  0.00  0.00    +0.302 C 
ATOM     35  H   UNL     1     -15.810 -10.380  18.201  0.00  0.00    +0.150 HD
ENDBRANCH  23   9
ENDBRANCH  21  23
ENDBRANCH   8  21
TORSDOF 5
ENDMDL
