MODEL 1
REMARK VINA RESULT:      -8.3      0.000      0.000
REMARK  Name = 25338314
REMARK  7 active torsions:
REMARK  status: ('A' for Active; 'I' for Inactive)
REMARK    1  A    between atoms: N_3  and  C_12
REMARK    2  A    between atoms: N_4  and  C_7
REMARK    3  A    between atoms: C_8  and  C_11
REMARK    4  A    between atoms: C_13  and  C_14
REMARK    5  A    between atoms: C_14  and  C_16
REMARK    6  A    between atoms: C_15  and  C_17
REMARK    7  A    between atoms: C_24  and  C_28
REMARK                            x       y       z     vdW  Elec       q    Type
REMARK                         _______ _______ _______ _____ _____    ______ ____
ROOT
ATOM      3  N   UNL     1      11.421   6.873  21.653  0.00  0.00    -0.293 NA
ATOM      7  C   UNL     1      10.592   9.048  21.800  0.00  0.00    +0.089 C 
ATOM      8  C   UNL     1      11.680   7.440  20.316  0.00  0.00    +0.147 C 
ATOM      9  C   UNL     1      11.279   8.923  20.439  0.00  0.00    +0.052 C 
ATOM     10  C   UNL     1      10.271   7.611  22.186  0.00  0.00    +0.107 C 
ATOM     12  C   UNL     1      11.181   5.435  21.630  0.00  0.00    +0.105 C 
ENDROOT
BRANCH   8  11
ATOM      1  O   UNL     1      13.361   7.533  18.544  0.00  0.00    -0.336 OA
ATOM      5  N   UNL     1      14.161   6.876  20.530  0.00  0.00    -0.190 NA
ATOM      6  N   UNL     1      14.728   7.298  18.354  0.00  0.00    -0.056 NA
ATOM     11  C   UNL     1      13.110   7.261  19.851  0.00  0.00    +0.245 A 
ATOM     15  C   UNL     1      15.129   6.914  19.568  0.00  0.00    +0.202 A 
BRANCH  15  17
ATOM     17  C   UNL     1      16.490   6.564  19.857  0.00  0.00    +0.022 A 
ATOM     20  C   UNL     1      17.201   5.744  18.979  0.00  0.00    +0.012 A 
ATOM     21  C   UNL     1      17.103   7.044  21.014  0.00  0.00    +0.012 A 
ATOM     22  C   UNL     1      18.524   5.404  19.260  0.00  0.00    +0.004 A 
ATOM     23  C   UNL     1      18.427   6.703  21.295  0.00  0.00    +0.004 A 
ATOM     24  C   UNL     1      19.137   5.883  20.418  0.00  0.00    -0.050 A 
ATOM     28  C   UNL     1      20.552   5.519  20.718  0.00  0.00    +0.044 C 
ENDBRANCH  15  17
ENDBRANCH   8  11
BRANCH   7   4
ATOM      2  O   UNL     1      11.191  11.853  22.021  0.00  0.00    -0.275 OA
ATOM      4  N   UNL     1      11.454   9.673  22.774  0.00  0.00    -0.311 N 
ATOM     13  C   UNL     1      11.683  11.042  22.801  0.00  0.00    +0.218 C 
ATOM     29  H   UNL     1      11.954   9.068  23.419  0.00  0.00    +0.149 HD
BRANCH  13  14
ATOM     14  C   UNL     1      12.620  11.427  23.929  0.00  0.00    +0.130 C 
BRANCH  14  16
ATOM     16  C   UNL     1      12.183  12.662  24.672  0.00  0.00    -0.039 A 
ATOM     18  C   UNL     1      13.019  13.776  24.728  0.00  0.00    +0.004 A 
ATOM     19  C   UNL     1      10.939  12.691  25.304  0.00  0.00    +0.004 A 
ATOM     25  C   UNL     1      12.613  14.921  25.416  0.00  0.00    +0.000 A 
ATOM     26  C   UNL     1      10.533  13.834  25.992  0.00  0.00    +0.000 A 
ATOM     27  C   UNL     1      11.370  14.949  26.047  0.00  0.00    +0.000 A 
ENDBRANCH  14  16
ENDBRANCH  13  14
ENDBRANCH   7   4
TORSDOF 5
ENDMDL
MODEL 2
REMARK VINA RESULT:      -8.0      1.485      2.630
REMARK  Name = 25338314
REMARK  7 active torsions:
REMARK  status: ('A' for Active; 'I' for Inactive)
REMARK    1  A    between atoms: N_3  and  C_12
REMARK    2  A    between atoms: N_4  and  C_7
REMARK    3  A    between atoms: C_8  and  C_11
REMARK    4  A    between atoms: C_13  and  C_14
REMARK    5  A    between atoms: C_14  and  C_16
REMARK    6  A    between atoms: C_15  and  C_17
REMARK    7  A    between atoms: C_24  and  C_28
REMARK                            x       y       z     vdW  Elec       q    Type
REMARK                         _______ _______ _______ _____ _____    ______ ____
ROOT
ATOM      3  N   UNL     1      11.410   6.935  21.695  0.00  0.00    -0.293 NA
ATOM      7  C   UNL     1      10.639   9.124  21.916  0.00  0.00    +0.089 C 
ATOM      8  C   UNL     1      11.673   7.535  20.374  0.00  0.00    +0.147 C 
ATOM      9  C   UNL     1      11.311   9.023  20.546  0.00  0.00    +0.052 C 
ATOM     10  C   UNL     1      10.284   7.684  22.260  0.00  0.00    +0.107 C 
ATOM     12  C   UNL     1      11.133   5.504  21.631  0.00  0.00    +0.105 C 
ENDROOT
BRANCH   8  11
ATOM      1  O   UNL     1      13.314   7.513  18.563  0.00  0.00    -0.336 OA
ATOM      5  N   UNL     1      14.163   7.007  20.573  0.00  0.00    -0.190 NA
ATOM      6  N   UNL     1      14.679   7.275  18.360  0.00  0.00    -0.056 NA
ATOM     11  C   UNL     1      13.094   7.334  19.892  0.00  0.00    +0.245 A 
ATOM     15  C   UNL     1      15.110   6.984  19.590  0.00  0.00    +0.202 A 
BRANCH  15  17
ATOM     17  C   UNL     1      16.480   6.665  19.873  0.00  0.00    +0.022 A 
ATOM     20  C   UNL     1      17.125   7.256  20.960  0.00  0.00    +0.012 A 
ATOM     21  C   UNL     1      17.168   5.763  19.061  0.00  0.00    +0.012 A 
ATOM     22  C   UNL     1      18.456   6.946  21.235  0.00  0.00    +0.004 A 
ATOM     23  C   UNL     1      18.500   5.452  19.336  0.00  0.00    +0.004 A 
ATOM     24  C   UNL     1      19.144   6.045  20.423  0.00  0.00    -0.050 A 
ATOM     28  C   UNL     1      20.568   5.713  20.716  0.00  0.00    +0.044 C 
ENDBRANCH  15  17
ENDBRANCH   8  11
BRANCH   7   4
ATOM      2  O   UNL     1      11.236  11.915  22.279  0.00  0.00    -0.275 OA
ATOM      4  N   UNL     1      11.524   9.697  22.901  0.00  0.00    -0.311 N 
ATOM     13  C   UNL     1      11.750  11.063  22.999  0.00  0.00    +0.218 C 
ATOM     29  H   UNL     1      12.043   9.059  23.498  0.00  0.00    +0.149 HD
BRANCH  13  14
ATOM     14  C   UNL     1      12.715  11.388  24.122  0.00  0.00    +0.130 C 
BRANCH  14  16
ATOM     16  C   UNL     1      14.148  11.485  23.668  0.00  0.00    -0.039 A 
ATOM     18  C   UNL     1      14.612  10.663  22.642  0.00  0.00    +0.004 A 
ATOM     19  C   UNL     1      15.011  12.399  24.274  0.00  0.00    +0.004 A 
ATOM     25  C   UNL     1      15.939  10.753  22.221  0.00  0.00    +0.000 A 
ATOM     26  C   UNL     1      16.337  12.489  23.853  0.00  0.00    +0.000 A 
ATOM     27  C   UNL     1      16.802  11.667  22.826  0.00  0.00    +0.000 A 
ENDBRANCH  14  16
ENDBRANCH  13  14
ENDBRANCH   7   4
TORSDOF 5
ENDMDL
MODEL 3
REMARK VINA RESULT:      -7.5     26.541     29.902
REMARK  Name = 25338314
REMARK  7 active torsions:
REMARK  status: ('A' for Active; 'I' for Inactive)
REMARK    1  A    between atoms: N_3  and  C_12
REMARK    2  A    between atoms: N_4  and  C_7
REMARK    3  A    between atoms: C_8  and  C_11
REMARK    4  A    between atoms: C_13  and  C_14
REMARK    5  A    between atoms: C_14  and  C_16
REMARK    6  A    between atoms: C_15  and  C_17
REMARK    7  A    between atoms: C_24  and  C_28
REMARK                            x       y       z     vdW  Elec       q    Type
REMARK                         _______ _______ _______ _____ _____    ______ ____
ROOT
ATOM      3  N   UNL     1     -17.270   3.281  24.477  0.00  0.00    -0.293 NA
ATOM      7  C   UNL     1     -17.541   4.448  26.477  0.00  0.00    +0.089 C 
ATOM      8  C   UNL     1     -17.211   4.697  24.069  0.00  0.00    +0.147 C 
ATOM      9  C   UNL     1     -17.235   5.483  25.394  0.00  0.00    +0.052 C 
ATOM     10  C   UNL     1     -18.072   3.249  25.704  0.00  0.00    +0.107 C 
ATOM     12  C   UNL     1     -17.820   2.408  23.446  0.00  0.00    +0.105 C 
ENDROOT
BRANCH   8  11
ATOM      1  O   UNL     1     -15.338   3.979  22.673  0.00  0.00    -0.336 OA
ATOM      5  N   UNL     1     -15.494   6.199  22.922  0.00  0.00    -0.190 NA
ATOM      6  N   UNL     1     -14.277   4.528  21.942  0.00  0.00    -0.056 NA
ATOM     11  C   UNL     1     -16.004   5.030  23.217  0.00  0.00    +0.245 A 
ATOM     15  C   UNL     1     -14.437   5.840  22.137  0.00  0.00    +0.202 A 
BRANCH  15  17
ATOM     17  C   UNL     1     -13.560   6.818  21.563  0.00  0.00    +0.022 A 
ATOM     20  C   UNL     1     -13.939   8.160  21.525  0.00  0.00    +0.012 A 
ATOM     21  C   UNL     1     -12.325   6.428  21.043  0.00  0.00    +0.012 A 
ATOM     22  C   UNL     1     -13.086   9.111  20.966  0.00  0.00    +0.004 A 
ATOM     23  C   UNL     1     -11.471   7.380  20.483  0.00  0.00    +0.004 A 
ATOM     24  C   UNL     1     -11.852   8.721  20.446  0.00  0.00    -0.050 A 
ATOM     28  C   UNL     1     -10.939   9.738  19.848  0.00  0.00    +0.044 C 
ENDBRANCH  15  17
ENDBRANCH   8  11
BRANCH   7   4
ATOM      2  O   UNL     1     -17.443   3.546  29.207  0.00  0.00    -0.275 OA
ATOM      4  N   UNL     1     -16.360   4.105  27.232  0.00  0.00    -0.311 N 
ATOM     13  C   UNL     1     -16.413   3.677  28.551  0.00  0.00    +0.218 C 
ATOM     29  H   UNL     1     -15.457   4.246  26.787  0.00  0.00    +0.149 HD
BRANCH  13  14
ATOM     14  C   UNL     1     -15.030   3.378  29.096  0.00  0.00    +0.130 C 
BRANCH  14  16
ATOM     16  C   UNL     1     -15.000   2.195  30.028  0.00  0.00    -0.039 A 
ATOM     18  C   UNL     1     -15.122   0.902  29.520  0.00  0.00    +0.004 A 
ATOM     19  C   UNL     1     -14.849   2.394  31.401  0.00  0.00    +0.004 A 
ATOM     25  C   UNL     1     -15.094  -0.193  30.384  0.00  0.00    +0.000 A 
ATOM     26  C   UNL     1     -14.820   1.299  32.265  0.00  0.00    +0.000 A 
ATOM     27  C   UNL     1     -14.942   0.006  31.757  0.00  0.00    +0.000 A 
ENDBRANCH  14  16
ENDBRANCH  13  14
ENDBRANCH   7   4
TORSDOF 5
ENDMDL
MODEL 4
REMARK VINA RESULT:      -7.2     26.979     30.575
REMARK  Name = 25338314
REMARK  7 active torsions:
REMARK  status: ('A' for Active; 'I' for Inactive)
REMARK    1  A    between atoms: N_3  and  C_12
REMARK    2  A    between atoms: N_4  and  C_7
REMARK    3  A    between atoms: C_8  and  C_11
REMARK    4  A    between atoms: C_13  and  C_14
REMARK    5  A    between atoms: C_14  and  C_16
REMARK    6  A    between atoms: C_15  and  C_17
REMARK    7  A    between atoms: C_24  and  C_28
REMARK                            x       y       z     vdW  Elec       q    Type
REMARK                         _______ _______ _______ _____ _____    ______ ____
ROOT
ATOM      3  N   UNL     1     -17.713   4.334  25.153  0.00  0.00    -0.293 NA
ATOM      7  C   UNL     1     -16.975   3.729  23.026  0.00  0.00    +0.089 C 
ATOM      8  C   UNL     1     -17.830   2.863  25.145  0.00  0.00    +0.147 C 
ATOM      9  C   UNL     1     -17.204   2.432  23.804  0.00  0.00    +0.052 C 
ATOM     10  C   UNL     1     -17.833   4.754  23.754  0.00  0.00    +0.107 C 
ATOM     12  C   UNL     1     -18.704   4.984  26.003  0.00  0.00    +0.105 C 
ENDROOT
BRANCH   8  11
ATOM      1  O   UNL     1     -16.742   0.921  26.154  0.00  0.00    -0.336 OA
ATOM      5  N   UNL     1     -16.947   2.674  27.533  0.00  0.00    -0.190 NA
ATOM      6  N   UNL     1     -16.177   0.526  27.373  0.00  0.00    -0.056 NA
ATOM     11  C   UNL     1     -17.170   2.198  26.334  0.00  0.00    +0.245 A 
ATOM     15  C   UNL     1     -16.335   1.612  28.134  0.00  0.00    +0.202 A 
BRANCH  15  17
ATOM     17  C   UNL     1     -15.894   1.671  29.497  0.00  0.00    +0.022 A 
ATOM     20  C   UNL     1     -15.958   2.874  30.201  0.00  0.00    +0.012 A 
ATOM     21  C   UNL     1     -15.402   0.524  30.121  0.00  0.00    +0.012 A 
ATOM     22  C   UNL     1     -15.529   2.931  31.527  0.00  0.00    +0.004 A 
ATOM     23  C   UNL     1     -14.973   0.580  31.448  0.00  0.00    +0.004 A 
ATOM     24  C   UNL     1     -15.036   1.784  32.150  0.00  0.00    -0.050 A 
ATOM     28  C   UNL     1     -14.577   1.844  33.568  0.00  0.00    +0.044 C 
ENDBRANCH  15  17
ENDBRANCH   8  11
BRANCH   7   4
ATOM      2  O   UNL     1     -15.569   5.131  20.944  0.00  0.00    -0.275 OA
ATOM      4  N   UNL     1     -15.583   4.111  23.029  0.00  0.00    -0.311 N 
ATOM     13  C   UNL     1     -14.991   4.788  21.972  0.00  0.00    +0.218 C 
ATOM     29  H   UNL     1     -15.014   3.811  23.815  0.00  0.00    +0.149 HD
BRANCH  13  14
ATOM     14  C   UNL     1     -13.526   5.070  22.243  0.00  0.00    +0.130 C 
BRANCH  14  16
ATOM     16  C   UNL     1     -13.049   6.369  21.650  0.00  0.00    -0.039 A 
ATOM     18  C   UNL     1     -13.751   7.549  21.897  0.00  0.00    +0.004 A 
ATOM     19  C   UNL     1     -11.905   6.393  20.852  0.00  0.00    +0.004 A 
ATOM     25  C   UNL     1     -13.309   8.753  21.348  0.00  0.00    +0.000 A 
ATOM     26  C   UNL     1     -11.463   7.596  20.303  0.00  0.00    +0.000 A 
ATOM     27  C   UNL     1     -12.165   8.776  20.551  0.00  0.00    +0.000 A 
ENDBRANCH  14  16
ENDBRANCH  13  14
ENDBRANCH   7   4
TORSDOF 5
ENDMDL
MODEL 5
REMARK VINA RESULT:      -7.2     17.490     21.202
REMARK  Name = 25338314
REMARK  7 active torsions:
REMARK  status: ('A' for Active; 'I' for Inactive)
REMARK    1  A    between atoms: N_3  and  C_12
REMARK    2  A    between atoms: N_4  and  C_7
REMARK    3  A    between atoms: C_8  and  C_11
REMARK    4  A    between atoms: C_13  and  C_14
REMARK    5  A    between atoms: C_14  and  C_16
REMARK    6  A    between atoms: C_15  and  C_17
REMARK    7  A    between atoms: C_24  and  C_28
REMARK                            x       y       z     vdW  Elec       q    Type
REMARK                         _______ _______ _______ _____ _____    ______ ____
ROOT
ATOM      3  N   UNL     1      11.384   7.910   1.089  0.00  0.00    -0.293 NA
ATOM      7  C   UNL     1      10.588   6.911  -0.861  0.00  0.00    +0.089 C 
ATOM      8  C   UNL     1      10.098   7.313   1.499  0.00  0.00    +0.147 C 
ATOM      9  C   UNL     1       9.629   6.519   0.264  0.00  0.00    +0.052 C 
ATOM     10  C   UNL     1      11.265   8.174  -0.348  0.00  0.00    +0.107 C 
ATOM     12  C   UNL     1      11.721   9.115   1.838  0.00  0.00    +0.105 C 
ENDROOT
BRANCH   8  11
ATOM      1  O   UNL     1      10.806   5.244   2.590  0.00  0.00    -0.336 OA
ATOM      5  N   UNL     1       9.784   6.696   3.956  0.00  0.00    -0.190 NA
ATOM      6  N   UNL     1      10.780   4.639   3.853  0.00  0.00    -0.056 NA
ATOM     11  C   UNL     1      10.200   6.451   2.739  0.00  0.00    +0.245 A 
ATOM     15  C   UNL     1      10.163   5.555   4.603  0.00  0.00    +0.202 A 
BRANCH  15  17
ATOM     17  C   UNL     1       9.910   5.364   6.002  0.00  0.00    +0.022 A 
ATOM     20  C   UNL     1       9.928   4.079   6.546  0.00  0.00    +0.012 A 
ATOM     21  C   UNL     1       9.646   6.463   6.819  0.00  0.00    +0.012 A 
ATOM     22  C   UNL     1       9.682   3.894   7.906  0.00  0.00    +0.004 A 
ATOM     23  C   UNL     1       9.400   6.278   8.180  0.00  0.00    +0.004 A 
ATOM     24  C   UNL     1       9.418   4.993   8.723  0.00  0.00    -0.050 A 
ATOM     28  C   UNL     1       9.155   4.796  10.178  0.00  0.00    +0.044 C 
ENDBRANCH  15  17
ENDBRANCH   8  11
BRANCH   7   4
ATOM      2  O   UNL     1      10.045   4.292  -1.922  0.00  0.00    -0.275 OA
ATOM      4  N   UNL     1      11.551   5.870  -1.125  0.00  0.00    -0.311 N 
ATOM     13  C   UNL     1      11.192   4.632  -1.640  0.00  0.00    +0.218 C 
ATOM     29  H   UNL     1      12.517   6.042  -0.861  0.00  0.00    +0.149 HD
BRANCH  13  14
ATOM     14  C   UNL     1      12.400   3.734  -1.826  0.00  0.00    +0.130 C 
BRANCH  14  16
ATOM     16  C   UNL     1      13.303   3.696  -0.621  0.00  0.00    -0.039 A 
ATOM     18  C   UNL     1      12.807   3.272   0.611  0.00  0.00    +0.004 A 
ATOM     19  C   UNL     1      14.639   4.084  -0.739  0.00  0.00    +0.004 A 
ATOM     25  C   UNL     1      13.645   3.236   1.727  0.00  0.00    +0.000 A 
ATOM     26  C   UNL     1      15.476   4.049   0.375  0.00  0.00    +0.000 A 
ATOM     27  C   UNL     1      14.979   3.624   1.608  0.00  0.00    +0.000 A 
ENDBRANCH  14  16
ENDBRANCH  13  14
ENDBRANCH   7   4
TORSDOF 5
ENDMDL
MODEL 6
REMARK VINA RESULT:      -7.0     27.050     29.588
REMARK  Name = 25338314
REMARK  7 active torsions:
REMARK  status: ('A' for Active; 'I' for Inactive)
REMARK    1  A    between atoms: N_3  and  C_12
REMARK    2  A    between atoms: N_4  and  C_7
REMARK    3  A    between atoms: C_8  and  C_11
REMARK    4  A    between atoms: C_13  and  C_14
REMARK    5  A    between atoms: C_14  and  C_16
REMARK    6  A    between atoms: C_15  and  C_17
REMARK    7  A    between atoms: C_24  and  C_28
REMARK                            x       y       z     vdW  Elec       q    Type
REMARK                         _______ _______ _______ _____ _____    ______ ____
ROOT
ATOM      3  N   UNL     1      -6.173 -12.144  17.827  0.00  0.00    -0.293 NA
ATOM      7  C   UNL     1      -3.964 -11.438  17.583  0.00  0.00    +0.089 C 
ATOM      8  C   UNL     1      -6.271 -10.672  17.834  0.00  0.00    +0.147 C 
ATOM      9  C   UNL     1      -4.842 -10.187  17.521  0.00  0.00    +0.052 C 
ATOM     10  C   UNL     1      -4.826 -12.460  18.312  0.00  0.00    +0.107 C 
ATOM     12  C   UNL     1      -7.205 -12.793  18.628  0.00  0.00    +0.105 C 
ENDROOT
BRANCH   8  11
ATOM      1  O   UNL     1      -7.227 -10.600  15.586  0.00  0.00    -0.336 OA
ATOM      5  N   UNL     1      -8.253  -9.261  17.060  0.00  0.00    -0.190 NA
ATOM      6  N   UNL     1      -8.257  -9.963  14.882  0.00  0.00    -0.056 NA
ATOM     11  C   UNL     1      -7.295 -10.131  16.859  0.00  0.00    +0.245 A 
ATOM     15  C   UNL     1      -8.815  -9.191  15.818  0.00  0.00    +0.202 A 
BRANCH  15  17
ATOM     17  C   UNL     1      -9.937  -8.340  15.547  0.00  0.00    +0.022 A 
ATOM     20  C   UNL     1     -10.165  -7.213  16.338  0.00  0.00    +0.012 A 
ATOM     21  C   UNL     1     -10.799  -8.637  14.492  0.00  0.00    +0.012 A 
ATOM     22  C   UNL     1     -11.256  -6.385  16.075  0.00  0.00    +0.004 A 
ATOM     23  C   UNL     1     -11.891  -7.808  14.228  0.00  0.00    +0.004 A 
ATOM     24  C   UNL     1     -12.119  -6.682  15.020  0.00  0.00    -0.050 A 
ATOM     28  C   UNL     1     -13.285  -5.797  14.737  0.00  0.00    +0.044 C 
ENDBRANCH  15  17
ENDBRANCH   8  11
BRANCH   7   4
ATOM      2  O   UNL     1      -1.770 -10.509  15.970  0.00  0.00    -0.275 OA
ATOM      4  N   UNL     1      -3.605 -11.900  16.263  0.00  0.00    -0.311 N 
ATOM     13  C   UNL     1      -2.523 -11.388  15.560  0.00  0.00    +0.218 C 
ATOM     29  H   UNL     1      -4.214 -12.582  15.820  0.00  0.00    +0.149 HD
BRANCH  13  14
ATOM     14  C   UNL     1      -2.372 -12.057  14.208  0.00  0.00    +0.130 C 
BRANCH  14  16
ATOM     16  C   UNL     1      -2.786 -11.177  13.058  0.00  0.00    -0.039 A 
ATOM     18  C   UNL     1      -1.831 -10.708  12.158  0.00  0.00    +0.004 A 
ATOM     19  C   UNL     1      -4.128 -10.830  12.894  0.00  0.00    +0.004 A 
ATOM     25  C   UNL     1      -2.215  -9.893  11.092  0.00  0.00    +0.000 A 
ATOM     26  C   UNL     1      -4.513 -10.015  11.830  0.00  0.00    +0.000 A 
ATOM     27  C   UNL     1      -3.556  -9.547  10.929  0.00  0.00    +0.000 A 
ENDBRANCH  14  16
ENDBRANCH  13  14
ENDBRANCH   7   4
TORSDOF 5
ENDMDL
MODEL 7
REMARK VINA RESULT:      -6.8     27.015     29.442
REMARK  Name = 25338314
REMARK  7 active torsions:
REMARK  status: ('A' for Active; 'I' for Inactive)
REMARK    1  A    between atoms: N_3  and  C_12
REMARK    2  A    between atoms: N_4  and  C_7
REMARK    3  A    between atoms: C_8  and  C_11
REMARK    4  A    between atoms: C_13  and  C_14
REMARK    5  A    between atoms: C_14  and  C_16
REMARK    6  A    between atoms: C_15  and  C_17
REMARK    7  A    between atoms: C_24  and  C_28
REMARK                            x       y       z     vdW  Elec       q    Type
REMARK                         _______ _______ _______ _____ _____    ______ ____
ROOT
ATOM      3  N   UNL     1      -6.070 -12.204  16.428  0.00  0.00    -0.293 NA
ATOM      7  C   UNL     1      -3.884 -11.471  16.773  0.00  0.00    +0.089 C 
ATOM      8  C   UNL     1      -6.174 -10.734  16.341  0.00  0.00    +0.147 C 
ATOM      9  C   UNL     1      -4.717 -10.239  16.414  0.00  0.00    +0.052 C 
ATOM     10  C   UNL     1      -4.909 -12.475  17.281  0.00  0.00    +0.107 C 
ATOM     12  C   UNL     1      -7.281 -12.835  16.940  0.00  0.00    +0.105 C 
ENDROOT
BRANCH   8  11
ATOM      1  O   UNL     1      -8.182  -9.861  15.255  0.00  0.00    -0.336 OA
ATOM      5  N   UNL     1      -6.447 -10.154  13.870  0.00  0.00    -0.190 NA
ATOM      6  N   UNL     1      -8.625  -9.465  13.987  0.00  0.00    -0.056 NA
ATOM     11  C   UNL     1      -6.890 -10.252  15.098  0.00  0.00    +0.245 A 
ATOM     15  C   UNL     1      -7.547  -9.666  13.226  0.00  0.00    +0.202 A 
BRANCH  15  17
ATOM     17  C   UNL     1      -7.534  -9.389  11.819  0.00  0.00    +0.022 A 
ATOM     20  C   UNL     1      -6.357  -8.961  11.202  0.00  0.00    +0.012 A 
ATOM     21  C   UNL     1      -8.696  -9.551  11.065  0.00  0.00    +0.012 A 
ATOM     22  C   UNL     1      -6.344  -8.692   9.834  0.00  0.00    +0.004 A 
ATOM     23  C   UNL     1      -8.684  -9.282   9.696  0.00  0.00    +0.004 A 
ATOM     24  C   UNL     1      -7.508  -8.853   9.080  0.00  0.00    -0.050 A 
ATOM     28  C   UNL     1      -7.494  -8.566   7.617  0.00  0.00    +0.044 C 
ENDBRANCH  15  17
ENDBRANCH   8  11
BRANCH   7   4
ATOM      2  O   UNL     1      -1.293 -10.634  15.843  0.00  0.00    -0.275 OA
ATOM      4  N   UNL     1      -3.172 -11.981  15.627  0.00  0.00    -0.311 N 
ATOM     13  C   UNL     1      -1.919 -11.512  15.255  0.00  0.00    +0.218 C 
ATOM     29  H   UNL     1      -3.644 -12.666  15.044  0.00  0.00    +0.149 HD
BRANCH  13  14
ATOM     14  C   UNL     1      -1.401 -12.227  14.022  0.00  0.00    +0.130 C 
BRANCH  14  16
ATOM     16  C   UNL     1      -2.114 -11.827  12.757  0.00  0.00    -0.039 A 
ATOM     18  C   UNL     1      -2.841 -12.773  12.036  0.00  0.00    +0.004 A 
ATOM     19  C   UNL     1      -2.047 -10.507  12.307  0.00  0.00    +0.004 A 
ATOM     25  C   UNL     1      -3.502 -12.402  10.864  0.00  0.00    +0.000 A 
ATOM     26  C   UNL     1      -2.708 -10.136  11.136  0.00  0.00    +0.000 A 
ATOM     27  C   UNL     1      -3.435 -11.083  10.415  0.00  0.00    +0.000 A 
ENDBRANCH  14  16
ENDBRANCH  13  14
ENDBRANCH   7   4
TORSDOF 5
ENDMDL
MODEL 8
REMARK VINA RESULT:      -6.7      7.710     12.853
REMARK  Name = 25338314
REMARK  7 active torsions:
REMARK  status: ('A' for Active; 'I' for Inactive)
REMARK    1  A    between atoms: N_3  and  C_12
REMARK    2  A    between atoms: N_4  and  C_7
REMARK    3  A    between atoms: C_8  and  C_11
REMARK    4  A    between atoms: C_13  and  C_14
REMARK    5  A    between atoms: C_14  and  C_16
REMARK    6  A    between atoms: C_15  and  C_17
REMARK    7  A    between atoms: C_24  and  C_28
REMARK                            x       y       z     vdW  Elec       q    Type
REMARK                         _______ _______ _______ _____ _____    ______ ____
ROOT
ATOM      3  N   UNL     1      23.359   2.690  25.536  0.00  0.00    -0.293 NA
ATOM      7  C   UNL     1      23.161   0.380  25.291  0.00  0.00    +0.089 C 
ATOM      8  C   UNL     1      23.752   2.450  24.135  0.00  0.00    +0.147 C 
ATOM      9  C   UNL     1      23.481   0.950  23.908  0.00  0.00    +0.052 C 
ATOM     10  C   UNL     1      23.658   1.447  26.255  0.00  0.00    +0.107 C 
ATOM     12  C   UNL     1      24.032   3.838  26.133  0.00  0.00    +0.105 C 
ENDROOT
BRANCH   8  11
ATOM      1  O   UNL     1      23.470   3.304  21.862  0.00  0.00    -0.336 OA
ATOM      5  N   UNL     1      21.998   4.125  23.337  0.00  0.00    -0.190 NA
ATOM      6  N   UNL     1      22.649   4.183  21.145  0.00  0.00    -0.056 NA
ATOM     11  C   UNL     1      23.019   3.329  23.144  0.00  0.00    +0.245 A 
ATOM     15  C   UNL     1      21.807   4.627  22.082  0.00  0.00    +0.202 A 
BRANCH  15  17
ATOM     17  C   UNL     1      20.764   5.569  21.799  0.00  0.00    +0.022 A 
ATOM     20  C   UNL     1      19.984   5.424  20.651  0.00  0.00    +0.012 A 
ATOM     21  C   UNL     1      20.529   6.631  22.672  0.00  0.00    +0.012 A 
ATOM     22  C   UNL     1      18.969   6.341  20.376  0.00  0.00    +0.004 A 
ATOM     23  C   UNL     1      19.514   7.549  22.397  0.00  0.00    +0.004 A 
ATOM     24  C   UNL     1      18.735   7.403  21.249  0.00  0.00    -0.050 A 
ATOM     28  C   UNL     1      17.650   8.384  20.956  0.00  0.00    +0.044 C 
ENDBRANCH  15  17
ENDBRANCH   8  11
BRANCH   7   4
ATOM      2  O   UNL     1      21.893  -2.133  25.887  0.00  0.00    -0.275 OA
ATOM      4  N   UNL     1      21.747   0.142  25.452  0.00  0.00    -0.311 N 
ATOM     13  C   UNL     1      21.227  -1.112  25.740  0.00  0.00    +0.218 C 
ATOM     29  H   UNL     1      21.115   0.921  25.284  0.00  0.00    +0.149 HD
BRANCH  13  14
ATOM     14  C   UNL     1      19.716  -1.073  25.863  0.00  0.00    +0.130 C 
BRANCH  14  16
ATOM     16  C   UNL     1      19.006  -1.654  24.669  0.00  0.00    -0.039 A 
ATOM     18  C   UNL     1      18.086  -0.882  23.960  0.00  0.00    +0.004 A 
ATOM     19  C   UNL     1      19.269  -2.966  24.271  0.00  0.00    +0.004 A 
ATOM     25  C   UNL     1      17.428  -1.421  22.853  0.00  0.00    +0.000 A 
ATOM     26  C   UNL     1      18.612  -3.504  23.165  0.00  0.00    +0.000 A 
ATOM     27  C   UNL     1      17.692  -2.732  22.456  0.00  0.00    +0.000 A 
ENDBRANCH  14  16
ENDBRANCH  13  14
ENDBRANCH   7   4
TORSDOF 5
ENDMDL
MODEL 9
REMARK VINA RESULT:      -6.7      3.550      6.164
REMARK  Name = 25338314
REMARK  7 active torsions:
REMARK  status: ('A' for Active; 'I' for Inactive)
REMARK    1  A    between atoms: N_3  and  C_12
REMARK    2  A    between atoms: N_4  and  C_7
REMARK    3  A    between atoms: C_8  and  C_11
REMARK    4  A    between atoms: C_13  and  C_14
REMARK    5  A    between atoms: C_14  and  C_16
REMARK    6  A    between atoms: C_15  and  C_17
REMARK    7  A    between atoms: C_24  and  C_28
REMARK                            x       y       z     vdW  Elec       q    Type
REMARK                         _______ _______ _______ _____ _____    ______ ____
ROOT
ATOM      3  N   UNL     1      15.950  10.179  20.565  0.00  0.00    -0.293 NA
ATOM      7  C   UNL     1      14.014   9.517  21.682  0.00  0.00    +0.089 C 
ATOM      8  C   UNL     1      16.445   9.279  21.625  0.00  0.00    +0.147 C 
ATOM      9  C   UNL     1      15.170   8.712  22.278  0.00  0.00    +0.052 C 
ATOM     10  C   UNL     1      14.689  10.734  21.066  0.00  0.00    +0.107 C 
ATOM     12  C   UNL     1      16.902  11.225  20.210  0.00  0.00    +0.105 C 
ENDROOT
BRANCH   8  11
ATOM      1  O   UNL     1      16.833   7.310  20.230  0.00  0.00    -0.336 OA
ATOM      5  N   UNL     1      18.626   7.972  21.398  0.00  0.00    -0.190 NA
ATOM      6  N   UNL     1      17.861   6.415  19.907  0.00  0.00    -0.056 NA
ATOM     11  C   UNL     1      17.368   8.194  21.113  0.00  0.00    +0.245 A 
ATOM     15  C   UNL     1      18.884   6.870  20.634  0.00  0.00    +0.202 A 
BRANCH  15  17
ATOM     17  C   UNL     1      20.177   6.251  20.620  0.00  0.00    +0.022 A 
ATOM     20  C   UNL     1      20.286   4.860  20.663  0.00  0.00    +0.012 A 
ATOM     21  C   UNL     1      21.327   7.038  20.561  0.00  0.00    +0.012 A 
ATOM     22  C   UNL     1      21.544   4.258  20.649  0.00  0.00    +0.004 A 
ATOM     23  C   UNL     1      22.586   6.436  20.547  0.00  0.00    +0.004 A 
ATOM     24  C   UNL     1      22.694   5.045  20.591  0.00  0.00    -0.050 A 
ATOM     28  C   UNL     1      24.039   4.402  20.576  0.00  0.00    +0.044 C 
ENDBRANCH  15  17
ENDBRANCH   8  11
BRANCH   7   4
ATOM      2  O   UNL     1      11.262   9.857  20.914  0.00  0.00    -0.275 OA
ATOM      4  N   UNL     1      13.293   8.757  20.689  0.00  0.00    -0.311 N 
ATOM     13  C   UNL     1      11.960   8.996  20.387  0.00  0.00    +0.218 C 
ATOM     29  H   UNL     1      13.777   7.979  20.248  0.00  0.00    +0.149 HD
BRANCH  13  14
ATOM     14  C   UNL     1      11.459   8.059  19.304  0.00  0.00    +0.130 C 
BRANCH  14  16
ATOM     16  C   UNL     1      11.674   8.589  17.911  0.00  0.00    -0.039 A 
ATOM     18  C   UNL     1      10.618   8.609  17.001  0.00  0.00    +0.004 A 
ATOM     19  C   UNL     1      12.931   9.062  17.531  0.00  0.00    +0.004 A 
ATOM     25  C   UNL     1      10.817   9.100  15.710  0.00  0.00    +0.000 A 
ATOM     26  C   UNL     1      13.131   9.553  16.242  0.00  0.00    +0.000 A 
ATOM     27  C   UNL     1      12.074   9.573  15.331  0.00  0.00    +0.000 A 
ENDBRANCH  14  16
ENDBRANCH  13  14
ENDBRANCH   7   4
TORSDOF 5
ENDMDL
MODEL 10
REMARK VINA RESULT:      -6.7     26.718     29.529
REMARK  Name = 25338314
REMARK  7 active torsions:
REMARK  status: ('A' for Active; 'I' for Inactive)
REMARK    1  A    between atoms: N_3  and  C_12
REMARK    2  A    between atoms: N_4  and  C_7
REMARK    3  A    between atoms: C_8  and  C_11
REMARK    4  A    between atoms: C_13  and  C_14
REMARK    5  A    between atoms: C_14  and  C_16
REMARK    6  A    between atoms: C_15  and  C_17
REMARK    7  A    between atoms: C_24  and  C_28
REMARK                            x       y       z     vdW  Elec       q    Type
REMARK                         _______ _______ _______ _____ _____    ______ ____
ROOT
ATOM      3  N   UNL     1      -2.953 -12.649  14.056  0.00  0.00    -0.293 NA
ATOM      7  C   UNL     1      -2.089 -10.922  12.749  0.00  0.00    +0.089 C 
ATOM      8  C   UNL     1      -2.575 -11.618  15.041  0.00  0.00    +0.147 C 
ATOM      9  C   UNL     1      -2.144 -10.408  14.189  0.00  0.00    +0.052 C 
ATOM     10  C   UNL     1      -2.080 -12.437  12.897  0.00  0.00    +0.107 C 
ATOM     12  C   UNL     1      -2.845 -14.007  14.577  0.00  0.00    +0.105 C 
ENDROOT
BRANCH   8  11
ATOM      1  O   UNL     1      -3.373 -11.343  17.335  0.00  0.00    -0.336 OA
ATOM      5  N   UNL     1      -4.921 -10.924  15.772  0.00  0.00    -0.190 NA
ATOM      6  N   UNL     1      -4.539 -10.992  18.026  0.00  0.00    -0.056 NA
ATOM     11  C   UNL     1      -3.684 -11.277  16.014  0.00  0.00    +0.245 A 
ATOM     15  C   UNL     1      -5.406 -10.760  17.038  0.00  0.00    +0.202 A 
BRANCH  15  17
ATOM     17  C   UNL     1      -6.762 -10.362  17.278  0.00  0.00    +0.022 A 
ATOM     20  C   UNL     1      -7.326  -9.320  16.540  0.00  0.00    +0.012 A 
ATOM     21  C   UNL     1      -7.520 -11.017  18.249  0.00  0.00    +0.012 A 
ATOM     22  C   UNL     1      -8.645  -8.933  16.774  0.00  0.00    +0.004 A 
ATOM     23  C   UNL     1      -8.840 -10.630  18.483  0.00  0.00    +0.004 A 
ATOM     24  C   UNL     1      -9.402  -9.588  17.745  0.00  0.00    -0.050 A 
ATOM     28  C   UNL     1     -10.813  -9.174  17.996  0.00  0.00    +0.044 C 
ENDBRANCH  15  17
ENDBRANCH   8  11
BRANCH   7   4
ATOM      2  O   UNL     1      -2.052  -9.157  10.478  0.00  0.00    -0.275 OA
ATOM      4  N   UNL     1      -3.228 -10.476  11.983  0.00  0.00    -0.311 N 
ATOM     13  C   UNL     1      -3.109  -9.619  10.897  0.00  0.00    +0.218 C 
ATOM     29  H   UNL     1      -4.151 -10.759  12.300  0.00  0.00    +0.149 HD
BRANCH  13  14
ATOM     14  C   UNL     1      -4.459  -9.321  10.274  0.00  0.00    +0.130 C 
BRANCH  14  16
ATOM     16  C   UNL     1      -4.707 -10.084   8.999  0.00  0.00    -0.039 A 
ATOM     18  C   UNL     1      -4.273 -11.403   8.878  0.00  0.00    +0.004 A 
ATOM     19  C   UNL     1      -5.374  -9.470   7.938  0.00  0.00    +0.004 A 
ATOM     25  C   UNL     1      -4.503 -12.110   7.697  0.00  0.00    +0.000 A 
ATOM     26  C   UNL     1      -5.605 -10.175   6.757  0.00  0.00    +0.000 A 
ATOM     27  C   UNL     1      -5.169 -11.495   6.637  0.00  0.00    +0.000 A 
ENDBRANCH  14  16
ENDBRANCH  13  14
ENDBRANCH   7   4
TORSDOF 5
ENDMDL
