MODEL 1
REMARK VINA RESULT:      -7.1      0.000      0.000
REMARK  Name = 45360914
REMARK  8 active torsions:
REMARK  status: ('A' for Active; 'I' for Inactive)
REMARK    1  A    between atoms: N_4  and  C_19
REMARK    2  A    between atoms: N_5  and  C_17
REMARK    3  A    between atoms: N_9  and  C_25
REMARK    4  A    between atoms: C_14  and  C_18
REMARK    5  A    between atoms: C_17  and  C_21
REMARK    6  A    between atoms: C_18  and  C_20
REMARK    7  A    between atoms: C_20  and  C_22
REMARK    8  A    between atoms: C_25  and  C_26
REMARK                            x       y       z     vdW  Elec       q    Type
REMARK                         _______ _______ _______ _____ _____    ______ ____
ROOT
ATOM      2  O   UNL     1      -5.678  -9.637   7.374  0.00  0.00    -0.274 OA
ATOM      4  N   UNL     1      -5.913 -10.133  11.206  0.00  0.00    -0.296 NA
ATOM      5  N   UNL     1      -7.696  -8.310   8.582  0.00  0.00    -0.283 NA
ATOM      6  N   UNL     1      -4.173  -9.297   9.063  0.00  0.00    -0.312 N 
ATOM     10  C   UNL     1      -6.772  -9.037  10.705  0.00  0.00    +0.084 C 
ATOM     11  C   UNL     1      -6.428  -8.396   9.329  0.00  0.00    +0.161 C 
ATOM     12  C   UNL     1      -8.247  -9.437  10.512  0.00  0.00    +0.036 C 
ATOM     13  C   UNL     1      -8.775  -8.384   9.561  0.00  0.00    +0.087 C 
ATOM     14  C   UNL     1      -4.503  -9.737  11.478  0.00  0.00    +0.074 C 
ATOM     15  C   UNL     1      -5.423  -9.178   8.485  0.00  0.00    +0.232 C 
ATOM     16  C   UNL     1      -3.864  -8.837  10.402  0.00  0.00    +0.123 C 
ATOM     19  C   UNL     1      -6.506 -10.758  12.400  0.00  0.00    +0.105 C 
ATOM     32  H   UNL     1      -3.451  -9.786   8.543  0.00  0.00    +0.149 HD
ENDROOT
BRANCH   5  17
ATOM     17  C   UNL     1      -7.795  -7.120   7.747  0.00  0.00    +0.159 C 
BRANCH  17  21
ATOM      7  N   UNL     1      -7.156  -7.900   5.456  0.00  0.00    -0.347 N 
ATOM      8  N   UNL     1      -9.297  -7.386   5.741  0.00  0.00    -0.239 NA
ATOM     21  C   UNL     1      -8.120  -7.460   6.320  0.00  0.00    +0.121 A 
ATOM     23  C   UNL     1      -7.758  -8.121   4.249  0.00  0.00    +0.104 A 
ATOM     24  C   UNL     1      -9.079  -7.797   4.450  0.00  0.00    +0.130 A 
ATOM     33  H   UNL     1      -6.177  -8.038   5.670  0.00  0.00    +0.167 HD
ENDBRANCH  17  21
ENDBRANCH   5  17
BRANCH  14  18
ATOM     18  C   UNL     1      -3.611 -10.987  11.628  0.00  0.00    +0.029 C 
BRANCH  18  20
ATOM     20  C   UNL     1      -2.308 -10.635  12.322  0.00  0.00    +0.097 C 
BRANCH  20  22
ATOM      3  O   UNL     1      -1.760 -12.336  13.955  0.00  0.00    -0.276 OA
ATOM      9  N   UNL     1      -2.777 -10.374  14.666  0.00  0.00    -0.311 N 
ATOM     22  C   UNL     1      -2.238 -11.230  13.717  0.00  0.00    +0.213 C 
ATOM     34  H   UNL     1      -3.135  -9.467  14.377  0.00  0.00    +0.149 HD
BRANCH   9  25
ATOM     25  C   UNL     1      -2.829 -10.711  16.069  0.00  0.00    +0.139 C 
BRANCH  25  26
ATOM      1  F   UNL     1      -7.986 -10.010  18.218  0.00  0.00    -0.205 F 
ATOM     26  C   UNL     1      -4.203 -10.525  16.642  0.00  0.00    -0.030 A 
ATOM     27  C   UNL     1      -4.497 -11.002  17.920  0.00  0.00    +0.008 A 
ATOM     28  C   UNL     1      -5.187  -9.874  15.897  0.00  0.00    +0.008 A 
ATOM     29  C   UNL     1      -5.775 -10.828  18.452  0.00  0.00    +0.038 A 
ATOM     30  C   UNL     1      -6.465  -9.700  16.430  0.00  0.00    +0.038 A 
ATOM     31  C   UNL     1      -6.758 -10.178  17.707  0.00  0.00    +0.123 A 
ENDBRANCH  25  26
ENDBRANCH   9  25
ENDBRANCH  20  22
ENDBRANCH  18  20
ENDBRANCH  14  18
TORSDOF 7
ENDMDL
MODEL 2
REMARK VINA RESULT:      -6.8     28.451     31.120
REMARK  Name = 45360914
REMARK  8 active torsions:
REMARK  status: ('A' for Active; 'I' for Inactive)
REMARK    1  A    between atoms: N_4  and  C_19
REMARK    2  A    between atoms: N_5  and  C_17
REMARK    3  A    between atoms: N_9  and  C_25
REMARK    4  A    between atoms: C_14  and  C_18
REMARK    5  A    between atoms: C_17  and  C_21
REMARK    6  A    between atoms: C_18  and  C_20
REMARK    7  A    between atoms: C_20  and  C_22
REMARK    8  A    between atoms: C_25  and  C_26
REMARK                            x       y       z     vdW  Elec       q    Type
REMARK                         _______ _______ _______ _____ _____    ______ ____
ROOT
ATOM      2  O   UNL     1      14.546   7.339  22.376  0.00  0.00    -0.274 OA
ATOM      4  N   UNL     1      17.757   9.164  21.217  0.00  0.00    -0.296 NA
ATOM      5  N   UNL     1      14.248   8.922  20.209  0.00  0.00    -0.283 NA
ATOM      6  N   UNL     1      16.620   6.575  21.785  0.00  0.00    -0.312 N 
ATOM     10  C   UNL     1      16.653   9.242  20.234  0.00  0.00    +0.084 C 
ATOM     11  C   UNL     1      15.518   8.180  20.309  0.00  0.00    +0.161 C 
ATOM     12  C   UNL     1      15.862  10.562  20.287  0.00  0.00    +0.036 C 
ATOM     13  C   UNL     1      14.554  10.214  19.606  0.00  0.00    +0.087 C 
ATOM     14  C   UNL     1      18.584   7.929  21.120  0.00  0.00    +0.074 C 
ATOM     15  C   UNL     1      15.492   7.351  21.592  0.00  0.00    +0.232 C 
ATOM     16  C   UNL     1      17.783   6.627  20.923  0.00  0.00    +0.123 C 
ATOM     19  C   UNL     1      18.614  10.359  21.138  0.00  0.00    +0.105 C 
ATOM     32  H   UNL     1      16.657   5.982  22.608  0.00  0.00    +0.149 HD
ENDROOT
BRANCH   5  17
ATOM     17  C   UNL     1      13.216   8.204  19.471  0.00  0.00    +0.159 C 
BRANCH  17  21
ATOM      7  N   UNL     1      12.215   6.252  20.676  0.00  0.00    -0.347 N 
ATOM      8  N   UNL     1      11.209   8.206  20.995  0.00  0.00    -0.239 NA
ATOM     21  C   UNL     1      12.196   7.588  20.386  0.00  0.00    +0.121 A 
ATOM     23  C   UNL     1      11.172   6.003  21.523  0.00  0.00    +0.104 A 
ATOM     24  C   UNL     1      10.567   7.224  21.706  0.00  0.00    +0.130 A 
ATOM     33  H   UNL     1      12.878   5.573  20.328  0.00  0.00    +0.167 HD
ENDBRANCH  17  21
ENDBRANCH   5  17
BRANCH  14  18
ATOM     18  C   UNL     1      19.447   7.757  22.388  0.00  0.00    +0.029 C 
BRANCH  18  20
ATOM     20  C   UNL     1      20.873   7.392  22.020  0.00  0.00    +0.097 C 
BRANCH  20  22
ATOM      3  O   UNL     1      21.284   5.503  23.477  0.00  0.00    -0.276 OA
ATOM      9  N   UNL     1      21.320   5.184  21.178  0.00  0.00    -0.311 N 
ATOM     22  C   UNL     1      21.178   5.938  22.333  0.00  0.00    +0.213 C 
ATOM     34  H   UNL     1      21.197   5.628  20.271  0.00  0.00    +0.149 HD
BRANCH   9  25
ATOM     25  C   UNL     1      21.614   3.771  21.210  0.00  0.00    +0.139 C 
BRANCH  25  26
ATOM      1  F   UNL     1      27.020   2.710  20.049  0.00  0.00    -0.205 F 
ATOM     26  C   UNL     1      23.054   3.488  20.900  0.00  0.00    -0.030 A 
ATOM     27  C   UNL     1      23.847   4.473  20.311  0.00  0.00    +0.008 A 
ATOM     28  C   UNL     1      23.601   2.240  21.202  0.00  0.00    +0.008 A 
ATOM     29  C   UNL     1      25.187   4.211  20.023  0.00  0.00    +0.038 A 
ATOM     30  C   UNL     1      24.941   1.978  20.915  0.00  0.00    +0.038 A 
ATOM     31  C   UNL     1      25.733   2.963  20.325  0.00  0.00    +0.123 A 
ENDBRANCH  25  26
ENDBRANCH   9  25
ENDBRANCH  20  22
ENDBRANCH  18  20
ENDBRANCH  14  18
TORSDOF 7
ENDMDL
MODEL 3
REMARK VINA RESULT:      -6.8      4.680      7.759
REMARK  Name = 45360914
REMARK  8 active torsions:
REMARK  status: ('A' for Active; 'I' for Inactive)
REMARK    1  A    between atoms: N_4  and  C_19
REMARK    2  A    between atoms: N_5  and  C_17
REMARK    3  A    between atoms: N_9  and  C_25
REMARK    4  A    between atoms: C_14  and  C_18
REMARK    5  A    between atoms: C_17  and  C_21
REMARK    6  A    between atoms: C_18  and  C_20
REMARK    7  A    between atoms: C_20  and  C_22
REMARK    8  A    between atoms: C_25  and  C_26
REMARK                            x       y       z     vdW  Elec       q    Type
REMARK                         _______ _______ _______ _____ _____    ______ ____
ROOT
ATOM      2  O   UNL     1      -8.345 -10.082  15.077  0.00  0.00    -0.274 OA
ATOM      4  N   UNL     1      -5.858 -11.531  17.666  0.00  0.00    -0.296 NA
ATOM      5  N   UNL     1      -9.188 -10.012  17.641  0.00  0.00    -0.283 NA
ATOM      6  N   UNL     1      -6.167  -9.578  15.565  0.00  0.00    -0.312 N 
ATOM     10  C   UNL     1      -6.980 -10.789  18.284  0.00  0.00    +0.084 C 
ATOM     11  C   UNL     1      -7.753  -9.755  17.415  0.00  0.00    +0.161 C 
ATOM     12  C   UNL     1      -8.118 -11.691  18.798  0.00  0.00    +0.036 C 
ATOM     13  C   UNL     1      -9.297 -10.747  18.896  0.00  0.00    +0.087 C 
ATOM     14  C   UNL     1      -4.713 -10.677  17.242  0.00  0.00    +0.074 C 
ATOM     15  C   UNL     1      -7.479  -9.839  15.915  0.00  0.00    +0.232 C 
ATOM     16  C   UNL     1      -5.109  -9.367  16.533  0.00  0.00    +0.123 C 
ATOM     19  C   UNL     1      -5.390 -12.608  18.555  0.00  0.00    +0.105 C 
ATOM     32  H   UNL     1      -5.923  -9.595  14.580  0.00  0.00    +0.149 HD
ENDROOT
BRANCH   5  17
ATOM     17  C   UNL     1      -9.998  -8.801  17.642  0.00  0.00    +0.159 C 
BRANCH  17  21
ATOM      7  N   UNL     1     -11.241  -9.898  15.767  0.00  0.00    -0.347 N 
ATOM      8  N   UNL     1     -12.215  -8.114  16.661  0.00  0.00    -0.239 NA
ATOM     21  C   UNL     1     -11.168  -8.907  16.706  0.00  0.00    +0.121 A 
ATOM     23  C   UNL     1     -12.409  -9.726  15.080  0.00  0.00    +0.104 A 
ATOM     24  C   UNL     1     -12.993  -8.619  15.650  0.00  0.00    +0.130 A 
ATOM     33  H   UNL     1     -10.557 -10.626  15.610  0.00  0.00    +0.167 HD
ENDBRANCH  17  21
ENDBRANCH   5  17
BRANCH  14  18
ATOM     18  C   UNL     1      -3.781 -11.457  16.292  0.00  0.00    +0.029 C 
BRANCH  18  20
ATOM     20  C   UNL     1      -2.375 -10.887  16.332  0.00  0.00    +0.097 C 
BRANCH  20  22
ATOM      3  O   UNL     1      -1.131  -9.573  14.723  0.00  0.00    -0.276 OA
ATOM      9  N   UNL     1      -2.380 -11.383  13.979  0.00  0.00    -0.311 N 
ATOM     22  C   UNL     1      -1.880 -10.521  14.944  0.00  0.00    +0.213 C 
ATOM     34  H   UNL     1      -2.981 -12.154  14.258  0.00  0.00    +0.149 HD
BRANCH   9  25
ATOM     25  C   UNL     1      -2.055 -11.245  12.579  0.00  0.00    +0.139 C 
BRANCH  25  26
ATOM      1  F   UNL     1      -5.777  -8.013   9.858  0.00  0.00    -0.205 F 
ATOM     26  C   UNL     1      -3.047 -10.384  11.854  0.00  0.00    -0.030 A 
ATOM     27  C   UNL     1      -4.342 -10.239  12.353  0.00  0.00    +0.008 A 
ATOM     28  C   UNL     1      -2.675  -9.727  10.680  0.00  0.00    +0.008 A 
ATOM     29  C   UNL     1      -5.264  -9.438  11.679  0.00  0.00    +0.038 A 
ATOM     30  C   UNL     1      -3.597  -8.926  10.006  0.00  0.00    +0.038 A 
ATOM     31  C   UNL     1      -4.891  -8.782  10.506  0.00  0.00    +0.123 A 
ENDBRANCH  25  26
ENDBRANCH   9  25
ENDBRANCH  20  22
ENDBRANCH  18  20
ENDBRANCH  14  18
TORSDOF 7
ENDMDL
MODEL 4
REMARK VINA RESULT:      -6.7      2.985      5.889
REMARK  Name = 45360914
REMARK  8 active torsions:
REMARK  status: ('A' for Active; 'I' for Inactive)
REMARK    1  A    between atoms: N_4  and  C_19
REMARK    2  A    between atoms: N_5  and  C_17
REMARK    3  A    between atoms: N_9  and  C_25
REMARK    4  A    between atoms: C_14  and  C_18
REMARK    5  A    between atoms: C_17  and  C_21
REMARK    6  A    between atoms: C_18  and  C_20
REMARK    7  A    between atoms: C_20  and  C_22
REMARK    8  A    between atoms: C_25  and  C_26
REMARK                            x       y       z     vdW  Elec       q    Type
REMARK                         _______ _______ _______ _____ _____    ______ ____
ROOT
ATOM      2  O   UNL     1      -5.937  -9.634  13.242  0.00  0.00    -0.274 OA
ATOM      4  N   UNL     1      -3.165 -10.853  15.655  0.00  0.00    -0.296 NA
ATOM      5  N   UNL     1      -3.805 -10.787  12.052  0.00  0.00    -0.283 NA
ATOM      6  N   UNL     1      -5.973 -11.066  15.026  0.00  0.00    -0.312 N 
ATOM     10  C   UNL     1      -2.994 -11.348  14.270  0.00  0.00    +0.084 C 
ATOM     11  C   UNL     1      -4.238 -11.374  13.334  0.00  0.00    +0.161 C 
ATOM     12  C   UNL     1      -1.983 -10.537  13.438  0.00  0.00    +0.036 C 
ATOM     13  C   UNL     1      -2.350 -10.880  12.009  0.00  0.00    +0.087 C 
ATOM     14  C   UNL     1      -4.076 -11.678  16.497  0.00  0.00    +0.074 C 
ATOM     15  C   UNL     1      -5.445 -10.588  13.841  0.00  0.00    +0.232 C 
ATOM     16  C   UNL     1      -5.370 -12.136  15.795  0.00  0.00    +0.123 C 
ATOM     19  C   UNL     1      -1.861 -10.695  16.319  0.00  0.00    +0.105 C 
ATOM     32  H   UNL     1      -6.791 -10.602  15.406  0.00  0.00    +0.149 HD
ENDROOT
BRANCH   5  17
ATOM     17  C   UNL     1      -4.428 -11.411  10.892  0.00  0.00    +0.159 C 
BRANCH  17  21
ATOM      7  N   UNL     1      -5.645  -9.287  10.370  0.00  0.00    -0.347 N 
ATOM      8  N   UNL     1      -4.881 -10.420   8.620  0.00  0.00    -0.239 NA
ATOM     21  C   UNL     1      -4.971 -10.392   9.931  0.00  0.00    +0.121 A 
ATOM     23  C   UNL     1      -6.007  -8.564   9.269  0.00  0.00    +0.104 A 
ATOM     24  C   UNL     1      -5.524  -9.282   8.201  0.00  0.00    +0.130 A 
ATOM     33  H   UNL     1      -5.839  -9.047  11.333  0.00  0.00    +0.167 HD
ENDBRANCH  17  21
ENDBRANCH   5  17
BRANCH  14  18
ATOM     18  C   UNL     1      -4.485 -10.904  17.767  0.00  0.00    +0.029 C 
BRANCH  18  20
ATOM     20  C   UNL     1      -4.420 -11.803  18.988  0.00  0.00    +0.097 C 
BRANCH  20  22
ATOM      3  O   UNL     1      -5.849 -11.163  20.834  0.00  0.00    -0.276 OA
ATOM      9  N   UNL     1      -6.710 -12.515  19.155  0.00  0.00    -0.311 N 
ATOM     22  C   UNL     1      -5.717 -11.773  19.776  0.00  0.00    +0.213 C 
ATOM     34  H   UNL     1      -6.514 -12.974  18.269  0.00  0.00    +0.149 HD
BRANCH   9  25
ATOM     25  C   UNL     1      -8.038 -12.644  19.708  0.00  0.00    +0.139 C 
BRANCH  25  26
ATOM      1  F   UNL     1     -11.461  -8.533  17.952  0.00  0.00    -0.205 F 
ATOM     26  C   UNL     1      -8.950 -11.548  19.240  0.00  0.00    -0.030 A 
ATOM     27  C   UNL     1     -10.013 -11.135  20.044  0.00  0.00    +0.008 A 
ATOM     28  C   UNL     1      -8.735 -10.943  18.002  0.00  0.00    +0.008 A 
ATOM     29  C   UNL     1     -10.862 -10.116  19.609  0.00  0.00    +0.038 A 
ATOM     30  C   UNL     1      -9.584  -9.924  17.567  0.00  0.00    +0.038 A 
ATOM     31  C   UNL     1     -10.647  -9.512  18.370  0.00  0.00    +0.123 A 
ENDBRANCH  25  26
ENDBRANCH   9  25
ENDBRANCH  20  22
ENDBRANCH  18  20
ENDBRANCH  14  18
TORSDOF 7
ENDMDL
MODEL 5
REMARK VINA RESULT:      -6.7     27.816     30.255
REMARK  Name = 45360914
REMARK  8 active torsions:
REMARK  status: ('A' for Active; 'I' for Inactive)
REMARK    1  A    between atoms: N_4  and  C_19
REMARK    2  A    between atoms: N_5  and  C_17
REMARK    3  A    between atoms: N_9  and  C_25
REMARK    4  A    between atoms: C_14  and  C_18
REMARK    5  A    between atoms: C_17  and  C_21
REMARK    6  A    between atoms: C_18  and  C_20
REMARK    7  A    between atoms: C_20  and  C_22
REMARK    8  A    between atoms: C_25  and  C_26
REMARK                            x       y       z     vdW  Elec       q    Type
REMARK                         _______ _______ _______ _____ _____    ______ ____
ROOT
ATOM      2  O   UNL     1      13.076   7.090  21.975  0.00  0.00    -0.274 OA
ATOM      4  N   UNL     1      16.642   8.397  21.227  0.00  0.00    -0.296 NA
ATOM      5  N   UNL     1      13.209   9.663  21.167  0.00  0.00    -0.283 NA
ATOM      6  N   UNL     1      14.720   6.350  20.567  0.00  0.00    -0.312 N 
ATOM     10  C   UNL     1      15.575   9.309  20.757  0.00  0.00    +0.084 C 
ATOM     11  C   UNL     1      14.150   8.725  20.527  0.00  0.00    +0.161 C 
ATOM     12  C   UNL     1      15.290  10.483  21.712  0.00  0.00    +0.036 C 
ATOM     13  C   UNL     1      13.904  10.938  21.306  0.00  0.00    +0.087 C 
ATOM     14  C   UNL     1      16.986   7.306  20.273  0.00  0.00    +0.074 C 
ATOM     15  C   UNL     1      13.919   7.334  21.115  0.00  0.00    +0.232 C 
ATOM     16  C   UNL     1      15.776   6.619  19.611  0.00  0.00    +0.123 C 
ATOM     19  C   UNL     1      17.851   9.153  21.595  0.00  0.00    +0.105 C 
ATOM     32  H   UNL     1      14.601   5.398  20.897  0.00  0.00    +0.149 HD
ENDROOT
BRANCH   5  17
ATOM     17  C   UNL     1      11.951   9.801  20.445  0.00  0.00    +0.159 C 
BRANCH  17  21
ATOM      7  N   UNL     1      11.429   8.378  18.453  0.00  0.00    -0.347 N 
ATOM      8  N   UNL     1      12.830  10.063  18.098  0.00  0.00    -0.239 NA
ATOM     21  C   UNL     1      12.094   9.443  18.993  0.00  0.00    +0.121 A 
ATOM     23  C   UNL     1      11.762   8.315  17.130  0.00  0.00    +0.104 A 
ATOM     24  C   UNL     1      12.627   9.366  16.935  0.00  0.00    +0.130 A 
ATOM     33  H   UNL     1      10.804   7.751  18.943  0.00  0.00    +0.167 HD
ENDBRANCH  17  21
ENDBRANCH   5  17
BRANCH  14  18
ATOM     18  C   UNL     1      17.813   6.212  20.981  0.00  0.00    +0.029 C 
BRANCH  18  20
ATOM     20  C   UNL     1      18.882   5.664  20.054  0.00  0.00    +0.097 C 
BRANCH  20  22
ATOM      3  O   UNL     1      20.542   6.794  21.406  0.00  0.00    -0.276 OA
ATOM      9  N   UNL     1      21.191   4.995  20.089  0.00  0.00    -0.311 N 
ATOM     22  C   UNL     1      20.276   5.901  20.605  0.00  0.00    +0.213 C 
ATOM     34  H   UNL     1      20.876   4.277  19.442  0.00  0.00    +0.149 HD
BRANCH   9  25
ATOM     25  C   UNL     1      22.587   5.014  20.459  0.00  0.00    +0.139 C 
BRANCH  25  26
ATOM      1  F   UNL     1      24.019   0.511  23.520  0.00  0.00    -0.205 F 
ATOM     26  C   UNL     1      22.969   3.814  21.274  0.00  0.00    -0.030 A 
ATOM     27  C   UNL     1      23.725   2.791  20.700  0.00  0.00    +0.008 A 
ATOM     28  C   UNL     1      22.568   3.720  22.608  0.00  0.00    +0.008 A 
ATOM     29  C   UNL     1      24.080   1.675  21.458  0.00  0.00    +0.038 A 
ATOM     30  C   UNL     1      22.923   2.604  23.366  0.00  0.00    +0.038 A 
ATOM     31  C   UNL     1      23.678   1.582  22.791  0.00  0.00    +0.123 A 
ENDBRANCH  25  26
ENDBRANCH   9  25
ENDBRANCH  20  22
ENDBRANCH  18  20
ENDBRANCH  14  18
TORSDOF 7
ENDMDL
MODEL 6
REMARK VINA RESULT:      -6.6      5.633      7.162
REMARK  Name = 45360914
REMARK  8 active torsions:
REMARK  status: ('A' for Active; 'I' for Inactive)
REMARK    1  A    between atoms: N_4  and  C_19
REMARK    2  A    between atoms: N_5  and  C_17
REMARK    3  A    between atoms: N_9  and  C_25
REMARK    4  A    between atoms: C_14  and  C_18
REMARK    5  A    between atoms: C_17  and  C_21
REMARK    6  A    between atoms: C_18  and  C_20
REMARK    7  A    between atoms: C_20  and  C_22
REMARK    8  A    between atoms: C_25  and  C_26
REMARK                            x       y       z     vdW  Elec       q    Type
REMARK                         _______ _______ _______ _____ _____    ______ ____
ROOT
ATOM      2  O   UNL     1     -10.425  -5.889  15.452  0.00  0.00    -0.274 OA
ATOM      4  N   UNL     1      -9.211  -9.563  15.319  0.00  0.00    -0.296 NA
ATOM      5  N   UNL     1     -11.963  -7.554  13.984  0.00  0.00    -0.283 NA
ATOM      6  N   UNL     1      -9.978  -7.420  17.092  0.00  0.00    -0.312 N 
ATOM     10  C   UNL     1     -10.580  -9.380  14.786  0.00  0.00    +0.084 C 
ATOM     11  C   UNL     1     -11.380  -8.115  15.217  0.00  0.00    +0.161 C 
ATOM     12  C   UNL     1     -10.646  -9.293  13.250  0.00  0.00    +0.036 C 
ATOM     13  C   UNL     1     -11.979  -8.623  12.992  0.00  0.00    +0.087 C 
ATOM     14  C   UNL     1      -9.143  -9.733  16.797  0.00  0.00    +0.074 C 
ATOM     15  C   UNL     1     -10.552  -7.028  15.897  0.00  0.00    +0.232 C 
ATOM     16  C   UNL     1     -10.042  -8.775  17.603  0.00  0.00    +0.123 C 
ATOM     19  C   UNL     1      -8.533 -10.682  14.644  0.00  0.00    +0.105 C 
ATOM     32  H   UNL     1      -9.433  -6.737  17.608  0.00  0.00    +0.149 HD
ENDROOT
BRANCH   5  17
ATOM     17  C   UNL     1     -13.284  -6.972  14.184  0.00  0.00    +0.159 C 
BRANCH  17  21
ATOM      7  N   UNL     1     -12.303  -4.941  13.099  0.00  0.00    -0.347 N 
ATOM      8  N   UNL     1     -14.509  -4.935  13.345  0.00  0.00    -0.239 NA
ATOM     21  C   UNL     1     -13.404  -5.616  13.547  0.00  0.00    +0.121 A 
ATOM     23  C   UNL     1     -12.734  -3.754  12.579  0.00  0.00    +0.104 A 
ATOM     24  C   UNL     1     -14.099  -3.774  12.741  0.00  0.00    +0.130 A 
ATOM     33  H   UNL     1     -11.344  -5.261  13.144  0.00  0.00    +0.167 HD
ENDBRANCH  17  21
ENDBRANCH   5  17
BRANCH  14  18
ATOM     18  C   UNL     1      -7.695  -9.542  17.296  0.00  0.00    +0.029 C 
BRANCH  18  20
ATOM     20  C   UNL     1      -7.466 -10.310  18.584  0.00  0.00    +0.097 C 
BRANCH  20  22
ATOM      3  O   UNL     1      -6.324 -12.429  18.843  0.00  0.00    -0.276 OA
ATOM      9  N   UNL     1      -5.186 -10.642  17.895  0.00  0.00    -0.311 N 
ATOM     22  C   UNL     1      -6.288 -11.260  18.468  0.00  0.00    +0.213 C 
ATOM     34  H   UNL     1      -5.254  -9.672  17.598  0.00  0.00    +0.149 HD
BRANCH   9  25
ATOM     25  C   UNL     1      -3.938 -11.335  17.677  0.00  0.00    +0.139 C 
BRANCH  25  26
ATOM      1  F   UNL     1      -1.647 -10.037  12.700  0.00  0.00    -0.205 F 
ATOM     26  C   UNL     1      -3.328 -10.989  16.351  0.00  0.00    -0.030 A 
ATOM     27  C   UNL     1      -1.965 -10.703  16.264  0.00  0.00    +0.008 A 
ATOM     28  C   UNL     1      -4.123 -10.954  15.205  0.00  0.00    +0.008 A 
ATOM     29  C   UNL     1      -1.397 -10.382  15.030  0.00  0.00    +0.038 A 
ATOM     30  C   UNL     1      -3.555 -10.632  13.971  0.00  0.00    +0.038 A 
ATOM     31  C   UNL     1      -2.192 -10.346  13.885  0.00  0.00    +0.123 A 
ENDBRANCH  25  26
ENDBRANCH   9  25
ENDBRANCH  20  22
ENDBRANCH  18  20
ENDBRANCH  14  18
TORSDOF 7
ENDMDL
MODEL 7
REMARK VINA RESULT:      -6.3     20.581     24.001
REMARK  Name = 45360914
REMARK  8 active torsions:
REMARK  status: ('A' for Active; 'I' for Inactive)
REMARK    1  A    between atoms: N_4  and  C_19
REMARK    2  A    between atoms: N_5  and  C_17
REMARK    3  A    between atoms: N_9  and  C_25
REMARK    4  A    between atoms: C_14  and  C_18
REMARK    5  A    between atoms: C_17  and  C_21
REMARK    6  A    between atoms: C_18  and  C_20
REMARK    7  A    between atoms: C_20  and  C_22
REMARK    8  A    between atoms: C_25  and  C_26
REMARK                            x       y       z     vdW  Elec       q    Type
REMARK                         _______ _______ _______ _____ _____    ______ ____
ROOT
ATOM      2  O   UNL     1     -16.854   4.957  28.601  0.00  0.00    -0.274 OA
ATOM      4  N   UNL     1     -17.477   1.790  26.463  0.00  0.00    -0.296 NA
ATOM      5  N   UNL     1     -15.737   2.690  29.553  0.00  0.00    -0.283 NA
ATOM      6  N   UNL     1     -16.436   4.480  26.402  0.00  0.00    -0.312 N 
ATOM     10  C   UNL     1     -16.443   1.598  27.504  0.00  0.00    +0.084 C 
ATOM     11  C   UNL     1     -15.736   2.856  28.088  0.00  0.00    +0.161 C 
ATOM     12  C   UNL     1     -16.961   0.902  28.777  0.00  0.00    +0.036 C 
ATOM     13  C   UNL     1     -15.930   1.270  29.823  0.00  0.00    +0.087 C 
ATOM     14  C   UNL     1     -16.971   2.385  25.194  0.00  0.00    +0.074 C 
ATOM     15  C   UNL     1     -16.406   4.187  27.753  0.00  0.00    +0.232 C 
ATOM     16  C   UNL     1     -15.990   3.560  25.375  0.00  0.00    +0.123 C 
ATOM     19  C   UNL     1     -18.184   0.528  26.188  0.00  0.00    +0.105 C 
ATOM     32  H   UNL     1     -16.847   5.362  26.113  0.00  0.00    +0.149 HD
ENDROOT
BRANCH   5  17
ATOM     17  C   UNL     1     -14.536   3.212  30.193  0.00  0.00    +0.159 C 
BRANCH  17  21
ATOM      7  N   UNL     1     -13.848   3.835  32.518  0.00  0.00    -0.347 N 
ATOM      8  N   UNL     1     -15.972   4.225  31.999  0.00  0.00    -0.239 NA
ATOM     21  C   UNL     1     -14.822   3.764  31.560  0.00  0.00    +0.121 A 
ATOM     23  C   UNL     1     -14.414   4.375  33.638  0.00  0.00    +0.104 A 
ATOM     24  C   UNL     1     -15.724   4.608  33.293  0.00  0.00    +0.130 A 
ATOM     33  H   UNL     1     -12.886   3.542  32.416  0.00  0.00    +0.167 HD
ENDBRANCH  17  21
ENDBRANCH   5  17
BRANCH  14  18
ATOM     18  C   UNL     1     -18.145   2.888  24.328  0.00  0.00    +0.029 C 
BRANCH  18  20
ATOM     20  C   UNL     1     -17.987   2.428  22.891  0.00  0.00    +0.097 C 
BRANCH  20  22
ATOM      3  O   UNL     1     -18.976   3.858  21.206  0.00  0.00    -0.276 OA
ATOM      9  N   UNL     1     -16.826   4.314  21.954  0.00  0.00    -0.311 N 
ATOM     22  C   UNL     1     -18.013   3.597  21.923  0.00  0.00    +0.213 C 
ATOM     34  H   UNL     1     -16.087   4.034  22.594  0.00  0.00    +0.149 HD
BRANCH   9  25
ATOM     25  C   UNL     1     -16.602   5.474  21.122  0.00  0.00    +0.139 C 
BRANCH  25  26
ATOM      1  F   UNL     1     -11.198   7.051  21.107  0.00  0.00    -0.205 F 
ATOM     26  C   UNL     1     -15.162   5.894  21.119  0.00  0.00    -0.030 A 
ATOM     27  C   UNL     1     -14.232   5.203  21.896  0.00  0.00    +0.008 A 
ATOM     28  C   UNL     1     -14.753   6.975  20.337  0.00  0.00    +0.008 A 
ATOM     29  C   UNL     1     -12.892   5.594  21.892  0.00  0.00    +0.038 A 
ATOM     30  C   UNL     1     -13.413   7.366  20.334  0.00  0.00    +0.038 A 
ATOM     31  C   UNL     1     -12.484   6.675  21.111  0.00  0.00    +0.123 A 
ENDBRANCH  25  26
ENDBRANCH   9  25
ENDBRANCH  20  22
ENDBRANCH  18  20
ENDBRANCH  14  18
TORSDOF 7
ENDMDL
MODEL 8
REMARK VINA RESULT:      -6.3      5.087      8.064
REMARK  Name = 45360914
REMARK  8 active torsions:
REMARK  status: ('A' for Active; 'I' for Inactive)
REMARK    1  A    between atoms: N_4  and  C_19
REMARK    2  A    between atoms: N_5  and  C_17
REMARK    3  A    between atoms: N_9  and  C_25
REMARK    4  A    between atoms: C_14  and  C_18
REMARK    5  A    between atoms: C_17  and  C_21
REMARK    6  A    between atoms: C_18  and  C_20
REMARK    7  A    between atoms: C_20  and  C_22
REMARK    8  A    between atoms: C_25  and  C_26
REMARK                            x       y       z     vdW  Elec       q    Type
REMARK                         _______ _______ _______ _____ _____    ______ ____
ROOT
ATOM      2  O   UNL     1      -8.195  -8.393  17.092  0.00  0.00    -0.274 OA
ATOM      4  N   UNL     1      -7.020 -12.076  16.885  0.00  0.00    -0.296 NA
ATOM      5  N   UNL     1     -10.147 -10.195  16.611  0.00  0.00    -0.283 NA
ATOM      6  N   UNL     1      -7.046  -9.724  18.556  0.00  0.00    -0.312 N 
ATOM     10  C   UNL     1      -8.492 -11.935  16.960  0.00  0.00    +0.084 C 
ATOM     11  C   UNL     1      -9.081 -10.615  17.539  0.00  0.00    +0.161 C 
ATOM     12  C   UNL     1      -9.199 -12.031  15.596  0.00  0.00    +0.036 C 
ATOM     13  C   UNL     1     -10.540 -11.375  15.848  0.00  0.00    +0.087 C 
ATOM     14  C   UNL     1      -6.331 -12.070  18.206  0.00  0.00    +0.074 C 
ATOM     15  C   UNL     1      -8.083  -9.468  17.677  0.00  0.00    +0.232 C 
ATOM     16  C   UNL     1      -6.843 -11.007  19.198  0.00  0.00    +0.123 C 
ATOM     19  C   UNL     1      -6.648 -13.278  16.121  0.00  0.00    +0.105 C 
ATOM     32  H   UNL     1      -6.360  -8.993  18.712  0.00  0.00    +0.149 HD
ENDROOT
BRANCH   5  17
ATOM     17  C   UNL     1     -11.282  -9.572  17.280  0.00  0.00    +0.159 C 
BRANCH  17  21
ATOM      7  N   UNL     1     -10.774  -7.141  16.964  0.00  0.00    -0.347 N 
ATOM      8  N   UNL     1     -12.612  -7.884  15.963  0.00  0.00    -0.239 NA
ATOM     21  C   UNL     1     -11.588  -8.212  16.718  0.00  0.00    +0.121 A 
ATOM     23  C   UNL     1     -11.315  -6.061  16.325  0.00  0.00    +0.104 A 
ATOM     24  C   UNL     1     -12.448  -6.545  15.714  0.00  0.00    +0.130 A 
ATOM     33  H   UNL     1      -9.928  -7.146  17.517  0.00  0.00    +0.167 HD
ENDBRANCH  17  21
ENDBRANCH   5  17
BRANCH  14  18
ATOM     18  C   UNL     1      -4.816 -11.844  18.023  0.00  0.00    +0.029 C 
BRANCH  18  20
ATOM     20  C   UNL     1      -4.556 -10.648  17.127  0.00  0.00    +0.097 C 
BRANCH  20  22
ATOM      3  O   UNL     1      -2.215 -10.863  16.548  0.00  0.00    -0.276 OA
ATOM      9  N   UNL     1      -3.819 -11.150  14.893  0.00  0.00    -0.311 N 
ATOM     22  C   UNL     1      -3.389 -10.894  16.187  0.00  0.00    +0.213 C 
ATOM     34  H   UNL     1      -4.815 -11.173  14.691  0.00  0.00    +0.149 HD
BRANCH   9  25
ATOM     25  C   UNL     1      -2.898 -11.416  13.813  0.00  0.00    +0.139 C 
BRANCH  25  26
ATOM      1  F   UNL     1      -4.087  -8.366   9.232  0.00  0.00    -0.205 F 
ATOM     26  C   UNL     1      -3.215 -10.603  12.592  0.00  0.00    -0.030 A 
ATOM     27  C   UNL     1      -2.191 -10.221  11.724  0.00  0.00    +0.008 A 
ATOM     28  C   UNL     1      -4.532 -10.230  12.325  0.00  0.00    +0.008 A 
ATOM     29  C   UNL     1      -2.486  -9.465  10.589  0.00  0.00    +0.038 A 
ATOM     30  C   UNL     1      -4.827  -9.474  11.189  0.00  0.00    +0.038 A 
ATOM     31  C   UNL     1      -3.803  -9.092  10.322  0.00  0.00    +0.123 A 
ENDBRANCH  25  26
ENDBRANCH   9  25
ENDBRANCH  20  22
ENDBRANCH  18  20
ENDBRANCH  14  18
TORSDOF 7
ENDMDL
MODEL 9
REMARK VINA RESULT:      -6.3      4.918      9.481
REMARK  Name = 45360914
REMARK  8 active torsions:
REMARK  status: ('A' for Active; 'I' for Inactive)
REMARK    1  A    between atoms: N_4  and  C_19
REMARK    2  A    between atoms: N_5  and  C_17
REMARK    3  A    between atoms: N_9  and  C_25
REMARK    4  A    between atoms: C_14  and  C_18
REMARK    5  A    between atoms: C_17  and  C_21
REMARK    6  A    between atoms: C_18  and  C_20
REMARK    7  A    between atoms: C_20  and  C_22
REMARK    8  A    between atoms: C_25  and  C_26
REMARK                            x       y       z     vdW  Elec       q    Type
REMARK                         _______ _______ _______ _____ _____    ______ ____
ROOT
ATOM      2  O   UNL     1      -6.221 -11.184  20.628  0.00  0.00    -0.274 OA
ATOM      4  N   UNL     1      -5.851 -10.442  16.846  0.00  0.00    -0.296 NA
ATOM      5  N   UNL     1      -8.514 -11.299  19.206  0.00  0.00    -0.283 NA
ATOM      6  N   UNL     1      -4.923 -12.127  18.997  0.00  0.00    -0.312 N 
ATOM     10  C   UNL     1      -7.171 -11.006  17.205  0.00  0.00    +0.084 C 
ATOM     11  C   UNL     1      -7.300 -11.803  18.536  0.00  0.00    +0.161 C 
ATOM     12  C   UNL     1      -8.282  -9.950  17.355  0.00  0.00    +0.036 C 
ATOM     13  C   UNL     1      -9.333 -10.660  18.182  0.00  0.00    +0.087 C 
ATOM     14  C   UNL     1      -4.787 -11.459  16.615  0.00  0.00    +0.074 C 
ATOM     15  C   UNL     1      -6.122 -11.652  19.496  0.00  0.00    +0.232 C 
ATOM     16  C   UNL     1      -4.757 -12.610  17.640  0.00  0.00    +0.123 C 
ATOM     19  C   UNL     1      -5.963  -9.547  15.682  0.00  0.00    +0.105 C 
ATOM     32  H   UNL     1      -4.104 -12.077  19.594  0.00  0.00    +0.149 HD
ENDROOT
BRANCH   5  17
ATOM     17  C   UNL     1      -9.245 -12.332  19.928  0.00  0.00    +0.159 C 
BRANCH  17  21
ATOM      7  N   UNL     1      -8.605 -14.685  19.364  0.00  0.00    -0.347 N 
ATOM      8  N   UNL     1     -10.224 -13.801  18.129  0.00  0.00    -0.239 NA
ATOM     21  C   UNL     1      -9.386 -13.590  19.119  0.00  0.00    +0.121 A 
ATOM     23  C   UNL     1      -8.968 -15.655  18.473  0.00  0.00    +0.104 A 
ATOM     24  C   UNL     1      -9.969 -15.086  17.723  0.00  0.00    +0.130 A 
ATOM     33  H   UNL     1      -7.889 -14.764  20.075  0.00  0.00    +0.167 HD
ENDBRANCH  17  21
ENDBRANCH   5  17
BRANCH  14  18
ATOM     18  C   UNL     1      -3.395 -10.795  16.621  0.00  0.00    +0.029 C 
BRANCH  18  20
ATOM     20  C   UNL     1      -2.443 -11.537  15.700  0.00  0.00    +0.097 C 
BRANCH  20  22
ATOM      3  O   UNL     1      -1.109  -9.657  14.959  0.00  0.00    -0.276 OA
ATOM      9  N   UNL     1      -2.180 -10.976  13.376  0.00  0.00    -0.311 N 
ATOM     22  C   UNL     1      -1.827 -10.611  14.667  0.00  0.00    +0.213 C 
ATOM     34  H   UNL     1      -2.767 -11.794  13.230  0.00  0.00    +0.149 HD
BRANCH   9  25
ATOM     25  C   UNL     1      -1.721 -10.251  12.216  0.00  0.00    +0.139 C 
BRANCH  25  26
ATOM      1  F   UNL     1      -5.414 -10.501   7.973  0.00  0.00    -0.205 F 
ATOM     26  C   UNL     1      -2.705 -10.317  11.085  0.00  0.00    -0.030 A 
ATOM     27  C   UNL     1      -2.992  -9.172  10.342  0.00  0.00    +0.008 A 
ATOM     28  C   UNL     1      -3.333 -11.524  10.777  0.00  0.00    +0.008 A 
ATOM     29  C   UNL     1      -3.907  -9.234   9.290  0.00  0.00    +0.038 A 
ATOM     30  C   UNL     1      -4.248 -11.587   9.725  0.00  0.00    +0.038 A 
ATOM     31  C   UNL     1      -4.535 -10.441   8.983  0.00  0.00    +0.123 A 
ENDBRANCH  25  26
ENDBRANCH   9  25
ENDBRANCH  20  22
ENDBRANCH  18  20
ENDBRANCH  14  18
TORSDOF 7
ENDMDL
MODEL 10
REMARK VINA RESULT:      -6.2     23.615     26.661
REMARK  Name = 45360914
REMARK  8 active torsions:
REMARK  status: ('A' for Active; 'I' for Inactive)
REMARK    1  A    between atoms: N_4  and  C_19
REMARK    2  A    between atoms: N_5  and  C_17
REMARK    3  A    between atoms: N_9  and  C_25
REMARK    4  A    between atoms: C_14  and  C_18
REMARK    5  A    between atoms: C_17  and  C_21
REMARK    6  A    between atoms: C_18  and  C_20
REMARK    7  A    between atoms: C_20  and  C_22
REMARK    8  A    between atoms: C_25  and  C_26
REMARK                            x       y       z     vdW  Elec       q    Type
REMARK                         _______ _______ _______ _____ _____    ______ ____
ROOT
ATOM      2  O   UNL     1     -16.175   4.132  28.269  0.00  0.00    -0.274 OA
ATOM      4  N   UNL     1     -14.037   3.642  31.459  0.00  0.00    -0.296 NA
ATOM      5  N   UNL     1     -15.881   1.570  29.072  0.00  0.00    -0.283 NA
ATOM      6  N   UNL     1     -16.351   4.987  30.384  0.00  0.00    -0.312 N 
ATOM     10  C   UNL     1     -14.773   2.422  31.056  0.00  0.00    +0.084 C 
ATOM     11  C   UNL     1     -16.020   2.579  30.138  0.00  0.00    +0.161 C 
ATOM     12  C   UNL     1     -13.920   1.410  30.268  0.00  0.00    +0.036 C 
ATOM     13  C   UNL     1     -14.952   0.557  29.561  0.00  0.00    +0.087 C 
ATOM     14  C   UNL     1     -14.826   4.590  32.295  0.00  0.00    +0.074 C 
ATOM     15  C   UNL     1     -16.174   3.952  29.486  0.00  0.00    +0.232 C 
ATOM     16  C   UNL     1     -16.275   4.820  31.822  0.00  0.00    +0.123 C 
ATOM     19  C   UNL     1     -12.777   3.292  32.136  0.00  0.00    +0.105 C 
ATOM     32  H   UNL     1     -16.483   5.923  30.015  0.00  0.00    +0.149 HD
ENDROOT
BRANCH   5  17
ATOM     17  C   UNL     1     -17.152   0.993  28.654  0.00  0.00    +0.159 C 
BRANCH  17  21
ATOM      7  N   UNL     1     -16.696   1.924  26.376  0.00  0.00    -0.347 N 
ATOM      8  N   UNL     1     -17.982   0.115  26.442  0.00  0.00    -0.239 NA
ATOM     21  C   UNL     1     -17.299   0.979  27.159  0.00  0.00    +0.121 A 
ATOM     23  C   UNL     1     -17.016   1.644  25.078  0.00  0.00    +0.104 A 
ATOM     24  C   UNL     1     -17.809   0.524  25.144  0.00  0.00    +0.130 A 
ATOM     33  H   UNL     1     -16.119   2.690  26.698  0.00  0.00    +0.167 HD
ENDBRANCH  17  21
ENDBRANCH   5  17
BRANCH  14  18
ATOM     18  C   UNL     1     -14.131   5.966  32.350  0.00  0.00    +0.029 C 
BRANCH  18  20
ATOM     20  C   UNL     1     -13.999   6.443  33.785  0.00  0.00    +0.097 C 
BRANCH  20  22
ATOM      3  O   UNL     1     -12.652   8.253  32.907  0.00  0.00    -0.276 OA
ATOM      9  N   UNL     1     -13.118   8.192  35.180  0.00  0.00    -0.311 N 
ATOM     22  C   UNL     1     -13.184   7.720  33.878  0.00  0.00    +0.213 C 
ATOM     34  H   UNL     1     -13.606   7.693  35.920  0.00  0.00    +0.149 HD
BRANCH   9  25
ATOM     25  C   UNL     1     -12.398   9.394  35.530  0.00  0.00    +0.139 C 
BRANCH  25  26
ATOM      1  F   UNL     1      -7.085   8.308  37.041  0.00  0.00    -0.205 F 
ATOM     26  C   UNL     1     -10.983   9.105  35.933  0.00  0.00    -0.030 A 
ATOM     27  C   UNL     1     -10.720   8.179  36.943  0.00  0.00    +0.008 A 
ATOM     28  C   UNL     1      -9.928   9.761  35.298  0.00  0.00    +0.008 A 
ATOM     29  C   UNL     1      -9.403   7.909  37.318  0.00  0.00    +0.038 A 
ATOM     30  C   UNL     1      -8.611   9.492  35.672  0.00  0.00    +0.038 A 
ATOM     31  C   UNL     1      -8.349   8.566  36.682  0.00  0.00    +0.123 A 
ENDBRANCH  25  26
ENDBRANCH   9  25
ENDBRANCH  20  22
ENDBRANCH  18  20
ENDBRANCH  14  18
TORSDOF 7
ENDMDL
