MODEL 1
REMARK VINA RESULT:      -6.5      0.000      0.000
REMARK  Name = 11882861
REMARK  13 active torsions:
REMARK  status: ('A' for Active; 'I' for Inactive)
REMARK    1  A    between atoms: O_2  and  C_16
REMARK    2  A    between atoms: O_3  and  C_21
REMARK    3  A    between atoms: C_11  and  C_19
REMARK    4  A    between atoms: C_13  and  C_21
REMARK    5  A    between atoms: C_13  and  C_22
REMARK    6  A    between atoms: C_14  and  C_24
REMARK    7  A    between atoms: C_24  and  C_25
REMARK    8  A    between atoms: C_31  and  C_33
REMARK    9  A    between atoms: C_32  and  C_34
REMARK   10  A    between atoms: C_34  and  C_35
REMARK   11  A    between atoms: C_35  and  C_36
REMARK   12  A    between atoms: C_35  and  C_37
REMARK   13  A    between atoms: C_35  and  C_38
REMARK                            x       y       z     vdW  Elec       q    Type
REMARK                         _______ _______ _______ _____ _____    ______ ____
ROOT
ATOM      1  S   UNL     1     -10.720 -11.183  20.095  0.00  0.00    -0.057 S 
ATOM      5  O   UNL     1      -7.099  -9.322  17.829  0.00  0.00    -0.275 OA
ATOM      7  N   UNL     1     -10.031  -9.566  18.198  0.00  0.00    -0.229 NA
ATOM      9  N   UNL     1      -8.247 -10.652  19.402  0.00  0.00    -0.265 N 
ATOM     11  C   UNL     1     -13.766  -9.229  17.304  0.00  0.00    -0.019 C 
ATOM     12  C   UNL     1     -14.228  -9.450  18.812  0.00  0.00    +0.011 C 
ATOM     13  C   UNL     1     -15.780  -9.540  19.080  0.00  0.00    +0.021 C 
ATOM     14  C   UNL     1     -12.246  -8.737  17.321  0.00  0.00    +0.054 C 
ATOM     15  C   UNL     1     -14.632  -8.117  16.658  0.00  0.00    +0.010 C 
ATOM     16  C   UNL     1     -16.497  -8.385  18.325  0.00  0.00    +0.123 C 
ATOM     17  C   UNL     1     -13.407 -10.582  19.497  0.00  0.00    +0.049 C 
ATOM     18  C   UNL     1     -16.131  -8.313  16.847  0.00  0.00    +0.032 C 
ATOM     19  C   UNL     1     -13.883 -10.512  16.445  0.00  0.00    +0.012 C 
ATOM     20  C   UNL     1     -11.412  -9.586  18.247  0.00  0.00    +0.058 A 
ATOM     22  C   UNL     1     -16.044  -9.335  20.598  0.00  0.00    +0.016 C 
ATOM     23  C   UNL     1     -11.953 -10.392  19.228  0.00  0.00    +0.015 A 
ATOM     26  C   UNL     1      -9.559 -10.375  19.121  0.00  0.00    +0.165 A 
ATOM     32  C   UNL     1      -7.117 -10.124  18.757  0.00  0.00    +0.219 C 
ATOM     41  H   UNL     1      -8.103 -11.314  20.160  0.00  0.00    +0.157 HD
ENDROOT
BRANCH  16   2
ATOM      2  O   UNL     1     -17.914  -8.512  18.441  0.00  0.00    -0.391 OA
ATOM     39  H   UNL     1     -18.107  -9.434  18.685  0.00  0.00    +0.210 HD
ENDBRANCH  16   2
BRANCH  13  21
ATOM     21  C   UNL     1     -16.413 -10.904  18.728  0.00  0.00    +0.165 C 
BRANCH  21   3
ATOM      3  O   UNL     1     -17.437 -11.159  19.663  0.00  0.00    -0.394 OA
ATOM     40  H   UNL     1     -17.012 -11.314  20.523  0.00  0.00    +0.209 HD
ENDBRANCH  21   3
ENDBRANCH  13  21
BRANCH  14  24
ATOM     24  C   UNL     1     -11.599  -8.615  15.935  0.00  0.00    +0.106 C 
BRANCH  24  25
ATOM      4  O   UNL     1     -10.943  -6.367  16.295  0.00  0.00    -0.276 OA
ATOM      8  N   UNL     1     -12.082  -6.810  14.320  0.00  0.00    -0.301 N 
ATOM     25  C   UNL     1     -11.507  -7.163  15.539  0.00  0.00    +0.216 C 
ATOM     27  C   UNL     1     -12.000  -5.426  13.847  0.00  0.00    +0.108 C 
ATOM     28  C   UNL     1     -12.760  -7.733  13.400  0.00  0.00    +0.108 C 
ATOM     29  C   UNL     1     -13.387  -4.877  13.525  0.00  0.00    +0.032 C 
ATOM     30  C   UNL     1     -14.164  -7.232  13.069  0.00  0.00    +0.032 C 
ATOM     31  C   UNL     1     -14.130  -5.793  12.548  0.00  0.00    +0.078 C 
BRANCH  31  33
ATOM      6  O   UNL     1     -15.769  -4.301  11.656  0.00  0.00    -0.276 OA
ATOM     10  N   UNL     1     -16.478  -6.006  13.030  0.00  0.00    -0.329 N 
ATOM     33  C   UNL     1     -15.524  -5.284  12.351  0.00  0.00    +0.214 C 
ATOM     42  H   UNL     1     -16.247  -6.807  13.608  0.00  0.00    +0.145 HD
ATOM     43  H   UNL     1     -17.459  -5.752  12.976  0.00  0.00    +0.145 HD
ENDBRANCH  31  33
ENDBRANCH  24  25
ENDBRANCH  14  24
BRANCH  32  34
ATOM     34  C   UNL     1      -5.809 -10.660  19.329  0.00  0.00    +0.102 C 
BRANCH  34  35
ATOM     35  C   UNL     1      -4.978 -11.521  18.349  0.00  0.00    -0.029 C 
ATOM     36  C   UNL     1      -5.820 -12.650  17.734  0.00  0.00    +0.011 C 
ATOM     37  C   UNL     1      -3.816 -12.156  19.138  0.00  0.00    +0.011 C 
ATOM     38  C   UNL     1      -4.385 -10.660  17.221  0.00  0.00    +0.011 C 
ENDBRANCH  34  35
ENDBRANCH  32  34
TORSDOF 8
ENDMDL
MODEL 2
REMARK VINA RESULT:      -6.5     30.041     34.223
REMARK  Name = 11882861
REMARK  13 active torsions:
REMARK  status: ('A' for Active; 'I' for Inactive)
REMARK    1  A    between atoms: O_2  and  C_16
REMARK    2  A    between atoms: O_3  and  C_21
REMARK    3  A    between atoms: C_11  and  C_19
REMARK    4  A    between atoms: C_13  and  C_21
REMARK    5  A    between atoms: C_13  and  C_22
REMARK    6  A    between atoms: C_14  and  C_24
REMARK    7  A    between atoms: C_24  and  C_25
REMARK    8  A    between atoms: C_31  and  C_33
REMARK    9  A    between atoms: C_32  and  C_34
REMARK   10  A    between atoms: C_34  and  C_35
REMARK   11  A    between atoms: C_35  and  C_36
REMARK   12  A    between atoms: C_35  and  C_37
REMARK   13  A    between atoms: C_35  and  C_38
REMARK                            x       y       z     vdW  Elec       q    Type
REMARK                         _______ _______ _______ _____ _____    ______ ____
ROOT
ATOM      1  S   UNL     1      17.586   6.012  19.574  0.00  0.00    -0.057 S 
ATOM      5  O   UNL     1      21.167   8.270  21.522  0.00  0.00    -0.275 OA
ATOM      7  N   UNL     1      18.283   8.157  20.842  0.00  0.00    -0.229 NA
ATOM      9  N   UNL     1      20.023   6.553  20.378  0.00  0.00    -0.265 N 
ATOM     11  C   UNL     1      14.703   9.482  20.304  0.00  0.00    -0.019 C 
ATOM     12  C   UNL     1      14.073   8.020  20.333  0.00  0.00    +0.011 C 
ATOM     13  C   UNL     1      12.530   7.899  20.027  0.00  0.00    +0.021 C 
ATOM     14  C   UNL     1      16.114   9.426  21.052  0.00  0.00    +0.054 C 
ATOM     15  C   UNL     1      13.778  10.457  21.076  0.00  0.00    +0.010 C 
ATOM     16  C   UNL     1      11.760   8.974  20.845  0.00  0.00    +0.123 C 
ATOM     17  C   UNL     1      14.950   7.007  19.541  0.00  0.00    +0.049 C 
ATOM     18  C   UNL     1      12.315  10.382  20.661  0.00  0.00    +0.032 C 
ATOM     19  C   UNL     1      14.903  10.022  18.865  0.00  0.00    +0.012 C 
ATOM     20  C   UNL     1      16.928   8.246  20.586  0.00  0.00    +0.058 A 
ATOM     22  C   UNL     1      12.027   6.507  20.503  0.00  0.00    +0.016 C 
ATOM     23  C   UNL     1      16.382   7.163  19.926  0.00  0.00    +0.015 A 
ATOM     26  C   UNL     1      18.737   7.025  20.348  0.00  0.00    +0.165 A 
ATOM     32  C   UNL     1      21.140   7.186  20.948  0.00  0.00    +0.219 C 
ATOM     41  H   UNL     1      20.157   5.651  19.931  0.00  0.00    +0.157 HD
ENDROOT
BRANCH  16   2
ATOM      2  O   UNL     1      10.376   8.977  20.494  0.00  0.00    -0.391 OA
ATOM     39  H   UNL     1      10.149   9.875  20.198  0.00  0.00    +0.210 HD
ENDBRANCH  16   2
BRANCH  13  21
ATOM     21  C   UNL     1      12.165   7.982  18.528  0.00  0.00    +0.165 C 
BRANCH  21   3
ATOM      3  O   UNL     1      12.027   6.666  18.043  0.00  0.00    -0.394 OA
ATOM     40  H   UNL     1      11.928   6.082  18.814  0.00  0.00    +0.209 HD
ENDBRANCH  21   3
ENDBRANCH  13  21
BRANCH  14  24
ATOM     24  C   UNL     1      16.923  10.728  20.986  0.00  0.00    +0.106 C 
BRANCH  24  25
ATOM      4  O   UNL     1      18.456  10.576  22.786  0.00  0.00    -0.276 OA
ATOM      8  N   UNL     1      16.650  12.007  23.081  0.00  0.00    -0.301 N 
ATOM     25  C   UNL     1      17.418  11.093  22.363  0.00  0.00    +0.216 C 
ATOM     27  C   UNL     1      17.086  12.441  24.410  0.00  0.00    +0.108 C 
ATOM     28  C   UNL     1      15.412  12.638  22.605  0.00  0.00    +0.108 C 
ATOM     29  C   UNL     1      15.986  12.219  25.444  0.00  0.00    +0.032 C 
ATOM     30  C   UNL     1      14.276  12.419  23.602  0.00  0.00    +0.032 C 
ATOM     31  C   UNL     1      14.676  12.879  25.007  0.00  0.00    +0.078 C 
BRANCH  31  33
ATOM      6  O   UNL     1      12.556  11.979  25.643  0.00  0.00    -0.276 OA
ATOM     10  N   UNL     1      13.874  12.925  27.276  0.00  0.00    -0.329 N 
ATOM     33  C   UNL     1      13.595  12.539  25.985  0.00  0.00    +0.214 C 
ATOM     42  H   UNL     1      14.736  13.398  27.529  0.00  0.00    +0.145 HD
ATOM     43  H   UNL     1      13.213  12.751  28.026  0.00  0.00    +0.145 HD
ENDBRANCH  31  33
ENDBRANCH  24  25
ENDBRANCH  14  24
BRANCH  32  34
ATOM     34  C   UNL     1      22.420   6.372  20.791  0.00  0.00    +0.102 C 
BRANCH  34  35
ATOM     35  C   UNL     1      22.582   5.218  21.808  0.00  0.00    -0.029 C 
ATOM     36  C   UNL     1      24.062   4.888  22.059  0.00  0.00    +0.011 C 
ATOM     37  C   UNL     1      21.897   3.967  21.223  0.00  0.00    +0.011 C 
ATOM     38  C   UNL     1      21.906   5.560  23.146  0.00  0.00    +0.011 C 
ENDBRANCH  34  35
ENDBRANCH  32  34
TORSDOF 8
ENDMDL
MODEL 3
REMARK VINA RESULT:      -6.3     30.048     34.097
REMARK  Name = 11882861
REMARK  13 active torsions:
REMARK  status: ('A' for Active; 'I' for Inactive)
REMARK    1  A    between atoms: O_2  and  C_16
REMARK    2  A    between atoms: O_3  and  C_21
REMARK    3  A    between atoms: C_11  and  C_19
REMARK    4  A    between atoms: C_13  and  C_21
REMARK    5  A    between atoms: C_13  and  C_22
REMARK    6  A    between atoms: C_14  and  C_24
REMARK    7  A    between atoms: C_24  and  C_25
REMARK    8  A    between atoms: C_31  and  C_33
REMARK    9  A    between atoms: C_32  and  C_34
REMARK   10  A    between atoms: C_34  and  C_35
REMARK   11  A    between atoms: C_35  and  C_36
REMARK   12  A    between atoms: C_35  and  C_37
REMARK   13  A    between atoms: C_35  and  C_38
REMARK                            x       y       z     vdW  Elec       q    Type
REMARK                         _______ _______ _______ _____ _____    ______ ____
ROOT
ATOM      1  S   UNL     1      17.970   6.262  20.011  0.00  0.00    -0.057 S 
ATOM      5  O   UNL     1      20.826   8.750  22.725  0.00  0.00    -0.275 OA
ATOM      7  N   UNL     1      18.177   8.411  21.437  0.00  0.00    -0.229 NA
ATOM      9  N   UNL     1      20.118   6.984  21.331  0.00  0.00    -0.265 N 
ATOM     11  C   UNL     1      14.687   9.437  20.163  0.00  0.00    -0.019 C 
ATOM     12  C   UNL     1      14.204   7.925  20.030  0.00  0.00    +0.011 C 
ATOM     13  C   UNL     1      12.780   7.681  19.396  0.00  0.00    +0.021 C 
ATOM     14  C   UNL     1      15.905   9.477  21.196  0.00  0.00    +0.054 C 
ATOM     15  C   UNL     1      13.532  10.298  20.735  0.00  0.00    +0.010 C 
ATOM     16  C   UNL     1      11.757   8.654  20.048  0.00  0.00    +0.123 C 
ATOM     17  C   UNL     1      15.321   7.023  19.429  0.00  0.00    +0.049 C 
ATOM     18  C   UNL     1      12.204  10.111  20.012  0.00  0.00    +0.032 C 
ATOM     19  C   UNL     1      15.137  10.045  18.811  0.00  0.00    +0.012 C 
ATOM     20  C   UNL     1      16.906   8.390  20.896  0.00  0.00    +0.058 A 
ATOM     22  C   UNL     1      12.319   6.234  19.728  0.00  0.00    +0.016 C 
ATOM     23  C   UNL     1      16.617   7.289  20.116  0.00  0.00    +0.015 A 
ATOM     26  C   UNL     1      18.830   7.342  21.033  0.00  0.00    +0.165 A 
ATOM     32  C   UNL     1      21.024   7.690  22.140  0.00  0.00    +0.219 C 
ATOM     41  H   UNL     1      20.429   6.114  20.908  0.00  0.00    +0.157 HD
ENDROOT
BRANCH  16   2
ATOM      2  O   UNL     1      10.485   8.549  19.406  0.00  0.00    -0.391 OA
ATOM     39  H   UNL     1      10.349   9.361  18.889  0.00  0.00    +0.210 HD
ENDBRANCH  16   2
BRANCH  13  21
ATOM     21  C   UNL     1      12.738   7.788  17.856  0.00  0.00    +0.165 C 
BRANCH  21   3
ATOM      3  O   UNL     1      11.741   6.907  17.389  0.00  0.00    -0.394 OA
ATOM     40  H   UNL     1      11.035   6.887  18.058  0.00  0.00    +0.209 HD
ENDBRANCH  21   3
ENDBRANCH  13  21
BRANCH  14  24
ATOM     24  C   UNL     1      16.584  10.846  21.329  0.00  0.00    +0.106 C 
BRANCH  24  25
ATOM      4  O   UNL     1      15.555  11.398  23.391  0.00  0.00    -0.276 OA
ATOM      8  N   UNL     1      15.279  12.918  21.656  0.00  0.00    -0.301 N 
ATOM     25  C   UNL     1      15.762  11.740  22.224  0.00  0.00    +0.216 C 
ATOM     27  C   UNL     1      14.506  13.857  22.471  0.00  0.00    +0.108 C 
ATOM     28  C   UNL     1      15.508  13.351  20.272  0.00  0.00    +0.108 C 
ATOM     29  C   UNL     1      13.161  14.166  21.819  0.00  0.00    +0.032 C 
ATOM     30  C   UNL     1      14.184  13.650  19.573  0.00  0.00    +0.032 C 
ATOM     31  C   UNL     1      13.346  14.648  20.377  0.00  0.00    +0.078 C 
BRANCH  31  33
ATOM      6  O   UNL     1      10.958  14.578  20.331  0.00  0.00    -0.276 OA
ATOM     10  N   UNL     1      12.065  15.266  18.435  0.00  0.00    -0.329 N 
ATOM     33  C   UNL     1      12.004  14.825  19.736  0.00  0.00    +0.214 C 
ATOM     42  H   UNL     1      12.945  15.451  17.962  0.00  0.00    +0.145 HD
ATOM     43  H   UNL     1      11.220  15.419  17.897  0.00  0.00    +0.145 HD
ENDBRANCH  31  33
ENDBRANCH  24  25
ENDBRANCH  14  24
BRANCH  32  34
ATOM     34  C   UNL     1      22.379   6.998  22.249  0.00  0.00    +0.102 C 
BRANCH  34  35
ATOM     35  C   UNL     1      23.505   7.645  21.408  0.00  0.00    -0.029 C 
ATOM     36  C   UNL     1      22.970   8.204  20.080  0.00  0.00    +0.011 C 
ATOM     37  C   UNL     1      24.549   6.556  21.092  0.00  0.00    +0.011 C 
ATOM     38  C   UNL     1      24.200   8.773  22.189  0.00  0.00    +0.011 C 
ENDBRANCH  34  35
ENDBRANCH  32  34
TORSDOF 8
ENDMDL
MODEL 4
REMARK VINA RESULT:      -6.3      2.714      8.548
REMARK  Name = 11882861
REMARK  13 active torsions:
REMARK  status: ('A' for Active; 'I' for Inactive)
REMARK    1  A    between atoms: O_2  and  C_16
REMARK    2  A    between atoms: O_3  and  C_21
REMARK    3  A    between atoms: C_11  and  C_19
REMARK    4  A    between atoms: C_13  and  C_21
REMARK    5  A    between atoms: C_13  and  C_22
REMARK    6  A    between atoms: C_14  and  C_24
REMARK    7  A    between atoms: C_24  and  C_25
REMARK    8  A    between atoms: C_31  and  C_33
REMARK    9  A    between atoms: C_32  and  C_34
REMARK   10  A    between atoms: C_34  and  C_35
REMARK   11  A    between atoms: C_35  and  C_36
REMARK   12  A    between atoms: C_35  and  C_37
REMARK   13  A    between atoms: C_35  and  C_38
REMARK                            x       y       z     vdW  Elec       q    Type
REMARK                         _______ _______ _______ _____ _____    ______ ____
ROOT
ATOM      1  S   UNL     1     -14.250  -8.636  16.781  0.00  0.00    -0.057 S 
ATOM      5  O   UNL     1     -11.364  -5.808  14.460  0.00  0.00    -0.275 OA
ATOM      7  N   UNL     1     -11.773  -8.183  16.187  0.00  0.00    -0.229 NA
ATOM      9  N   UNL     1     -13.405  -6.653  15.287  0.00  0.00    -0.265 N 
ATOM     11  C   UNL     1     -10.809 -11.036  18.594  0.00  0.00    -0.019 C 
ATOM     12  C   UNL     1     -12.159 -11.834  18.314  0.00  0.00    +0.011 C 
ATOM     13  C   UNL     1     -12.412 -13.136  19.169  0.00  0.00    +0.021 C 
ATOM     14  C   UNL     1     -10.554 -10.053  17.361  0.00  0.00    +0.054 C 
ATOM     15  C   UNL     1      -9.627 -12.036  18.675  0.00  0.00    +0.010 C 
ATOM     16  C   UNL     1     -11.117 -13.998  19.183  0.00  0.00    +0.123 C 
ATOM     17  C   UNL     1     -13.383 -10.875  18.255  0.00  0.00    +0.049 C 
ATOM     18  C   UNL     1      -9.878 -13.216  19.604  0.00  0.00    +0.032 C 
ATOM     19  C   UNL     1     -10.857 -10.216  19.907  0.00  0.00    +0.012 C 
ATOM     20  C   UNL     1     -11.810  -9.303  16.996  0.00  0.00    +0.058 A 
ATOM     22  C   UNL     1     -13.523 -13.982  18.486  0.00  0.00    +0.016 C 
ATOM     23  C   UNL     1     -13.071  -9.700  17.393  0.00  0.00    +0.015 A 
ATOM     26  C   UNL     1     -13.001  -7.742  16.012  0.00  0.00    +0.165 A 
ATOM     32  C   UNL     1     -12.586  -5.767  14.568  0.00  0.00    +0.219 C 
ATOM     41  H   UNL     1     -14.408  -6.489  15.287  0.00  0.00    +0.157 HD
ENDROOT
BRANCH  16   2
ATOM      2  O   UNL     1     -11.270 -15.120  20.053  0.00  0.00    -0.391 OA
ATOM     39  H   UNL     1     -11.163 -15.924  19.518  0.00  0.00    +0.210 HD
ENDBRANCH  16   2
BRANCH  13  21
ATOM     21  C   UNL     1     -12.913 -12.872  20.606  0.00  0.00    +0.165 C 
BRANCH  21   3
ATOM      3  O   UNL     1     -13.761 -13.937  20.970  0.00  0.00    -0.394 OA
ATOM     40  H   UNL     1     -14.508 -13.939  20.347  0.00  0.00    +0.209 HD
ENDBRANCH  21   3
ENDBRANCH  13  21
BRANCH  14  24
ATOM     24  C   UNL     1      -9.363  -9.102  17.540  0.00  0.00    +0.106 C 
BRANCH  24  25
ATOM      4  O   UNL     1      -8.464  -9.708  15.434  0.00  0.00    -0.276 OA
ATOM      8  N   UNL     1      -6.980  -9.665  17.221  0.00  0.00    -0.301 N 
ATOM     25  C   UNL     1      -8.234  -9.518  16.631  0.00  0.00    +0.216 C 
ATOM     27  C   UNL     1      -5.825 -10.030  16.397  0.00  0.00    +0.108 C 
ATOM     28  C   UNL     1      -6.676  -9.446  18.640  0.00  0.00    +0.108 C 
ATOM     29  C   UNL     1      -5.128 -11.268  16.953  0.00  0.00    +0.032 C 
ATOM     30  C   UNL     1      -5.997 -10.674  19.244  0.00  0.00    +0.032 C 
ATOM     31  C   UNL     1      -4.767 -11.082  18.429  0.00  0.00    +0.078 C 
BRANCH  31  33
ATOM      6  O   UNL     1      -3.427 -12.377  19.924  0.00  0.00    -0.276 OA
ATOM     10  N   UNL     1      -4.598 -13.479  18.278  0.00  0.00    -0.329 N 
ATOM     33  C   UNL     1      -4.195 -12.358  18.966  0.00  0.00    +0.214 C 
ATOM     42  H   UNL     1      -5.224 -13.433  17.480  0.00  0.00    +0.145 HD
ATOM     43  H   UNL     1      -4.271 -14.400  18.547  0.00  0.00    +0.145 HD
ENDBRANCH  31  33
ENDBRANCH  24  25
ENDBRANCH  14  24
BRANCH  32  34
ATOM     34  C   UNL     1     -13.378  -4.660  13.881  0.00  0.00    +0.102 C 
BRANCH  34  35
ATOM     35  C   UNL     1     -13.352  -4.711  12.335  0.00  0.00    -0.029 C 
ATOM     36  C   UNL     1     -13.021  -6.120  11.820  0.00  0.00    +0.011 C 
ATOM     37  C   UNL     1     -12.255  -3.744  11.845  0.00  0.00    +0.011 C 
ATOM     38  C   UNL     1     -14.698  -4.258  11.743  0.00  0.00    +0.011 C 
ENDBRANCH  34  35
ENDBRANCH  32  34
TORSDOF 8
ENDMDL
MODEL 5
REMARK VINA RESULT:      -6.2     28.448     32.962
REMARK  Name = 11882861
REMARK  13 active torsions:
REMARK  status: ('A' for Active; 'I' for Inactive)
REMARK    1  A    between atoms: O_2  and  C_16
REMARK    2  A    between atoms: O_3  and  C_21
REMARK    3  A    between atoms: C_11  and  C_19
REMARK    4  A    between atoms: C_13  and  C_21
REMARK    5  A    between atoms: C_13  and  C_22
REMARK    6  A    between atoms: C_14  and  C_24
REMARK    7  A    between atoms: C_24  and  C_25
REMARK    8  A    between atoms: C_31  and  C_33
REMARK    9  A    between atoms: C_32  and  C_34
REMARK   10  A    between atoms: C_34  and  C_35
REMARK   11  A    between atoms: C_35  and  C_36
REMARK   12  A    between atoms: C_35  and  C_37
REMARK   13  A    between atoms: C_35  and  C_38
REMARK                            x       y       z     vdW  Elec       q    Type
REMARK                         _______ _______ _______ _____ _____    ______ ____
ROOT
ATOM      1  S   UNL     1      10.014   7.896  -1.050  0.00  0.00    -0.057 S 
ATOM      5  O   UNL     1       8.053   8.910   3.053  0.00  0.00    -0.275 OA
ATOM      7  N   UNL     1      10.214   7.590   1.511  0.00  0.00    -0.229 NA
ATOM      9  N   UNL     1       8.338   8.878   0.712  0.00  0.00    -0.265 N 
ATOM     11  C   UNL     1      13.171   5.203   0.864  0.00  0.00    -0.019 C 
ATOM     12  C   UNL     1      13.607   5.975  -0.458  0.00  0.00    +0.011 C 
ATOM     13  C   UNL     1      14.786   5.348  -1.298  0.00  0.00    +0.021 C 
ATOM     14  C   UNL     1      12.308   6.207   1.759  0.00  0.00    +0.054 C 
ATOM     15  C   UNL     1      14.436   4.799   1.665  0.00  0.00    +0.010 C 
ATOM     16  C   UNL     1      15.947   4.959  -0.339  0.00  0.00    +0.123 C 
ATOM     17  C   UNL     1      12.371   6.376  -1.315  0.00  0.00    +0.049 C 
ATOM     18  C   UNL     1      15.496   4.092   0.831  0.00  0.00    +0.032 C 
ATOM     19  C   UNL     1      12.341   3.929   0.571  0.00  0.00    +0.012 C 
ATOM     20  C   UNL     1      11.272   6.920   0.928  0.00  0.00    +0.058 A 
ATOM     22  C   UNL     1      15.337   6.421  -2.279  0.00  0.00    +0.016 C 
ATOM     23  C   UNL     1      11.330   6.999  -0.449  0.00  0.00    +0.015 A 
ATOM     26  C   UNL     1       9.480   8.136   0.565  0.00  0.00    +0.165 A 
ATOM     32  C   UNL     1       7.702   9.216   1.918  0.00  0.00    +0.219 C 
ATOM     41  H   UNL     1       7.926   9.204  -0.157  0.00  0.00    +0.157 HD
ENDROOT
BRANCH  16   2
ATOM      2  O   UNL     1      16.977   4.270  -1.050  0.00  0.00    -0.391 OA
ATOM     39  H   UNL     1      17.600   4.938  -1.384  0.00  0.00    +0.210 HD
ENDBRANCH  16   2
BRANCH  13  21
ATOM     21  C   UNL     1      14.377   4.148  -2.181  0.00  0.00    +0.165 C 
BRANCH  21   3
ATOM      3  O   UNL     1      14.876   4.377  -3.479  0.00  0.00    -0.394 OA
ATOM     40  H   UNL     1      14.180   4.833  -3.981  0.00  0.00    +0.209 HD
ENDBRANCH  21   3
ENDBRANCH  13  21
BRANCH  14  24
ATOM     24  C   UNL     1      11.685   5.572   3.009  0.00  0.00    +0.106 C 
BRANCH  24  25
ATOM      4  O   UNL     1      12.898   7.170   4.270  0.00  0.00    -0.276 OA
ATOM      8  N   UNL     1      10.858   6.490   5.148  0.00  0.00    -0.301 N 
ATOM     25  C   UNL     1      11.875   6.485   4.195  0.00  0.00    +0.216 C 
ATOM     27  C   UNL     1      10.950   7.378   6.309  0.00  0.00    +0.108 C 
ATOM     28  C   UNL     1       9.630   5.686   5.087  0.00  0.00    +0.108 C 
ATOM     29  C   UNL     1      10.805   6.593   7.609  0.00  0.00    +0.032 C 
ATOM     30  C   UNL     1       9.457   4.865   6.362  0.00  0.00    +0.032 C 
ATOM     31  C   UNL     1       9.523   5.754   7.607  0.00  0.00    +0.078 C 
BRANCH  31  33
ATOM      6  O   UNL     1       8.770   5.200   9.805  0.00  0.00    -0.276 OA
ATOM     10  N   UNL     1      10.308   3.815   8.798  0.00  0.00    -0.329 N 
ATOM     33  C   UNL     1       9.478   4.912   8.843  0.00  0.00    +0.214 C 
ATOM     42  H   UNL     1      10.893   3.608   7.995  0.00  0.00    +0.145 HD
ATOM     43  H   UNL     1      10.366   3.173   9.581  0.00  0.00    +0.145 HD
ENDBRANCH  31  33
ENDBRANCH  24  25
ENDBRANCH  14  24
BRANCH  32  34
ATOM     34  C   UNL     1       6.444  10.052   1.705  0.00  0.00    +0.102 C 
BRANCH  34  35
ATOM     35  C   UNL     1       6.551  11.517   2.188  0.00  0.00    -0.029 C 
ATOM     36  C   UNL     1       5.613  12.444   1.400  0.00  0.00    +0.011 C 
ATOM     37  C   UNL     1       8.002  11.988   1.963  0.00  0.00    +0.011 C 
ATOM     38  C   UNL     1       6.232  11.631   3.689  0.00  0.00    +0.011 C 
ENDBRANCH  34  35
ENDBRANCH  32  34
TORSDOF 8
ENDMDL
MODEL 6
REMARK VINA RESULT:      -6.2      4.168      9.808
REMARK  Name = 11882861
REMARK  13 active torsions:
REMARK  status: ('A' for Active; 'I' for Inactive)
REMARK    1  A    between atoms: O_2  and  C_16
REMARK    2  A    between atoms: O_3  and  C_21
REMARK    3  A    between atoms: C_11  and  C_19
REMARK    4  A    between atoms: C_13  and  C_21
REMARK    5  A    between atoms: C_13  and  C_22
REMARK    6  A    between atoms: C_14  and  C_24
REMARK    7  A    between atoms: C_24  and  C_25
REMARK    8  A    between atoms: C_31  and  C_33
REMARK    9  A    between atoms: C_32  and  C_34
REMARK   10  A    between atoms: C_34  and  C_35
REMARK   11  A    between atoms: C_35  and  C_36
REMARK   12  A    between atoms: C_35  and  C_37
REMARK   13  A    between atoms: C_35  and  C_38
REMARK                            x       y       z     vdW  Elec       q    Type
REMARK                         _______ _______ _______ _____ _____    ______ ____
ROOT
ATOM      1  S   UNL     1     -10.860  -8.127  17.039  0.00  0.00    -0.057 S 
ATOM      5  O   UNL     1     -12.134  -7.510  12.599  0.00  0.00    -0.275 OA
ATOM      7  N   UNL     1     -10.303  -8.732  14.586  0.00  0.00    -0.229 NA
ATOM      9  N   UNL     1     -12.195  -7.281  14.946  0.00  0.00    -0.265 N 
ATOM     11  C   UNL     1      -7.136 -10.510  15.880  0.00  0.00    -0.019 C 
ATOM     12  C   UNL     1      -7.824 -10.899  17.262  0.00  0.00    +0.011 C 
ATOM     13  C   UNL     1      -6.913 -11.597  18.344  0.00  0.00    +0.021 C 
ATOM     14  C   UNL     1      -8.294 -10.240  14.812  0.00  0.00    +0.054 C 
ATOM     15  C   UNL     1      -6.277 -11.699  15.379  0.00  0.00    +0.010 C 
ATOM     16  C   UNL     1      -6.090 -12.729  17.665  0.00  0.00    +0.123 C 
ATOM     17  C   UNL     1      -8.675  -9.724  17.824  0.00  0.00    +0.049 C 
ATOM     18  C   UNL     1      -5.329 -12.262  16.429  0.00  0.00    +0.032 C 
ATOM     19  C   UNL     1      -6.233  -9.256  15.990  0.00  0.00    +0.012 C 
ATOM     20  C   UNL     1      -9.371  -9.358  15.391  0.00  0.00    +0.058 A 
ATOM     22  C   UNL     1      -7.820 -12.265  19.416  0.00  0.00    +0.016 C 
ATOM     23  C   UNL     1      -9.535  -9.156  16.747  0.00  0.00    +0.015 A 
ATOM     26  C   UNL     1     -11.133  -8.049  15.345  0.00  0.00    +0.165 A 
ATOM     32  C   UNL     1     -12.627  -7.059  13.628  0.00  0.00    +0.219 C 
ATOM     41  H   UNL     1     -12.706  -6.834  15.702  0.00  0.00    +0.157 HD
ENDROOT
BRANCH  16   2
ATOM      2  O   UNL     1      -5.160 -13.297  18.589  0.00  0.00    -0.391 OA
ATOM     39  H   UNL     1      -4.318 -13.421  18.119  0.00  0.00    +0.210 HD
ENDBRANCH  16   2
BRANCH  13  21
ATOM     21  C   UNL     1      -5.988 -10.635  19.121  0.00  0.00    +0.165 C 
BRANCH  21   3
ATOM      3  O   UNL     1      -5.961 -11.055  20.466  0.00  0.00    -0.394 OA
ATOM     40  H   UNL     1      -5.995 -12.026  20.468  0.00  0.00    +0.209 HD
ENDBRANCH  21   3
ENDBRANCH  13  21
BRANCH  14  24
ATOM     24  C   UNL     1      -7.802  -9.710  13.458  0.00  0.00    +0.106 C 
BRANCH  24  25
ATOM      4  O   UNL     1      -8.564 -11.603  12.255  0.00  0.00    -0.276 OA
ATOM      8  N   UNL     1      -6.342 -11.001  11.942  0.00  0.00    -0.301 N 
ATOM     25  C   UNL     1      -7.611 -10.857  12.499  0.00  0.00    +0.216 C 
ATOM     27  C   UNL     1      -6.088 -12.068  10.972  0.00  0.00    +0.108 C 
ATOM     28  C   UNL     1      -5.190 -10.132  12.213  0.00  0.00    +0.108 C 
ATOM     29  C   UNL     1      -4.905 -12.930  11.406  0.00  0.00    +0.032 C 
ATOM     30  C   UNL     1      -3.988 -10.953  12.674  0.00  0.00    +0.032 C 
ATOM     31  C   UNL     1      -3.667 -12.071  11.678  0.00  0.00    +0.078 C 
BRANCH  31  33
ATOM      6  O   UNL     1      -2.594 -14.160  12.114  0.00  0.00    -0.276 OA
ATOM     10  N   UNL     1      -1.561 -12.232  12.831  0.00  0.00    -0.329 N 
ATOM     33  C   UNL     1      -2.569 -12.935  12.214  0.00  0.00    +0.214 C 
ATOM     42  H   UNL     1      -1.571 -11.221  12.911  0.00  0.00    +0.145 HD
ATOM     43  H   UNL     1      -0.765 -12.712  13.238  0.00  0.00    +0.145 HD
ENDBRANCH  31  33
ENDBRANCH  24  25
ENDBRANCH  14  24
BRANCH  32  34
ATOM     34  C   UNL     1     -13.843  -6.142  13.555  0.00  0.00    +0.102 C 
BRANCH  34  35
ATOM     35  C   UNL     1     -13.653  -4.883  12.676  0.00  0.00    -0.029 C 
ATOM     36  C   UNL     1     -12.310  -4.191  12.961  0.00  0.00    +0.011 C 
ATOM     37  C   UNL     1     -14.789  -3.895  13.005  0.00  0.00    +0.011 C 
ATOM     38  C   UNL     1     -13.733  -5.234  11.180  0.00  0.00    +0.011 C 
ENDBRANCH  34  35
ENDBRANCH  32  34
TORSDOF 8
ENDMDL
MODEL 7
REMARK VINA RESULT:      -6.1     30.010     34.168
REMARK  Name = 11882861
REMARK  13 active torsions:
REMARK  status: ('A' for Active; 'I' for Inactive)
REMARK    1  A    between atoms: O_2  and  C_16
REMARK    2  A    between atoms: O_3  and  C_21
REMARK    3  A    between atoms: C_11  and  C_19
REMARK    4  A    between atoms: C_13  and  C_21
REMARK    5  A    between atoms: C_13  and  C_22
REMARK    6  A    between atoms: C_14  and  C_24
REMARK    7  A    between atoms: C_24  and  C_25
REMARK    8  A    between atoms: C_31  and  C_33
REMARK    9  A    between atoms: C_32  and  C_34
REMARK   10  A    between atoms: C_34  and  C_35
REMARK   11  A    between atoms: C_35  and  C_36
REMARK   12  A    between atoms: C_35  and  C_37
REMARK   13  A    between atoms: C_35  and  C_38
REMARK                            x       y       z     vdW  Elec       q    Type
REMARK                         _______ _______ _______ _____ _____    ______ ____
ROOT
ATOM      1  S   UNL     1      18.096   6.908  20.611  0.00  0.00    -0.057 S 
ATOM      5  O   UNL     1      20.559   9.838  23.268  0.00  0.00    -0.275 OA
ATOM      7  N   UNL     1      18.036   9.173  21.860  0.00  0.00    -0.229 NA
ATOM      9  N   UNL     1      20.088   7.913  21.989  0.00  0.00    -0.265 N 
ATOM     11  C   UNL     1      14.566   9.794  20.300  0.00  0.00    -0.019 C 
ATOM     12  C   UNL     1      14.216   8.241  20.267  0.00  0.00    +0.011 C 
ATOM     13  C   UNL     1      12.861   7.827  19.573  0.00  0.00    +0.021 C 
ATOM     14  C   UNL     1      15.706  10.019  21.397  0.00  0.00    +0.054 C 
ATOM     15  C   UNL     1      13.310  10.596  20.728  0.00  0.00    +0.010 C 
ATOM     16  C   UNL     1      11.722   8.757  20.079  0.00  0.00    +0.123 C 
ATOM     17  C   UNL     1      15.438   7.392  19.811  0.00  0.00    +0.049 C 
ATOM     18  C   UNL     1      12.053  10.240  19.947  0.00  0.00    +0.032 C 
ATOM     19  C   UNL     1      15.054  10.329  18.931  0.00  0.00    +0.012 C 
ATOM     20  C   UNL     1      16.809   9.001  21.249  0.00  0.00    +0.058 A 
ATOM     22  C   UNL     1      12.496   6.376  19.998  0.00  0.00    +0.016 C 
ATOM     23  C   UNL     1      16.661   7.821  20.548  0.00  0.00    +0.015 A 
ATOM     26  C   UNL     1      18.798   8.135  21.587  0.00  0.00    +0.165 A 
ATOM     32  C   UNL     1      20.879   8.755  22.788  0.00  0.00    +0.219 C 
ATOM     41  H   UNL     1      20.494   7.041  21.660  0.00  0.00    +0.157 HD
ENDROOT
BRANCH  16   2
ATOM      2  O   UNL     1      10.508   8.494  19.374  0.00  0.00    -0.391 OA
ATOM     39  H   UNL     1       9.817   9.061  19.756  0.00  0.00    +0.210 HD
ENDBRANCH  16   2
BRANCH  13  21
ATOM     21  C   UNL     1      12.911   7.807  18.029  0.00  0.00    +0.165 C 
BRANCH  21   3
ATOM      3  O   UNL     1      11.928   6.904  17.577  0.00  0.00    -0.394 OA
ATOM     40  H   UNL     1      11.733   7.127  16.651  0.00  0.00    +0.209 HD
ENDBRANCH  21   3
ENDBRANCH  13  21
BRANCH  14  24
ATOM     24  C   UNL     1      16.263  11.447  21.453  0.00  0.00    +0.106 C 
BRANCH  24  25
ATOM      4  O   UNL     1      17.074  11.579  23.676  0.00  0.00    -0.276 OA
ATOM      8  N   UNL     1      15.186  12.841  23.185  0.00  0.00    -0.301 N 
ATOM     25  C   UNL     1      16.218  11.958  22.872  0.00  0.00    +0.216 C 
ATOM     27  C   UNL     1      15.097  13.411  24.531  0.00  0.00    +0.108 C 
ATOM     28  C   UNL     1      14.154  13.309  22.251  0.00  0.00    +0.108 C 
ATOM     29  C   UNL     1      13.722  13.155  25.142  0.00  0.00    +0.032 C 
ATOM     30  C   UNL     1      12.758  13.050  22.814  0.00  0.00    +0.032 C 
ATOM     31  C   UNL     1      12.607  13.649  24.215  0.00  0.00    +0.078 C 
BRANCH  31  33
ATOM      6  O   UNL     1      10.238  13.837  24.461  0.00  0.00    -0.276 OA
ATOM     10  N   UNL     1      11.344  12.266  25.728  0.00  0.00    -0.329 N 
ATOM     33  C   UNL     1      11.278  13.273  24.793  0.00  0.00    +0.214 C 
ATOM     42  H   UNL     1      12.219  11.825  25.993  0.00  0.00    +0.145 HD
ATOM     43  H   UNL     1      10.507  11.930  26.191  0.00  0.00    +0.145 HD
ENDBRANCH  31  33
ENDBRANCH  24  25
ENDBRANCH  14  24
BRANCH  32  34
ATOM     34  C   UNL     1      22.275   8.192  23.034  0.00  0.00    +0.102 C 
BRANCH  34  35
ATOM     35  C   UNL     1      22.342   7.073  24.101  0.00  0.00    -0.029 C 
ATOM     36  C   UNL     1      21.194   7.189  25.115  0.00  0.00    +0.011 C 
ATOM     37  C   UNL     1      23.677   7.217  24.858  0.00  0.00    +0.011 C 
ATOM     38  C   UNL     1      22.302   5.681  23.447  0.00  0.00    +0.011 C 
ENDBRANCH  34  35
ENDBRANCH  32  34
TORSDOF 8
ENDMDL
MODEL 8
REMARK VINA RESULT:      -6.1     30.671     34.687
REMARK  Name = 11882861
REMARK  13 active torsions:
REMARK  status: ('A' for Active; 'I' for Inactive)
REMARK    1  A    between atoms: O_2  and  C_16
REMARK    2  A    between atoms: O_3  and  C_21
REMARK    3  A    between atoms: C_11  and  C_19
REMARK    4  A    between atoms: C_13  and  C_21
REMARK    5  A    between atoms: C_13  and  C_22
REMARK    6  A    between atoms: C_14  and  C_24
REMARK    7  A    between atoms: C_24  and  C_25
REMARK    8  A    between atoms: C_31  and  C_33
REMARK    9  A    between atoms: C_32  and  C_34
REMARK   10  A    between atoms: C_34  and  C_35
REMARK   11  A    between atoms: C_35  and  C_36
REMARK   12  A    between atoms: C_35  and  C_37
REMARK   13  A    between atoms: C_35  and  C_38
REMARK                            x       y       z     vdW  Elec       q    Type
REMARK                         _______ _______ _______ _____ _____    ______ ____
ROOT
ATOM      1  S   UNL     1      17.345  14.585  22.444  0.00  0.00    -0.057 S 
ATOM      5  O   UNL     1      19.416  13.200  18.507  0.00  0.00    -0.275 OA
ATOM      7  N   UNL     1      17.158  12.990  20.417  0.00  0.00    -0.229 NA
ATOM      9  N   UNL     1      19.100  14.415  20.504  0.00  0.00    -0.265 N 
ATOM     11  C   UNL     1      14.047  11.441  22.086  0.00  0.00    -0.019 C 
ATOM     12  C   UNL     1      13.645  12.811  22.789  0.00  0.00    +0.011 C 
ATOM     13  C   UNL     1      12.419  12.775  23.781  0.00  0.00    +0.021 C 
ATOM     14  C   UNL     1      14.983  11.783  20.837  0.00  0.00    +0.054 C 
ATOM     15  C   UNL     1      12.770  10.736  21.561  0.00  0.00    +0.010 C 
ATOM     16  C   UNL     1      11.247  11.996  23.117  0.00  0.00    +0.123 C 
ATOM     17  C   UNL     1      14.893  13.544  23.363  0.00  0.00    +0.049 C 
ATOM     18  C   UNL     1      11.657  10.624  22.595  0.00  0.00    +0.032 C 
ATOM     19  C   UNL     1      14.792  10.472  23.039  0.00  0.00    +0.012 C 
ATOM     20  C   UNL     1      16.052  12.776  21.217  0.00  0.00    +0.058 A 
ATOM     22  C   UNL     1      11.925  14.228  24.030  0.00  0.00    +0.016 C 
ATOM     23  C   UNL     1      15.982  13.569  22.345  0.00  0.00    +0.015 A 
ATOM     26  C   UNL     1      17.912  13.916  20.968  0.00  0.00    +0.165 A 
ATOM     32  C   UNL     1      19.772  14.039  19.328  0.00  0.00    +0.219 C 
ATOM     41  H   UNL     1      19.522  15.129  21.091  0.00  0.00    +0.157 HD
ENDROOT
BRANCH  16   2
ATOM      2  O   UNL     1      10.167  11.833  24.037  0.00  0.00    -0.391 OA
ATOM     39  H   UNL     1       9.409  11.481  23.541  0.00  0.00    +0.210 HD
ENDBRANCH  16   2
BRANCH  13  21
ATOM     21  C   UNL     1      12.740  12.200  25.178  0.00  0.00    +0.165 C 
BRANCH  21   3
ATOM      3  O   UNL     1      11.802  12.725  26.088  0.00  0.00    -0.394 OA
ATOM     40  H   UNL     1      11.451  13.545  25.702  0.00  0.00    +0.209 HD
ENDBRANCH  21   3
ENDBRANCH  13  21
BRANCH  14  24
ATOM     24  C   UNL     1      15.580  10.558  20.133  0.00  0.00    +0.106 C 
BRANCH  24  25
ATOM      4  O   UNL     1      14.153  10.657  18.244  0.00  0.00    -0.276 OA
ATOM      8  N   UNL     1      14.156   8.664  19.438  0.00  0.00    -0.301 N 
ATOM     25  C   UNL     1      14.567   9.971  19.182  0.00  0.00    +0.216 C 
ATOM     27  C   UNL     1      13.203   8.010  18.537  0.00  0.00    +0.108 C 
ATOM     28  C   UNL     1      14.629   7.824  20.545  0.00  0.00    +0.108 C 
ATOM     29  C   UNL     1      11.998   7.481  19.310  0.00  0.00    +0.032 C 
ATOM     30  C   UNL     1      13.453   7.291  21.360  0.00  0.00    +0.032 C 
ATOM     31  C   UNL     1      12.437   6.576  20.465  0.00  0.00    +0.078 C 
BRANCH  31  33
ATOM      6  O   UNL     1      10.620   6.978  21.964  0.00  0.00    -0.276 OA
ATOM     10  N   UNL     1      10.918   4.843  21.159  0.00  0.00    -0.329 N 
ATOM     33  C   UNL     1      11.238   6.176  21.267  0.00  0.00    +0.214 C 
ATOM     42  H   UNL     1      11.453   4.199  20.585  0.00  0.00    +0.145 HD
ATOM     43  H   UNL     1      10.127   4.455  21.661  0.00  0.00    +0.145 HD
ENDBRANCH  31  33
ENDBRANCH  24  25
ENDBRANCH  14  24
BRANCH  32  34
ATOM     34  C   UNL     1      21.077  14.802  19.127  0.00  0.00    +0.102 C 
BRANCH  34  35
ATOM     35  C   UNL     1      22.357  13.963  19.354  0.00  0.00    -0.029 C 
ATOM     36  C   UNL     1      22.153  12.902  20.446  0.00  0.00    +0.011 C 
ATOM     37  C   UNL     1      23.478  14.918  19.808  0.00  0.00    +0.011 C 
ATOM     38  C   UNL     1      22.804  13.272  18.054  0.00  0.00    +0.011 C 
ENDBRANCH  34  35
ENDBRANCH  32  34
TORSDOF 8
ENDMDL
MODEL 9
REMARK VINA RESULT:      -6.0     31.109     35.984
REMARK  Name = 11882861
REMARK  13 active torsions:
REMARK  status: ('A' for Active; 'I' for Inactive)
REMARK    1  A    between atoms: O_2  and  C_16
REMARK    2  A    between atoms: O_3  and  C_21
REMARK    3  A    between atoms: C_11  and  C_19
REMARK    4  A    between atoms: C_13  and  C_21
REMARK    5  A    between atoms: C_13  and  C_22
REMARK    6  A    between atoms: C_14  and  C_24
REMARK    7  A    between atoms: C_24  and  C_25
REMARK    8  A    between atoms: C_31  and  C_33
REMARK    9  A    between atoms: C_32  and  C_34
REMARK   10  A    between atoms: C_34  and  C_35
REMARK   11  A    between atoms: C_35  and  C_36
REMARK   12  A    between atoms: C_35  and  C_37
REMARK   13  A    between atoms: C_35  and  C_38
REMARK                            x       y       z     vdW  Elec       q    Type
REMARK                         _______ _______ _______ _____ _____    ______ ____
ROOT
ATOM      1  S   UNL     1      17.722  11.977  21.199  0.00  0.00    -0.057 S 
ATOM      5  O   UNL     1      21.768   9.759  21.852  0.00  0.00    -0.275 OA
ATOM      7  N   UNL     1      18.879   9.663  21.189  0.00  0.00    -0.229 NA
ATOM      9  N   UNL     1      20.258  11.567  21.726  0.00  0.00    -0.265 N 
ATOM     11  C   UNL     1      15.411   8.075  20.631  0.00  0.00    -0.019 C 
ATOM     12  C   UNL     1      14.874   9.339  19.825  0.00  0.00    +0.011 C 
ATOM     13  C   UNL     1      13.355   9.326  19.401  0.00  0.00    +0.021 C 
ATOM     14  C   UNL     1      17.008   8.091  20.568  0.00  0.00    +0.054 C 
ATOM     15  C   UNL     1      14.908   6.777  19.949  0.00  0.00    +0.010 C 
ATOM     16  C   UNL     1      13.010   7.942  18.780  0.00  0.00    +0.123 C 
ATOM     17  C   UNL     1      15.327  10.671  20.491  0.00  0.00    +0.049 C 
ATOM     18  C   UNL     1      13.412   6.768  19.665  0.00  0.00    +0.032 C 
ATOM     19  C   UNL     1      14.954   8.067  22.111  0.00  0.00    +0.012 C 
ATOM     20  C   UNL     1      17.548   9.464  20.875  0.00  0.00    +0.058 A 
ATOM     22  C   UNL     1      13.128  10.397  18.297  0.00  0.00    +0.016 C 
ATOM     23  C   UNL     1      16.781  10.610  20.816  0.00  0.00    +0.015 A 
ATOM     26  C   UNL     1      19.084  10.948  21.387  0.00  0.00    +0.165 A 
ATOM     32  C   UNL     1      21.505  10.955  21.935  0.00  0.00    +0.219 C 
ATOM     41  H   UNL     1      20.193  12.576  21.834  0.00  0.00    +0.157 HD
ENDROOT
BRANCH  16   2
ATOM      2  O   UNL     1      11.612   7.851  18.503  0.00  0.00    -0.391 OA
ATOM     39  H   UNL     1      11.146   8.402  19.155  0.00  0.00    +0.210 HD
ENDBRANCH  16   2
BRANCH  13  21
ATOM     21  C   UNL     1      12.369   9.681  20.536  0.00  0.00    +0.165 C 
BRANCH  21   3
ATOM      3  O   UNL     1      12.065  11.053  20.429  0.00  0.00    -0.394 OA
ATOM     40  H   UNL     1      11.108  11.149  20.567  0.00  0.00    +0.209 HD
ENDBRANCH  21   3
ENDBRANCH  13  21
BRANCH  14  24
ATOM     24  C   UNL     1      17.691   7.015  21.421  0.00  0.00    +0.106 C 
BRANCH  24  25
ATOM      4  O   UNL     1      18.141   5.671  19.523  0.00  0.00    -0.276 OA
ATOM      8  N   UNL     1      19.907   6.011  20.994  0.00  0.00    -0.301 N 
ATOM     25  C   UNL     1      18.593   6.172  20.555  0.00  0.00    +0.216 C 
ATOM     27  C   UNL     1      20.855   5.238  20.188  0.00  0.00    +0.108 C 
ATOM     28  C   UNL     1      20.473   6.593  22.216  0.00  0.00    +0.108 C 
ATOM     29  C   UNL     1      21.496   4.128  21.015  0.00  0.00    +0.032 C 
ATOM     30  C   UNL     1      21.107   5.511  23.088  0.00  0.00    +0.032 C 
ATOM     31  C   UNL     1      22.126   4.688  22.295  0.00  0.00    +0.078 C 
BRANCH  31  33
ATOM      6  O   UNL     1      22.424   3.493  24.341  0.00  0.00    -0.276 OA
ATOM     10  N   UNL     1      23.369   2.631  22.428  0.00  0.00    -0.329 N 
ATOM     33  C   UNL     1      22.637   3.558  23.133  0.00  0.00    +0.214 C 
ATOM     42  H   UNL     1      23.541   2.716  21.431  0.00  0.00    +0.145 HD
ATOM     43  H   UNL     1      23.771   1.823  22.891  0.00  0.00    +0.145 HD
ENDBRANCH  31  33
ENDBRANCH  24  25
ENDBRANCH  14  24
BRANCH  32  34
ATOM     34  C   UNL     1      22.595  11.954  22.307  0.00  0.00    +0.102 C 
BRANCH  34  35
ATOM     35  C   UNL     1      23.677  12.164  21.221  0.00  0.00    -0.029 C 
ATOM     36  C   UNL     1      24.766  11.082  21.289  0.00  0.00    +0.011 C 
ATOM     37  C   UNL     1      24.338  13.535  21.465  0.00  0.00    +0.011 C 
ATOM     38  C   UNL     1      23.056  12.169  19.814  0.00  0.00    +0.011 C 
ENDBRANCH  34  35
ENDBRANCH  32  34
TORSDOF 8
ENDMDL
MODEL 10
REMARK VINA RESULT:      -6.0      2.968      8.672
REMARK  Name = 11882861
REMARK  13 active torsions:
REMARK  status: ('A' for Active; 'I' for Inactive)
REMARK    1  A    between atoms: O_2  and  C_16
REMARK    2  A    between atoms: O_3  and  C_21
REMARK    3  A    between atoms: C_11  and  C_19
REMARK    4  A    between atoms: C_13  and  C_21
REMARK    5  A    between atoms: C_13  and  C_22
REMARK    6  A    between atoms: C_14  and  C_24
REMARK    7  A    between atoms: C_24  and  C_25
REMARK    8  A    between atoms: C_31  and  C_33
REMARK    9  A    between atoms: C_32  and  C_34
REMARK   10  A    between atoms: C_34  and  C_35
REMARK   11  A    between atoms: C_35  and  C_36
REMARK   12  A    between atoms: C_35  and  C_37
REMARK   13  A    between atoms: C_35  and  C_38
REMARK                            x       y       z     vdW  Elec       q    Type
REMARK                         _______ _______ _______ _____ _____    ______ ____
ROOT
ATOM      1  S   UNL     1     -13.861  -7.649  15.641  0.00  0.00    -0.057 S 
ATOM      5  O   UNL     1     -11.647  -6.951  11.601  0.00  0.00    -0.275 OA
ATOM      7  N   UNL     1     -11.741  -8.226  14.276  0.00  0.00    -0.229 NA
ATOM      9  N   UNL     1     -13.341  -6.755  13.231  0.00  0.00    -0.265 N 
ATOM     11  C   UNL     1     -10.397 -10.065  17.386  0.00  0.00    -0.019 C 
ATOM     12  C   UNL     1     -11.858 -10.465  17.878  0.00  0.00    +0.011 C 
ATOM     13  C   UNL     1     -11.969 -11.191  19.275  0.00  0.00    +0.021 C 
ATOM     14  C   UNL     1     -10.470  -9.764  15.819  0.00  0.00    +0.054 C 
ATOM     15  C   UNL     1      -9.433 -11.258  17.611  0.00  0.00    +0.010 C 
ATOM     16  C   UNL     1     -10.907 -12.324  19.348  0.00  0.00    +0.123 C 
ATOM     17  C   UNL     1     -12.859  -9.286  17.703  0.00  0.00    +0.049 C 
ATOM     18  C   UNL     1      -9.497 -11.850  19.012  0.00  0.00    +0.032 C 
ATOM     19  C   UNL     1      -9.833  -8.825  18.124  0.00  0.00    +0.012 C 
ATOM     20  C   UNL     1     -11.644  -8.877  15.491  0.00  0.00    +0.058 A 
ATOM     22  C   UNL     1     -13.368 -11.861  19.387  0.00  0.00    +0.016 C 
ATOM     23  C   UNL     1     -12.714  -8.691  16.344  0.00  0.00    +0.015 A 
ATOM     26  C   UNL     1     -12.865  -7.543  14.246  0.00  0.00    +0.165 A 
ATOM     32  C   UNL     1     -12.722  -6.508  11.995  0.00  0.00    +0.219 C 
ATOM     41  H   UNL     1     -14.236  -6.312  13.418  0.00  0.00    +0.157 HD
ENDROOT
BRANCH  16   2
ATOM      2  O   UNL     1     -10.894 -12.917  20.647  0.00  0.00    -0.391 OA
ATOM     39  H   UNL     1     -10.576 -12.245  21.274  0.00  0.00    +0.210 HD
ENDBRANCH  16   2
BRANCH  13  21
ATOM     21  C   UNL     1     -11.859 -10.253  20.496  0.00  0.00    +0.165 C 
BRANCH  21   3
ATOM      3  O   UNL     1     -12.852 -10.630  21.422  0.00  0.00    -0.394 OA
ATOM     40  H   UNL     1     -12.970 -11.591  21.346  0.00  0.00    +0.209 HD
ENDBRANCH  21   3
ENDBRANCH  13  21
BRANCH  14  24
ATOM     24  C   UNL     1      -9.169  -9.222  15.212  0.00  0.00    +0.106 C 
BRANCH  24  25
ATOM      4  O   UNL     1      -8.768 -11.149  13.895  0.00  0.00    -0.276 OA
ATOM      8  N   UNL     1      -7.036 -10.464  15.284  0.00  0.00    -0.301 N 
ATOM     25  C   UNL     1      -8.312 -10.366  14.733  0.00  0.00    +0.216 C 
ATOM     27  C   UNL     1      -6.130 -11.526  14.840  0.00  0.00    +0.108 C 
ATOM     28  C   UNL     1      -6.467  -9.549  16.281  0.00  0.00    +0.108 C 
ATOM     29  C   UNL     1      -5.620 -12.339  16.027  0.00  0.00    +0.032 C 
ATOM     30  C   UNL     1      -5.964 -10.321  17.499  0.00  0.00    +0.032 C 
ATOM     31  C   UNL     1      -4.993 -11.431  17.089  0.00  0.00    +0.078 C 
BRANCH  31  33
ATOM      6  O   UNL     1      -4.312 -11.738  19.358  0.00  0.00    -0.276 OA
ATOM     10  N   UNL     1      -4.625 -13.606  18.052  0.00  0.00    -0.329 N 
ATOM     33  C   UNL     1      -4.615 -12.250  18.283  0.00  0.00    +0.214 C 
ATOM     42  H   UNL     1      -4.867 -14.003  17.149  0.00  0.00    +0.145 HD
ATOM     43  H   UNL     1      -4.381 -14.262  18.786  0.00  0.00    +0.145 HD
ENDBRANCH  31  33
ENDBRANCH  24  25
ENDBRANCH  14  24
BRANCH  32  34
ATOM     34  C   UNL     1     -13.535  -5.574  11.106  0.00  0.00    +0.102 C 
BRANCH  34  35
ATOM     35  C   UNL     1     -13.000  -4.124  11.030  0.00  0.00    -0.029 C 
ATOM     36  C   UNL     1     -12.343  -3.693  12.350  0.00  0.00    +0.011 C 
ATOM     37  C   UNL     1     -14.194  -3.189  10.753  0.00  0.00    +0.011 C 
ATOM     38  C   UNL     1     -11.986  -3.968   9.884  0.00  0.00    +0.011 C 
ENDBRANCH  34  35
ENDBRANCH  32  34
TORSDOF 8
ENDMDL
