MODEL 1
REMARK VINA RESULT:      -6.0      0.000      0.000
REMARK  Name = 56774094
REMARK  10 active torsions:
REMARK  status: ('A' for Active; 'I' for Inactive)
REMARK    1  A    between atoms: O_2  and  C_20
REMARK    2  A    between atoms: O_2  and  C_23
REMARK    3  A    between atoms: N_3  and  C_8
REMARK    4  A    between atoms: N_3  and  C_14
REMARK    5  A    between atoms: C_6  and  C_11
REMARK    6  A    between atoms: C_6  and  C_12
REMARK    7  A    between atoms: C_7  and  C_10
REMARK    8  A    between atoms: C_10  and  C_13
REMARK    9  A    between atoms: C_14  and  C_16
REMARK   10  A    between atoms: C_17  and  C_20
REMARK                            x       y       z     vdW  Elec       q    Type
REMARK                         _______ _______ _______ _____ _____    ______ ____
ROOT
ATOM      6  C   UNL     1      15.549   7.805  20.908  0.00  0.00    -0.016 C 
ATOM      7  C   UNL     1      16.808   6.913  20.935  0.00  0.00    +0.004 C 
ATOM      8  C   UNL     1      14.899   6.727  20.016  0.00  0.00    +0.060 C 
ATOM      9  C   UNL     1      16.328   6.325  19.593  0.00  0.00    +0.023 C 
ATOM     11  C   UNL     1      15.700   9.130  20.181  0.00  0.00    +0.013 C 
ATOM     12  C   UNL     1      14.941   8.043  22.273  0.00  0.00    +0.013 C 
ENDROOT
BRANCH   8   3
ATOM      3  N   UNL     1      14.215   7.328  18.870  0.00  0.00    -0.309 NA
ATOM     24  H   UNL     1      14.604   7.037  17.972  0.00  0.00    +0.123 HD
BRANCH   3  14
ATOM     14  C   UNL     1      12.803   6.965  18.899  0.00  0.00    +0.118 C 
BRANCH  14  16
ATOM      5  N   UNL     1      11.368   9.724  21.057  0.00  0.00    -0.263 NA
ATOM     16  C   UNL     1      12.069   7.657  20.017  0.00  0.00    -0.015 A 
ATOM     18  C   UNL     1      11.434   6.930  21.015  0.00  0.00    +0.008 A 
ATOM     19  C   UNL     1      12.008   9.041  20.082  0.00  0.00    +0.115 A 
ATOM     21  C   UNL     1      10.765   7.597  22.036  0.00  0.00    +0.020 A 
ATOM     22  C   UNL     1      10.761   8.982  22.011  0.00  0.00    +0.111 A 
ENDBRANCH  14  16
ENDBRANCH   3  14
ENDBRANCH   8   3
BRANCH   7  10
ATOM     10  C   UNL     1      18.147   7.611  20.872  0.00  0.00    +0.063 C 
BRANCH  10  13
ATOM      1  O   UNL     1      20.648   5.748  22.688  0.00  0.00    -0.357 OA
ATOM      4  N   UNL     1      19.647   6.708  22.607  0.00  0.00    -0.083 NA
ATOM     13  C   UNL     1      19.246   6.682  21.333  0.00  0.00    +0.084 A 
ATOM     15  C   UNL     1      19.950   5.736  20.571  0.00  0.00    +0.073 A 
ATOM     17  C   UNL     1      20.820   5.176  21.469  0.00  0.00    +0.163 A 
BRANCH  17  20
ATOM     20  C   UNL     1      21.846   4.131  21.373  0.00  0.00    +0.236 C 
BRANCH  20   2
ATOM      2  O   UNL     1      23.122   4.654  21.753  0.00  0.00    -0.375 OA
ATOM     23  C   UNL     1      23.848   5.107  20.622  0.00  0.00    +0.194 C 
ENDBRANCH  20   2
ENDBRANCH  17  20
ENDBRANCH  10  13
ENDBRANCH   7  10
TORSDOF 7
ENDMDL
MODEL 2
REMARK VINA RESULT:      -6.0     26.611     28.676
REMARK  Name = 56774094
REMARK  10 active torsions:
REMARK  status: ('A' for Active; 'I' for Inactive)
REMARK    1  A    between atoms: O_2  and  C_20
REMARK    2  A    between atoms: O_2  and  C_23
REMARK    3  A    between atoms: N_3  and  C_8
REMARK    4  A    between atoms: N_3  and  C_14
REMARK    5  A    between atoms: C_6  and  C_11
REMARK    6  A    between atoms: C_6  and  C_12
REMARK    7  A    between atoms: C_7  and  C_10
REMARK    8  A    between atoms: C_10  and  C_13
REMARK    9  A    between atoms: C_14  and  C_16
REMARK   10  A    between atoms: C_17  and  C_20
REMARK                            x       y       z     vdW  Elec       q    Type
REMARK                         _______ _______ _______ _____ _____    ______ ____
ROOT
ATOM      6  C   UNL     1      -3.955 -11.154  15.169  0.00  0.00    -0.016 C 
ATOM      7  C   UNL     1      -2.637 -10.611  14.580  0.00  0.00    +0.004 C 
ATOM      8  C   UNL     1      -3.354 -10.882  16.564  0.00  0.00    +0.060 C 
ATOM      9  C   UNL     1      -1.965 -11.019  15.907  0.00  0.00    +0.023 C 
ATOM     11  C   UNL     1      -4.216 -12.633  14.939  0.00  0.00    +0.013 C 
ATOM     12  C   UNL     1      -5.177 -10.357  14.767  0.00  0.00    +0.013 C 
ENDROOT
BRANCH   8   3
ATOM      3  N   UNL     1      -3.568 -12.018  17.463  0.00  0.00    -0.309 NA
ATOM     24  H   UNL     1      -2.722 -12.567  17.625  0.00  0.00    +0.123 HD
BRANCH   3  14
ATOM     14  C   UNL     1      -4.055 -11.534  18.751  0.00  0.00    +0.118 C 
BRANCH  14  16
ATOM      5  N   UNL     1      -7.622 -10.987  19.893  0.00  0.00    -0.263 NA
ATOM     16  C   UNL     1      -5.544 -11.706  18.887  0.00  0.00    -0.015 A 
ATOM     18  C   UNL     1      -6.220 -12.691  18.178  0.00  0.00    +0.008 A 
ATOM     19  C   UNL     1      -6.284 -10.886  19.725  0.00  0.00    +0.115 A 
ATOM     21  C   UNL     1      -7.596 -12.826  18.324  0.00  0.00    +0.020 A 
ATOM     22  C   UNL     1      -8.244 -11.957  19.186  0.00  0.00    +0.111 A 
ENDBRANCH  14  16
ENDBRANCH   3  14
ENDBRANCH   8   3
BRANCH   7  10
ATOM     10  C   UNL     1      -2.090 -11.310  13.357  0.00  0.00    +0.063 C 
BRANCH  10  13
ATOM      1  O   UNL     1      -1.966  -9.089  10.515  0.00  0.00    -0.357 OA
ATOM      4  N   UNL     1      -1.402  -9.685  11.636  0.00  0.00    -0.083 NA
ATOM     13  C   UNL     1      -2.355 -10.486  12.118  0.00  0.00    +0.084 A 
ATOM     15  C   UNL     1      -3.531 -10.438  11.351  0.00  0.00    +0.073 A 
ATOM     17  C   UNL     1      -3.235  -9.545  10.355  0.00  0.00    +0.163 A 
BRANCH  17  20
ATOM     20  C   UNL     1      -3.984  -9.015   9.210  0.00  0.00    +0.236 C 
BRANCH  20   2
ATOM      2  O   UNL     1      -4.542 -10.086   8.444  0.00  0.00    -0.375 OA
ATOM     23  C   UNL     1      -5.720  -9.675   7.770  0.00  0.00    +0.194 C 
ENDBRANCH  20   2
ENDBRANCH  17  20
ENDBRANCH  10  13
ENDBRANCH   7  10
TORSDOF 7
ENDMDL
MODEL 3
REMARK VINA RESULT:      -5.5      3.150      9.369
REMARK  Name = 56774094
REMARK  10 active torsions:
REMARK  status: ('A' for Active; 'I' for Inactive)
REMARK    1  A    between atoms: O_2  and  C_20
REMARK    2  A    between atoms: O_2  and  C_23
REMARK    3  A    between atoms: N_3  and  C_8
REMARK    4  A    between atoms: N_3  and  C_14
REMARK    5  A    between atoms: C_6  and  C_11
REMARK    6  A    between atoms: C_6  and  C_12
REMARK    7  A    between atoms: C_7  and  C_10
REMARK    8  A    between atoms: C_10  and  C_13
REMARK    9  A    between atoms: C_14  and  C_16
REMARK   10  A    between atoms: C_17  and  C_20
REMARK                            x       y       z     vdW  Elec       q    Type
REMARK                         _______ _______ _______ _____ _____    ______ ____
ROOT
ATOM      6  C   UNL     1      20.744   5.919  21.202  0.00  0.00    -0.016 C 
ATOM      7  C   UNL     1      19.463   6.443  21.882  0.00  0.00    +0.004 C 
ATOM      8  C   UNL     1      21.315   5.701  22.619  0.00  0.00    +0.060 C 
ATOM      9  C   UNL     1      20.345   6.802  23.095  0.00  0.00    +0.023 C 
ATOM     11  C   UNL     1      21.540   6.949  20.419  0.00  0.00    +0.013 C 
ATOM     12  C   UNL     1      20.521   4.693  20.341  0.00  0.00    +0.013 C 
ENDROOT
BRANCH   8   3
ATOM      3  N   UNL     1      22.687   6.201  22.720  0.00  0.00    -0.309 NA
ATOM     24  H   UNL     1      22.794   6.943  23.412  0.00  0.00    +0.123 HD
BRANCH   3  14
ATOM     14  C   UNL     1      23.579   5.104  23.080  0.00  0.00    +0.118 C 
BRANCH  14  16
ATOM      5  N   UNL     1      25.016   4.242  19.685  0.00  0.00    -0.263 NA
ATOM     16  C   UNL     1      23.994   4.300  21.876  0.00  0.00    -0.015 A 
ATOM     18  C   UNL     1      23.761   2.932  21.812  0.00  0.00    +0.008 A 
ATOM     19  C   UNL     1      24.620   4.904  20.796  0.00  0.00    +0.115 A 
ATOM     21  C   UNL     1      24.155   2.217  20.687  0.00  0.00    +0.020 A 
ATOM     22  C   UNL     1      24.773   2.912  19.660  0.00  0.00    +0.111 A 
ENDBRANCH  14  16
ENDBRANCH   3  14
ENDBRANCH   8   3
BRANCH   7  10
ATOM     10  C   UNL     1      18.773   7.622  21.235  0.00  0.00    +0.063 C 
BRANCH  10  13
ATOM      1  O   UNL     1      16.064   6.240  19.291  0.00  0.00    -0.357 OA
ATOM      4  N   UNL     1      17.414   6.443  19.550  0.00  0.00    -0.083 NA
ATOM     13  C   UNL     1      17.445   7.198  20.651  0.00  0.00    +0.084 A 
ATOM     15  C   UNL     1      16.159   7.501  21.128  0.00  0.00    +0.073 A 
ATOM     17  C   UNL     1      15.326   6.875  20.238  0.00  0.00    +0.163 A 
BRANCH  17  20
ATOM     20  C   UNL     1      13.868   6.764  20.116  0.00  0.00    +0.236 C 
BRANCH  20   2
ATOM      2  O   UNL     1      13.347   7.865  19.367  0.00  0.00    -0.375 OA
ATOM     23  C   UNL     1      12.695   7.422  18.189  0.00  0.00    +0.194 C 
ENDBRANCH  20   2
ENDBRANCH  17  20
ENDBRANCH  10  13
ENDBRANCH   7  10
TORSDOF 7
ENDMDL
MODEL 4
REMARK VINA RESULT:      -5.3     27.614     30.794
REMARK  Name = 56774094
REMARK  10 active torsions:
REMARK  status: ('A' for Active; 'I' for Inactive)
REMARK    1  A    between atoms: O_2  and  C_20
REMARK    2  A    between atoms: O_2  and  C_23
REMARK    3  A    between atoms: N_3  and  C_8
REMARK    4  A    between atoms: N_3  and  C_14
REMARK    5  A    between atoms: C_6  and  C_11
REMARK    6  A    between atoms: C_6  and  C_12
REMARK    7  A    between atoms: C_7  and  C_10
REMARK    8  A    between atoms: C_10  and  C_13
REMARK    9  A    between atoms: C_14  and  C_16
REMARK   10  A    between atoms: C_17  and  C_20
REMARK                            x       y       z     vdW  Elec       q    Type
REMARK                         _______ _______ _______ _____ _____    ______ ____
ROOT
ATOM      6  C   UNL     1     -13.086   7.583  20.906  0.00  0.00    -0.016 C 
ATOM      7  C   UNL     1     -14.075   7.144  22.005  0.00  0.00    +0.004 C 
ATOM      8  C   UNL     1     -12.995   8.939  21.637  0.00  0.00    +0.060 C 
ATOM      9  C   UNL     1     -14.398   8.639  22.206  0.00  0.00    +0.023 C 
ATOM     11  C   UNL     1     -13.675   7.727  19.513  0.00  0.00    +0.013 C 
ATOM     12  C   UNL     1     -11.832   6.738  20.840  0.00  0.00    +0.013 C 
ENDROOT
BRANCH   8   3
ATOM      3  N   UNL     1     -13.093  10.057  20.697  0.00  0.00    -0.309 NA
ATOM     24  H   UNL     1     -13.858  10.697  20.913  0.00  0.00    +0.123 HD
BRANCH   3  14
ATOM     14  C   UNL     1     -11.845  10.811  20.705  0.00  0.00    +0.118 C 
BRANCH  14  16
ATOM      5  N   UNL     1     -10.541  11.916  17.327  0.00  0.00    -0.263 NA
ATOM     16  C   UNL     1     -11.157  10.772  19.367  0.00  0.00    -0.015 A 
ATOM     18  C   UNL     1     -10.522   9.619  18.921  0.00  0.00    +0.008 A 
ATOM     19  C   UNL     1     -11.138  11.885  18.540  0.00  0.00    +0.115 A 
ATOM     21  C   UNL     1      -9.896   9.613  17.679  0.00  0.00    +0.020 A 
ATOM     22  C   UNL     1      -9.933  10.776  16.928  0.00  0.00    +0.111 A 
ENDBRANCH  14  16
ENDBRANCH   3  14
ENDBRANCH   8   3
BRANCH   7  10
ATOM     10  C   UNL     1     -15.252   6.299  21.574  0.00  0.00    +0.063 C 
BRANCH  10  13
ATOM      1  O   UNL     1     -15.152   3.906  24.274  0.00  0.00    -0.357 OA
ATOM      4  N   UNL     1     -14.602   4.940  23.524  0.00  0.00    -0.083 NA
ATOM     13  C   UNL     1     -15.514   5.208  22.586  0.00  0.00    +0.084 A 
ATOM     15  C   UNL     1     -16.648   4.385  22.692  0.00  0.00    +0.073 A 
ATOM     17  C   UNL     1     -16.370   3.584  23.768  0.00  0.00    +0.163 A 
BRANCH  17  20
ATOM     20  C   UNL     1     -17.096   2.503  24.444  0.00  0.00    +0.236 C 
BRANCH  20   2
ATOM      2  O   UNL     1     -16.182   1.648  25.135  0.00  0.00    -0.375 OA
ATOM     23  C   UNL     1     -16.871   0.708  25.944  0.00  0.00    +0.194 C 
ENDBRANCH  20   2
ENDBRANCH  17  20
ENDBRANCH  10  13
ENDBRANCH   7  10
TORSDOF 7
ENDMDL
MODEL 5
REMARK VINA RESULT:      -5.3     27.515     30.270
REMARK  Name = 56774094
REMARK  10 active torsions:
REMARK  status: ('A' for Active; 'I' for Inactive)
REMARK    1  A    between atoms: O_2  and  C_20
REMARK    2  A    between atoms: O_2  and  C_23
REMARK    3  A    between atoms: N_3  and  C_8
REMARK    4  A    between atoms: N_3  and  C_14
REMARK    5  A    between atoms: C_6  and  C_11
REMARK    6  A    between atoms: C_6  and  C_12
REMARK    7  A    between atoms: C_7  and  C_10
REMARK    8  A    between atoms: C_10  and  C_13
REMARK    9  A    between atoms: C_14  and  C_16
REMARK   10  A    between atoms: C_17  and  C_20
REMARK                            x       y       z     vdW  Elec       q    Type
REMARK                         _______ _______ _______ _____ _____    ______ ____
ROOT
ATOM      6  C   UNL     1      -5.681 -11.107  16.680  0.00  0.00    -0.016 C 
ATOM      7  C   UNL     1      -5.686 -11.477  18.177  0.00  0.00    +0.004 C 
ATOM      8  C   UNL     1      -4.171 -11.425  16.684  0.00  0.00    +0.060 C 
ATOM      9  C   UNL     1      -4.188 -11.109  18.195  0.00  0.00    +0.023 C 
ATOM     11  C   UNL     1      -5.954  -9.646  16.364  0.00  0.00    +0.013 C 
ATOM     12  C   UNL     1      -6.578 -11.983  15.831  0.00  0.00    +0.013 C 
ENDROOT
BRANCH   8   3
ATOM      3  N   UNL     1      -3.408 -10.386  15.990  0.00  0.00    -0.309 NA
ATOM     24  H   UNL     1      -2.852  -9.807  16.621  0.00  0.00    +0.123 HD
BRANCH   3  14
ATOM     14  C   UNL     1      -2.509 -11.007  15.023  0.00  0.00    +0.118 C 
BRANCH  14  16
ATOM      5  N   UNL     1      -2.136  -9.986  11.397  0.00  0.00    -0.263 NA
ATOM     16  C   UNL     1      -2.867 -10.637  13.608  0.00  0.00    -0.015 A 
ATOM     18  C   UNL     1      -4.192 -10.593  13.192  0.00  0.00    +0.008 A 
ATOM     19  C   UNL     1      -1.884 -10.328  12.680  0.00  0.00    +0.115 A 
ATOM     21  C   UNL     1      -4.491 -10.247  11.879  0.00  0.00    +0.020 A 
ATOM     22  C   UNL     1      -3.437  -9.956  11.028  0.00  0.00    +0.111 A 
ENDBRANCH  14  16
ENDBRANCH   3  14
ENDBRANCH   8   3
BRANCH   7  10
ATOM     10  C   UNL     1      -6.550 -10.639  19.091  0.00  0.00    +0.063 C 
BRANCH  10  13
ATOM      1  O   UNL     1      -9.796 -11.765  20.195  0.00  0.00    -0.357 OA
ATOM      4  N   UNL     1      -8.886 -10.768  19.867  0.00  0.00    -0.083 NA
ATOM     13  C   UNL     1      -7.773 -11.418  19.517  0.00  0.00    +0.084 A 
ATOM     15  C   UNL     1      -7.919 -12.812  19.604  0.00  0.00    +0.073 A 
ATOM     17  C   UNL     1      -9.209 -12.979  20.035  0.00  0.00    +0.163 A 
BRANCH  17  20
ATOM     20  C   UNL     1     -10.035 -14.152  20.339  0.00  0.00    +0.236 C 
BRANCH  20   2
ATOM      2  O   UNL     1     -11.041 -13.815  21.298  0.00  0.00    -0.375 OA
ATOM     23  C   UNL     1     -10.880 -14.560  22.494  0.00  0.00    +0.194 C 
ENDBRANCH  20   2
ENDBRANCH  17  20
ENDBRANCH  10  13
ENDBRANCH   7  10
TORSDOF 7
ENDMDL
MODEL 6
REMARK VINA RESULT:      -5.3     18.022     20.729
REMARK  Name = 56774094
REMARK  10 active torsions:
REMARK  status: ('A' for Active; 'I' for Inactive)
REMARK    1  A    between atoms: O_2  and  C_20
REMARK    2  A    between atoms: O_2  and  C_23
REMARK    3  A    between atoms: N_3  and  C_8
REMARK    4  A    between atoms: N_3  and  C_14
REMARK    5  A    between atoms: C_6  and  C_11
REMARK    6  A    between atoms: C_6  and  C_12
REMARK    7  A    between atoms: C_7  and  C_10
REMARK    8  A    between atoms: C_10  and  C_13
REMARK    9  A    between atoms: C_14  and  C_16
REMARK   10  A    between atoms: C_17  and  C_20
REMARK                            x       y       z     vdW  Elec       q    Type
REMARK                         _______ _______ _______ _____ _____    ______ ____
ROOT
ATOM      6  C   UNL     1      12.599   4.653   1.498  0.00  0.00    -0.016 C 
ATOM      7  C   UNL     1      11.172   4.925   2.015  0.00  0.00    +0.004 C 
ATOM      8  C   UNL     1      12.070   4.989   0.087  0.00  0.00    +0.060 C 
ATOM      9  C   UNL     1      10.674   4.574   0.598  0.00  0.00    +0.023 C 
ATOM     11  C   UNL     1      13.072   3.213   1.601  0.00  0.00    +0.013 C 
ATOM     12  C   UNL     1      13.647   5.573   2.088  0.00  0.00    +0.013 C 
ENDROOT
BRANCH   8   3
ATOM      3  N   UNL     1      12.526   4.006  -0.898  0.00  0.00    -0.309 NA
ATOM     24  H   UNL     1      11.784   3.384  -1.218  0.00  0.00    +0.123 HD
BRANCH   3  14
ATOM     14  C   UNL     1      13.078   4.700  -2.056  0.00  0.00    +0.118 C 
BRANCH  14  16
ATOM      5  N   UNL     1      16.649   5.049  -3.266  0.00  0.00    -0.263 NA
ATOM     16  C   UNL     1      14.583   4.655  -2.072  0.00  0.00    -0.015 A 
ATOM     18  C   UNL     1      15.298   4.202  -0.970  0.00  0.00    +0.008 A 
ATOM     19  C   UNL     1      15.299   5.065  -3.186  0.00  0.00    +0.115 A 
ATOM     21  C   UNL     1      16.688   4.172  -1.014  0.00  0.00    +0.020 A 
ATOM     22  C   UNL     1      17.309   4.603  -2.174  0.00  0.00    +0.111 A 
ENDBRANCH  14  16
ENDBRANCH   3  14
ENDBRANCH   8   3
BRANCH   7  10
ATOM     10  C   UNL     1      10.651   4.019   3.107  0.00  0.00    +0.063 C 
BRANCH  10  13
ATOM      1  O   UNL     1      10.914   6.342   5.856  0.00  0.00    -0.357 OA
ATOM      4  N   UNL     1      11.212   5.925   4.564  0.00  0.00    -0.083 NA
ATOM     13  C   UNL     1      10.557   4.771   4.413  0.00  0.00    +0.084 A 
ATOM     15  C   UNL     1       9.836   4.412   5.564  0.00  0.00    +0.073 A 
ATOM     17  C   UNL     1      10.093   5.432   6.442  0.00  0.00    +0.163 A 
BRANCH  17  20
ATOM     20  C   UNL     1       9.676   5.717   7.819  0.00  0.00    +0.236 C 
BRANCH  20   2
ATOM      2  O   UNL     1      10.173   4.712   8.707  0.00  0.00    -0.375 OA
ATOM     23  C   UNL     1       9.352   4.592   9.857  0.00  0.00    +0.194 C 
ENDBRANCH  20   2
ENDBRANCH  17  20
ENDBRANCH  10  13
ENDBRANCH   7  10
TORSDOF 7
ENDMDL
MODEL 7
REMARK VINA RESULT:      -5.3     18.533     21.128
REMARK  Name = 56774094
REMARK  10 active torsions:
REMARK  status: ('A' for Active; 'I' for Inactive)
REMARK    1  A    between atoms: O_2  and  C_20
REMARK    2  A    between atoms: O_2  and  C_23
REMARK    3  A    between atoms: N_3  and  C_8
REMARK    4  A    between atoms: N_3  and  C_14
REMARK    5  A    between atoms: C_6  and  C_11
REMARK    6  A    between atoms: C_6  and  C_12
REMARK    7  A    between atoms: C_7  and  C_10
REMARK    8  A    between atoms: C_10  and  C_13
REMARK    9  A    between atoms: C_14  and  C_16
REMARK   10  A    between atoms: C_17  and  C_20
REMARK                            x       y       z     vdW  Elec       q    Type
REMARK                         _______ _______ _______ _____ _____    ______ ____
ROOT
ATOM      6  C   UNL     1      12.711   4.761   1.476  0.00  0.00    -0.016 C 
ATOM      7  C   UNL     1      11.286   4.959   2.031  0.00  0.00    +0.004 C 
ATOM      8  C   UNL     1      12.127   5.063   0.080  0.00  0.00    +0.060 C 
ATOM      9  C   UNL     1      10.768   4.578   0.629  0.00  0.00    +0.023 C 
ATOM     11  C   UNL     1      13.261   3.348   1.569  0.00  0.00    +0.013 C 
ATOM     12  C   UNL     1      13.725   5.736   2.036  0.00  0.00    +0.013 C 
ENDROOT
BRANCH   8   3
ATOM      3  N   UNL     1      12.607   4.103  -0.915  0.00  0.00    -0.309 NA
ATOM     24  H   UNL     1      12.211   3.170  -0.796  0.00  0.00    +0.123 HD
BRANCH   3  14
ATOM     14  C   UNL     1      12.270   4.579  -2.252  0.00  0.00    +0.118 C 
BRANCH  14  16
ATOM      5  N   UNL     1       9.966   1.658  -2.955  0.00  0.00    -0.263 NA
ATOM     16  C   UNL     1      11.196   3.740  -2.892  0.00  0.00    -0.015 A 
ATOM     18  C   UNL     1      10.457   4.218  -3.966  0.00  0.00    +0.008 A 
ATOM     19  C   UNL     1      10.915   2.464  -2.427  0.00  0.00    +0.115 A 
ATOM     21  C   UNL     1       9.472   3.419  -4.537  0.00  0.00    +0.020 A 
ATOM     22  C   UNL     1       9.267   2.159  -3.999  0.00  0.00    +0.111 A 
ENDBRANCH  14  16
ENDBRANCH   3  14
ENDBRANCH   8   3
BRANCH   7  10
ATOM     10  C   UNL     1      10.843   4.031   3.139  0.00  0.00    +0.063 C 
BRANCH  10  13
ATOM      1  O   UNL     1      10.804   6.436   5.829  0.00  0.00    -0.357 OA
ATOM      4  N   UNL     1      11.175   6.019   4.556  0.00  0.00    -0.083 NA
ATOM     13  C   UNL     1      10.642   4.802   4.423  0.00  0.00    +0.084 A 
ATOM     15  C   UNL     1       9.932   4.400   5.567  0.00  0.00    +0.073 A 
ATOM     17  C   UNL     1      10.065   5.463   6.422  0.00  0.00    +0.163 A 
BRANCH  17  20
ATOM     20  C   UNL     1       9.587   5.739   7.781  0.00  0.00    +0.236 C 
BRANCH  20   2
ATOM      2  O   UNL     1      10.097   4.763   8.694  0.00  0.00    -0.375 OA
ATOM     23  C   UNL     1       9.265   4.644   9.836  0.00  0.00    +0.194 C 
ENDBRANCH  20   2
ENDBRANCH  17  20
ENDBRANCH  10  13
ENDBRANCH   7  10
TORSDOF 7
ENDMDL
MODEL 8
REMARK VINA RESULT:      -5.3     27.027     29.344
REMARK  Name = 56774094
REMARK  10 active torsions:
REMARK  status: ('A' for Active; 'I' for Inactive)
REMARK    1  A    between atoms: O_2  and  C_20
REMARK    2  A    between atoms: O_2  and  C_23
REMARK    3  A    between atoms: N_3  and  C_8
REMARK    4  A    between atoms: N_3  and  C_14
REMARK    5  A    between atoms: C_6  and  C_11
REMARK    6  A    between atoms: C_6  and  C_12
REMARK    7  A    between atoms: C_7  and  C_10
REMARK    8  A    between atoms: C_10  and  C_13
REMARK    9  A    between atoms: C_14  and  C_16
REMARK   10  A    between atoms: C_17  and  C_20
REMARK                            x       y       z     vdW  Elec       q    Type
REMARK                         _______ _______ _______ _____ _____    ______ ____
ROOT
ATOM      6  C   UNL     1     -11.654   9.156  19.059  0.00  0.00    -0.016 C 
ATOM      7  C   UNL     1     -11.934   7.647  19.217  0.00  0.00    +0.004 C 
ATOM      8  C   UNL     1     -11.090   8.827  17.661  0.00  0.00    +0.060 C 
ATOM      9  C   UNL     1     -10.804   7.407  18.195  0.00  0.00    +0.023 C 
ATOM     11  C   UNL     1     -10.589   9.725  19.982  0.00  0.00    +0.013 C 
ATOM     12  C   UNL     1     -12.896  10.018  19.127  0.00  0.00    +0.013 C 
ENDROOT
BRANCH   8   3
ATOM      3  N   UNL     1      -9.817   9.511  17.427  0.00  0.00    -0.309 NA
ATOM     24  H   UNL     1      -9.054   8.874  17.199  0.00  0.00    +0.123 HD
BRANCH   3  14
ATOM     14  C   UNL     1      -9.969  10.459  16.328  0.00  0.00    +0.118 C 
BRANCH  14  16
ATOM      5  N   UNL     1      -8.483  13.905  16.824  0.00  0.00    -0.263 NA
ATOM     16  C   UNL     1      -9.809  11.883  16.789  0.00  0.00    -0.015 A 
ATOM     18  C   UNL     1     -10.778  12.495  17.575  0.00  0.00    +0.008 A 
ATOM     19  C   UNL     1      -8.690  12.624  16.443  0.00  0.00    +0.115 A 
ATOM     21  C   UNL     1     -10.601  13.811  17.986  0.00  0.00    +0.020 A 
ATOM     22  C   UNL     1      -9.448  14.467  17.587  0.00  0.00    +0.111 A 
ENDBRANCH  14  16
ENDBRANCH   3  14
ENDBRANCH   8   3
BRANCH   7  10
ATOM     10  C   UNL     1     -11.690   7.040  20.579  0.00  0.00    +0.063 C 
BRANCH  10  13
ATOM      1  O   UNL     1     -15.101   6.271  21.470  0.00  0.00    -0.357 OA
ATOM      4  N   UNL     1     -14.146   7.012  20.786  0.00  0.00    -0.083 NA
ATOM     13  C   UNL     1     -12.975   6.478  21.142  0.00  0.00    +0.084 A 
ATOM     15  C   UNL     1     -13.126   5.409  22.040  0.00  0.00    +0.073 A 
ATOM     17  C   UNL     1     -14.482   5.319  22.215  0.00  0.00    +0.163 A 
BRANCH  17  20
ATOM     20  C   UNL     1     -15.349   4.440  23.007  0.00  0.00    +0.236 C 
BRANCH  20   2
ATOM      2  O   UNL     1     -15.887   5.151  24.125  0.00  0.00    -0.375 OA
ATOM     23  C   UNL     1     -17.148   4.626  24.508  0.00  0.00    +0.194 C 
ENDBRANCH  20   2
ENDBRANCH  17  20
ENDBRANCH  10  13
ENDBRANCH   7  10
TORSDOF 7
ENDMDL
MODEL 9
REMARK VINA RESULT:      -5.2      3.462      9.482
REMARK  Name = 56774094
REMARK  10 active torsions:
REMARK  status: ('A' for Active; 'I' for Inactive)
REMARK    1  A    between atoms: O_2  and  C_20
REMARK    2  A    between atoms: O_2  and  C_23
REMARK    3  A    between atoms: N_3  and  C_8
REMARK    4  A    between atoms: N_3  and  C_14
REMARK    5  A    between atoms: C_6  and  C_11
REMARK    6  A    between atoms: C_6  and  C_12
REMARK    7  A    between atoms: C_7  and  C_10
REMARK    8  A    between atoms: C_10  and  C_13
REMARK    9  A    between atoms: C_14  and  C_16
REMARK   10  A    between atoms: C_17  and  C_20
REMARK                            x       y       z     vdW  Elec       q    Type
REMARK                         _______ _______ _______ _____ _____    ______ ____
ROOT
ATOM      6  C   UNL     1      20.092   6.870  21.354  0.00  0.00    -0.016 C 
ATOM      7  C   UNL     1      18.890   6.509  20.458  0.00  0.00    +0.004 C 
ATOM      8  C   UNL     1      20.884   5.781  20.601  0.00  0.00    +0.060 C 
ATOM      9  C   UNL     1      19.526   5.112  20.299  0.00  0.00    +0.023 C 
ATOM     11  C   UNL     1      19.933   6.541  22.829  0.00  0.00    +0.013 C 
ATOM     12  C   UNL     1      20.556   8.303  21.203  0.00  0.00    +0.013 C 
ENDROOT
BRANCH   8   3
ATOM      3  N   UNL     1      21.634   4.933  21.529  0.00  0.00    -0.309 NA
ATOM     24  H   UNL     1      21.106   4.119  21.846  0.00  0.00    +0.123 HD
BRANCH   3  14
ATOM     14  C   UNL     1      22.855   4.466  20.882  0.00  0.00    +0.118 C 
BRANCH  14  16
ATOM      5  N   UNL     1      23.889   1.988  23.551  0.00  0.00    -0.263 NA
ATOM     16  C   UNL     1      23.388   3.215  21.528  0.00  0.00    -0.015 A 
ATOM     18  C   UNL     1      23.861   2.157  20.761  0.00  0.00    +0.008 A 
ATOM     19  C   UNL     1      23.423   3.083  22.908  0.00  0.00    +0.115 A 
ATOM     21  C   UNL     1      24.348   1.015  21.386  0.00  0.00    +0.020 A 
ATOM     22  C   UNL     1      24.340   0.980  22.771  0.00  0.00    +0.111 A 
ENDBRANCH  14  16
ENDBRANCH   3  14
ENDBRANCH   8   3
BRANCH   7  10
ATOM     10  C   UNL     1      17.524   6.507  21.105  0.00  0.00    +0.063 C 
BRANCH  10  13
ATOM      1  O   UNL     1      15.078   6.971  18.493  0.00  0.00    -0.357 OA
ATOM      4  N   UNL     1      15.997   6.201  19.196  0.00  0.00    -0.083 NA
ATOM     13  C   UNL     1      16.482   7.016  20.136  0.00  0.00    +0.084 A 
ATOM     15  C   UNL     1      15.915   8.299  20.076  0.00  0.00    +0.073 A 
ATOM     17  C   UNL     1      15.038   8.220  19.026  0.00  0.00    +0.163 A 
BRANCH  17  20
ATOM     20  C   UNL     1      14.114   9.171  18.400  0.00  0.00    +0.236 C 
BRANCH  20   2
ATOM      2  O   UNL     1      12.764   8.854  18.749  0.00  0.00    -0.375 OA
ATOM     23  C   UNL     1      11.992   8.560  17.596  0.00  0.00    +0.194 C 
ENDBRANCH  20   2
ENDBRANCH  17  20
ENDBRANCH  10  13
ENDBRANCH   7  10
TORSDOF 7
ENDMDL
MODEL 10
REMARK VINA RESULT:      -5.2     27.465     30.449
REMARK  Name = 56774094
REMARK  10 active torsions:
REMARK  status: ('A' for Active; 'I' for Inactive)
REMARK    1  A    between atoms: O_2  and  C_20
REMARK    2  A    between atoms: O_2  and  C_23
REMARK    3  A    between atoms: N_3  and  C_8
REMARK    4  A    between atoms: N_3  and  C_14
REMARK    5  A    between atoms: C_6  and  C_11
REMARK    6  A    between atoms: C_6  and  C_12
REMARK    7  A    between atoms: C_7  and  C_10
REMARK    8  A    between atoms: C_10  and  C_13
REMARK    9  A    between atoms: C_14  and  C_16
REMARK   10  A    between atoms: C_17  and  C_20
REMARK                            x       y       z     vdW  Elec       q    Type
REMARK                         _______ _______ _______ _____ _____    ______ ____
ROOT
ATOM      6  C   UNL     1     -12.927   8.379  19.276  0.00  0.00    -0.016 C 
ATOM      7  C   UNL     1     -12.924   7.272  20.350  0.00  0.00    +0.004 C 
ATOM      8  C   UNL     1     -11.428   8.078  19.071  0.00  0.00    +0.060 C 
ATOM      9  C   UNL     1     -11.416   7.546  20.520  0.00  0.00    +0.023 C 
ATOM     11  C   UNL     1     -13.159   9.790  19.789  0.00  0.00    +0.013 C 
ATOM     12  C   UNL     1     -13.861   8.103  18.117  0.00  0.00    +0.013 C 
ENDROOT
BRANCH   8   3
ATOM      3  N   UNL     1     -10.642   9.312  19.011  0.00  0.00    -0.309 NA
ATOM     24  H   UNL     1     -10.012   9.426  19.806  0.00  0.00    +0.123 HD
BRANCH   3  14
ATOM     14  C   UNL     1      -9.847   9.324  17.788  0.00  0.00    +0.118 C 
BRANCH  14  16
ATOM      5  N   UNL     1     -11.440   8.642  14.423  0.00  0.00    -0.263 NA
ATOM     16  C   UNL     1     -10.706   9.493  16.563  0.00  0.00    -0.015 A 
ATOM     18  C   UNL     1     -11.533  10.600  16.415  0.00  0.00    +0.008 A 
ATOM     19  C   UNL     1     -10.695   8.550  15.548  0.00  0.00    +0.115 A 
ATOM     21  C   UNL     1     -12.314  10.729  15.272  0.00  0.00    +0.020 A 
ATOM     22  C   UNL     1     -12.233   9.732  14.315  0.00  0.00    +0.111 A 
ENDBRANCH  14  16
ENDBRANCH   3  14
ENDBRANCH   8   3
BRANCH   7  10
ATOM     10  C   UNL     1     -13.751   7.515  21.592  0.00  0.00    +0.063 C 
BRANCH  10  13
ATOM      1  O   UNL     1     -14.863   4.123  22.118  0.00  0.00    -0.357 OA
ATOM      4  N   UNL     1     -14.043   5.069  21.517  0.00  0.00    -0.083 NA
ATOM     13  C   UNL     1     -14.436   6.240  22.025  0.00  0.00    +0.084 A 
ATOM     15  C   UNL     1     -15.490   6.097  22.942  0.00  0.00    +0.073 A 
ATOM     17  C   UNL     1     -15.722   4.747  22.965  0.00  0.00    +0.163 A 
BRANCH  17  20
ATOM     20  C   UNL     1     -16.668   3.890  23.689  0.00  0.00    +0.236 C 
BRANCH  20   2
ATOM      2  O   UNL     1     -16.484   2.522  23.316  0.00  0.00    -0.375 OA
ATOM     23  C   UNL     1     -17.701   1.942  22.878  0.00  0.00    +0.194 C 
ENDBRANCH  20   2
ENDBRANCH  17  20
ENDBRANCH  10  13
ENDBRANCH   7  10
TORSDOF 7
ENDMDL
