MODEL 1
REMARK VINA RESULT:      -5.8      0.000      0.000
REMARK  Name = 26744652
REMARK  11 active torsions:
REMARK  status: ('A' for Active; 'I' for Inactive)
REMARK    1  A    between atoms: O_3  and  C_10
REMARK    2  A    between atoms: O_4  and  C_11
REMARK    3  A    between atoms: N_7  and  C_15
REMARK    4  A    between atoms: N_7  and  C_19
REMARK    5  A    between atoms: N_8  and  C_18
REMARK    6  A    between atoms: N_9  and  C_17
REMARK    7  A    between atoms: C_12  and  C_14
REMARK    8  A    between atoms: C_13  and  C_15
REMARK    9  A    between atoms: C_14  and  C_16
REMARK   10  A    between atoms: C_17  and  C_18
REMARK   11  A    between atoms: C_19  and  C_24
REMARK                            x       y       z     vdW  Elec       q    Type
REMARK                         _______ _______ _______ _____ _____    ______ ____
ROOT
ATOM      2  O   UNL     1       9.952   6.160   5.800  0.00  0.00    -0.366 OA
ATOM     10  C   UNL     1      11.701   6.388   7.364  0.00  0.00    +0.175 C 
ATOM     11  C   UNL     1      10.538   5.715   8.062  0.00  0.00    +0.175 C 
ATOM     12  C   UNL     1      11.385   6.106   5.905  0.00  0.00    +0.158 C 
ATOM     13  C   UNL     1       9.379   6.027   7.121  0.00  0.00    +0.163 C 
ENDROOT
BRANCH  10   3
ATOM      3  O   UNL     1      12.957   5.869   7.744  0.00  0.00    -0.387 OA
ATOM     30  H   UNL     1      13.640   6.429   7.334  0.00  0.00    +0.210 HD
ENDBRANCH  10   3
BRANCH  11   4
ATOM      4  O   UNL     1      10.723   4.300   8.082  0.00  0.00    -0.387 OA
ATOM     31  H   UNL     1      11.671   4.129   7.949  0.00  0.00    +0.210 HD
ENDBRANCH  11   4
BRANCH  12  14
ATOM     14  C   UNL     1      12.007   7.108   4.949  0.00  0.00    +0.130 C 
BRANCH  14  16
ATOM      5  O   UNL     1      13.006   6.994   2.749  0.00  0.00    -0.276 OA
ATOM      8  N   UNL     1      11.341   5.475   3.317  0.00  0.00    -0.314 N 
ATOM     16  C   UNL     1      12.194   6.544   3.553  0.00  0.00    +0.216 C 
ATOM     33  H   UNL     1      10.719   5.160   4.057  0.00  0.00    +0.149 HD
BRANCH   8  18
ATOM     18  C   UNL     1      11.309   4.753   2.066  0.00  0.00    +0.119 C 
BRANCH  18  17
ATOM     17  C   UNL     1      12.024   3.415   2.185  0.00  0.00    +0.103 C 
BRANCH  17   9
ATOM      6  O   UNL     1      15.033   4.446  -0.554  0.00  0.00    -0.377 OA
ATOM      9  N   UNL     1      13.082   3.313   1.182  0.00  0.00    -0.297 NA
ATOM     20  C   UNL     1      14.345   3.861   1.698  0.00  0.00    +0.112 C 
ATOM     21  C   UNL     1      12.699   4.007  -0.054  0.00  0.00    +0.112 C 
ATOM     22  C   UNL     1      15.430   3.755   0.631  0.00  0.00    +0.175 C 
ATOM     23  C   UNL     1      13.824   3.896  -1.081  0.00  0.00    +0.175 C 
ENDBRANCH  17   9
ENDBRANCH  18  17
ENDBRANCH   8  18
ENDBRANCH  14  16
ENDBRANCH  12  14
BRANCH  13  15
ATOM     15  C   UNL     1       8.674   7.336   7.456  0.00  0.00    +0.115 C 
BRANCH  15   7
ATOM      7  N   UNL     1       7.747   7.716   6.399  0.00  0.00    -0.309 NA
ATOM     32  H   UNL     1       7.798   7.031   5.646  0.00  0.00    +0.122 HD
BRANCH   7  19
ATOM     19  C   UNL     1       8.058   9.043   5.887  0.00  0.00    +0.116 C 
BRANCH  19  24
ATOM      1 CL   UNL     1      11.643  10.848   2.564  0.00  0.00    -0.084 Cl
ATOM     24  C   UNL     1       8.699   8.983   4.526  0.00  0.00    -0.032 A 
ATOM     25  C   UNL     1       9.751   9.843   4.212  0.00  0.00    +0.025 A 
ATOM     26  C   UNL     1       8.240   8.067   3.579  0.00  0.00    +0.005 A 
ATOM     27  C   UNL     1      10.346   9.786   2.951  0.00  0.00    +0.041 A 
ATOM     28  C   UNL     1       8.835   8.010   2.318  0.00  0.00    +0.002 A 
ATOM     29  C   UNL     1       9.887   8.870   2.004  0.00  0.00    +0.020 A 
ENDBRANCH  19  24
ENDBRANCH   7  19
ENDBRANCH  15   7
ENDBRANCH  13  15
TORSDOF 11
ENDMDL
MODEL 2
REMARK VINA RESULT:      -5.8     24.152     26.728
REMARK  Name = 26744652
REMARK  11 active torsions:
REMARK  status: ('A' for Active; 'I' for Inactive)
REMARK    1  A    between atoms: O_3  and  C_10
REMARK    2  A    between atoms: O_4  and  C_11
REMARK    3  A    between atoms: N_7  and  C_15
REMARK    4  A    between atoms: N_7  and  C_19
REMARK    5  A    between atoms: N_8  and  C_18
REMARK    6  A    between atoms: N_9  and  C_17
REMARK    7  A    between atoms: C_12  and  C_14
REMARK    8  A    between atoms: C_13  and  C_15
REMARK    9  A    between atoms: C_14  and  C_16
REMARK   10  A    between atoms: C_17  and  C_18
REMARK   11  A    between atoms: C_19  and  C_24
REMARK                            x       y       z     vdW  Elec       q    Type
REMARK                         _______ _______ _______ _____ _____    ______ ____
ROOT
ATOM      2  O   UNL     1      -5.858 -10.536  17.671  0.00  0.00    -0.366 OA
ATOM     10  C   UNL     1      -7.770 -11.041  18.953  0.00  0.00    +0.175 C 
ATOM     11  C   UNL     1      -6.611 -11.841  19.511  0.00  0.00    +0.175 C 
ATOM     12  C   UNL     1      -7.045  -9.931  18.212  0.00  0.00    +0.158 C 
ATOM     13  C   UNL     1      -5.602 -11.775  18.370  0.00  0.00    +0.163 C 
ENDROOT
BRANCH  10   3
ATOM      3  O   UNL     1      -8.633 -10.537  19.951  0.00  0.00    -0.387 OA
ATOM     30  H   UNL     1      -8.460  -9.582  20.030  0.00  0.00    +0.210 HD
ENDBRANCH  10   3
BRANCH  11   4
ATOM      4  O   UNL     1      -6.047 -11.174  20.640  0.00  0.00    -0.387 OA
ATOM     31  H   UNL     1      -6.561 -10.362  20.786  0.00  0.00    +0.210 HD
ENDBRANCH  11   4
BRANCH  12  14
ATOM     14  C   UNL     1      -7.865  -9.319  17.091  0.00  0.00    +0.130 C 
BRANCH  14  16
ATOM      5  O   UNL     1      -8.392 -11.111  15.552  0.00  0.00    -0.276 OA
ATOM      8  N   UNL     1      -6.825  -9.510  14.933  0.00  0.00    -0.314 N 
ATOM     16  C   UNL     1      -7.745 -10.094  15.792  0.00  0.00    +0.216 C 
ATOM     33  H   UNL     1      -6.356  -8.653  15.213  0.00  0.00    +0.149 HD
BRANCH   8  18
ATOM     18  C   UNL     1      -6.514 -10.044  13.628  0.00  0.00    +0.119 C 
BRANCH  18  17
ATOM     17  C   UNL     1      -7.453  -9.488  12.567  0.00  0.00    +0.103 C 
BRANCH  17   9
ATOM      6  O   UNL     1      -4.610  -9.988   9.520  0.00  0.00    -0.377 OA
ATOM      9  N   UNL     1      -6.768  -9.398  11.278  0.00  0.00    -0.297 NA
ATOM     20  C   UNL     1      -6.608 -10.731  10.679  0.00  0.00    +0.112 C 
ATOM     21  C   UNL     1      -5.459  -8.751  11.427  0.00  0.00    +0.112 C 
ATOM     22  C   UNL     1      -5.881 -10.613   9.343  0.00  0.00    +0.175 C 
ATOM     23  C   UNL     1      -4.759  -8.679  10.072  0.00  0.00    +0.175 C 
ENDBRANCH  17   9
ENDBRANCH  18  17
ENDBRANCH   8  18
ENDBRANCH  14  16
ENDBRANCH  12  14
BRANCH  13  15
ATOM     15  C   UNL     1      -5.757 -12.914  17.370  0.00  0.00    +0.115 C 
BRANCH  15   7
ATOM      7  N   UNL     1      -5.538 -12.448  16.008  0.00  0.00    -0.309 NA
ATOM     32  H   UNL     1      -6.335 -12.714  15.431  0.00  0.00    +0.122 HD
BRANCH   7  19
ATOM     19  C   UNL     1      -4.314 -13.011  15.456  0.00  0.00    +0.116 C 
BRANCH  19  24
ATOM      1 CL   UNL     1      -1.879 -10.178  11.822  0.00  0.00    -0.084 Cl
ATOM     24  C   UNL     1      -3.309 -11.943  15.114  0.00  0.00    -0.032 A 
ATOM     25  C   UNL     1      -3.086 -11.596  13.782  0.00  0.00    +0.025 A 
ATOM     26  C   UNL     1      -2.602 -11.300  16.131  0.00  0.00    +0.005 A 
ATOM     27  C   UNL     1      -2.156 -10.605  13.466  0.00  0.00    +0.041 A 
ATOM     28  C   UNL     1      -1.672 -10.309  15.814  0.00  0.00    +0.002 A 
ATOM     29  C   UNL     1      -1.449  -9.962  14.482  0.00  0.00    +0.020 A 
ENDBRANCH  19  24
ENDBRANCH   7  19
ENDBRANCH  15   7
ENDBRANCH  13  15
TORSDOF 11
ENDMDL
MODEL 3
REMARK VINA RESULT:      -5.6     24.953     27.981
REMARK  Name = 26744652
REMARK  11 active torsions:
REMARK  status: ('A' for Active; 'I' for Inactive)
REMARK    1  A    between atoms: O_3  and  C_10
REMARK    2  A    between atoms: O_4  and  C_11
REMARK    3  A    between atoms: N_7  and  C_15
REMARK    4  A    between atoms: N_7  and  C_19
REMARK    5  A    between atoms: N_8  and  C_18
REMARK    6  A    between atoms: N_9  and  C_17
REMARK    7  A    between atoms: C_12  and  C_14
REMARK    8  A    between atoms: C_13  and  C_15
REMARK    9  A    between atoms: C_14  and  C_16
REMARK   10  A    between atoms: C_17  and  C_18
REMARK   11  A    between atoms: C_19  and  C_24
REMARK                            x       y       z     vdW  Elec       q    Type
REMARK                         _______ _______ _______ _____ _____    ______ ____
ROOT
ATOM      2  O   UNL     1      -5.625 -10.312  18.155  0.00  0.00    -0.366 OA
ATOM     10  C   UNL     1      -5.001 -12.579  17.982  0.00  0.00    +0.175 C 
ATOM     11  C   UNL     1      -4.266 -11.810  16.905  0.00  0.00    +0.175 C 
ATOM     12  C   UNL     1      -5.351 -11.471  18.961  0.00  0.00    +0.158 C 
ATOM     13  C   UNL     1      -5.065 -10.513  16.838  0.00  0.00    +0.163 C 
ENDROOT
BRANCH  10   3
ATOM      3  O   UNL     1      -4.218 -13.588  18.583  0.00  0.00    -0.387 OA
ATOM     30  H   UNL     1      -4.817 -14.318  18.821  0.00  0.00    +0.210 HD
ENDBRANCH  10   3
BRANCH  11   4
ATOM      4  O   UNL     1      -2.943 -11.493  17.338  0.00  0.00    -0.387 OA
ATOM     31  H   UNL     1      -2.829 -10.531  17.242  0.00  0.00    +0.210 HD
ENDBRANCH  11   4
BRANCH  12  14
ATOM     14  C   UNL     1      -6.557 -11.790  19.826  0.00  0.00    +0.130 C 
BRANCH  14  16
ATOM      5  O   UNL     1      -8.364 -12.623  18.450  0.00  0.00    -0.276 OA
ATOM      8  N   UNL     1      -8.406 -10.410  19.157  0.00  0.00    -0.314 N 
ATOM     16  C   UNL     1      -7.865 -11.684  19.065  0.00  0.00    +0.216 C 
ATOM     33  H   UNL     1      -7.929  -9.704  19.711  0.00  0.00    +0.149 HD
BRANCH   8  18
ATOM     18  C   UNL     1      -9.648 -10.032  18.523  0.00  0.00    +0.119 C 
BRANCH  18  17
ATOM     17  C   UNL     1      -9.399  -9.198  17.275  0.00  0.00    +0.103 C 
BRANCH  17   9
ATOM      6  O   UNL     1     -12.413  -6.950  15.410  0.00  0.00    -0.377 OA
ATOM      9  N   UNL     1     -10.501  -8.262  17.060  0.00  0.00    -0.297 NA
ATOM     20  C   UNL     1     -11.690  -8.964  16.554  0.00  0.00    +0.112 C 
ATOM     21  C   UNL     1     -10.108  -7.198  16.128  0.00  0.00    +0.112 C 
ATOM     22  C   UNL     1     -12.821  -7.966  16.326  0.00  0.00    +0.175 C 
ATOM     23  C   UNL     1     -11.279  -6.241  15.911  0.00  0.00    +0.175 C 
ENDBRANCH  17   9
ENDBRANCH  18  17
ENDBRANCH   8  18
ENDBRANCH  14  16
ENDBRANCH  12  14
BRANCH  13  15
ATOM     15  C   UNL     1      -6.219 -10.574  15.845  0.00  0.00    +0.115 C 
BRANCH  15   7
ATOM      7  N   UNL     1      -6.036  -9.609  14.770  0.00  0.00    -0.309 NA
ATOM     32  H   UNL     1      -6.705  -8.848  14.886  0.00  0.00    +0.122 HD
BRANCH   7  19
ATOM     19  C   UNL     1      -6.219 -10.238  13.469  0.00  0.00    +0.116 C 
BRANCH  19  24
ATOM      1 CL   UNL     1      -4.000  -8.791   8.981  0.00  0.00    -0.084 Cl
ATOM     24  C   UNL     1      -4.981 -10.136  12.618  0.00  0.00    -0.032 A 
ATOM     25  C   UNL     1      -5.055  -9.576  11.343  0.00  0.00    +0.025 A 
ATOM     26  C   UNL     1      -3.759 -10.601  13.106  0.00  0.00    +0.005 A 
ATOM     27  C   UNL     1      -3.908  -9.481  10.555  0.00  0.00    +0.041 A 
ATOM     28  C   UNL     1      -2.612 -10.506  12.318  0.00  0.00    +0.002 A 
ATOM     29  C   UNL     1      -2.686  -9.946  11.043  0.00  0.00    +0.020 A 
ENDBRANCH  19  24
ENDBRANCH   7  19
ENDBRANCH  15   7
ENDBRANCH  13  15
TORSDOF 11
ENDMDL
MODEL 4
REMARK VINA RESULT:      -5.6     28.895     32.912
REMARK  Name = 26744652
REMARK  11 active torsions:
REMARK  status: ('A' for Active; 'I' for Inactive)
REMARK    1  A    between atoms: O_3  and  C_10
REMARK    2  A    between atoms: O_4  and  C_11
REMARK    3  A    between atoms: N_7  and  C_15
REMARK    4  A    between atoms: N_7  and  C_19
REMARK    5  A    between atoms: N_8  and  C_18
REMARK    6  A    between atoms: N_9  and  C_17
REMARK    7  A    between atoms: C_12  and  C_14
REMARK    8  A    between atoms: C_13  and  C_15
REMARK    9  A    between atoms: C_14  and  C_16
REMARK   10  A    between atoms: C_17  and  C_18
REMARK   11  A    between atoms: C_19  and  C_24
REMARK                            x       y       z     vdW  Elec       q    Type
REMARK                         _______ _______ _______ _____ _____    ______ ____
ROOT
ATOM      2  O   UNL     1     -14.467   4.559  22.450  0.00  0.00    -0.366 OA
ATOM     10  C   UNL     1     -16.596   5.571  22.498  0.00  0.00    +0.175 C 
ATOM     11  C   UNL     1     -16.046   5.711  21.095  0.00  0.00    +0.175 C 
ATOM     12  C   UNL     1     -15.774   4.410  23.033  0.00  0.00    +0.158 C 
ATOM     13  C   UNL     1     -14.560   5.439  21.307  0.00  0.00    +0.163 C 
ENDROOT
BRANCH  10   3
ATOM      3  O   UNL     1     -17.981   5.298  22.532  0.00  0.00    -0.387 OA
ATOM     30  H   UNL     1     -18.087   4.355  22.745  0.00  0.00    +0.210 HD
ENDBRANCH  10   3
BRANCH  11   4
ATOM      4  O   UNL     1     -16.568   4.684  20.252  0.00  0.00    -0.387 OA
ATOM     31  H   UNL     1     -17.102   4.093  20.811  0.00  0.00    +0.210 HD
ENDBRANCH  11   4
BRANCH  12  14
ATOM     14  C   UNL     1     -15.661   4.399  24.547  0.00  0.00    +0.130 C 
BRANCH  14  16
ATOM      5  O   UNL     1     -16.257   2.055  24.485  0.00  0.00    -0.276 OA
ATOM      8  N   UNL     1     -16.211   3.158  26.530  0.00  0.00    -0.314 N 
ATOM     16  C   UNL     1     -16.073   3.070  25.152  0.00  0.00    +0.216 C 
ATOM     33  H   UNL     1     -16.012   4.039  26.996  0.00  0.00    +0.149 HD
BRANCH   8  18
ATOM     18  C   UNL     1     -16.597   2.039  27.357  0.00  0.00    +0.119 C 
BRANCH  18  17
ATOM     17  C   UNL     1     -16.891   2.483  28.783  0.00  0.00    +0.103 C 
BRANCH  17   9
ATOM      6  O   UNL     1     -13.385   0.789  30.349  0.00  0.00    -0.377 OA
ATOM      9  N   UNL     1     -15.933   1.883  29.710  0.00  0.00    -0.297 NA
ATOM     20  C   UNL     1     -14.745   2.737  29.856  0.00  0.00    +0.112 C 
ATOM     21  C   UNL     1     -15.539   0.543  29.259  0.00  0.00    +0.112 C 
ATOM     22  C   UNL     1     -13.756   2.085  30.818  0.00  0.00    +0.175 C 
ATOM     23  C   UNL     1     -14.531  -0.057  30.237  0.00  0.00    +0.175 C 
ENDBRANCH  17   9
ENDBRANCH  18  17
ENDBRANCH   8  18
ENDBRANCH  14  16
ENDBRANCH  12  14
BRANCH  13  15
ATOM     15  C   UNL     1     -13.763   6.697  21.622  0.00  0.00    +0.115 C 
BRANCH  15   7
ATOM      7  N   UNL     1     -13.241   7.305  20.406  0.00  0.00    -0.309 NA
ATOM     32  H   UNL     1     -13.661   6.849  19.597  0.00  0.00    +0.122 HD
BRANCH   7  19
ATOM     19  C   UNL     1     -11.791   7.186  20.345  0.00  0.00    +0.116 C 
BRANCH  19  24
ATOM      1 CL   UNL     1     -10.463   8.002  15.372  0.00  0.00    -0.084 Cl
ATOM     24  C   UNL     1     -11.196   8.096  19.303  0.00  0.00    -0.032 A 
ATOM     25  C   UNL     1     -11.115   7.676  17.976  0.00  0.00    +0.025 A 
ATOM     26  C   UNL     1     -10.729   9.359  19.666  0.00  0.00    +0.005 A 
ATOM     27  C   UNL     1     -10.565   8.520  17.010  0.00  0.00    +0.041 A 
ATOM     28  C   UNL     1     -10.179  10.203  18.700  0.00  0.00    +0.002 A 
ATOM     29  C   UNL     1     -10.097   9.784  17.373  0.00  0.00    +0.020 A 
ENDBRANCH  19  24
ENDBRANCH   7  19
ENDBRANCH  15   7
ENDBRANCH  13  15
TORSDOF 11
ENDMDL
MODEL 5
REMARK VINA RESULT:      -5.5     34.537     37.737
REMARK  Name = 26744652
REMARK  11 active torsions:
REMARK  status: ('A' for Active; 'I' for Inactive)
REMARK    1  A    between atoms: O_3  and  C_10
REMARK    2  A    between atoms: O_4  and  C_11
REMARK    3  A    between atoms: N_7  and  C_15
REMARK    4  A    between atoms: N_7  and  C_19
REMARK    5  A    between atoms: N_8  and  C_18
REMARK    6  A    between atoms: N_9  and  C_17
REMARK    7  A    between atoms: C_12  and  C_14
REMARK    8  A    between atoms: C_13  and  C_15
REMARK    9  A    between atoms: C_14  and  C_16
REMARK   10  A    between atoms: C_17  and  C_18
REMARK   11  A    between atoms: C_19  and  C_24
REMARK                            x       y       z     vdW  Elec       q    Type
REMARK                         _______ _______ _______ _____ _____    ______ ____
ROOT
ATOM      2  O   UNL     1     -13.904   2.717  31.399  0.00  0.00    -0.366 OA
ATOM     10  C   UNL     1     -15.016   0.646  31.224  0.00  0.00    +0.175 C 
ATOM     11  C   UNL     1     -14.344   0.927  29.897  0.00  0.00    +0.175 C 
ATOM     12  C   UNL     1     -14.223   1.540  32.162  0.00  0.00    +0.158 C 
ATOM     13  C   UNL     1     -14.064   2.423  29.993  0.00  0.00    +0.163 C 
ENDROOT
BRANCH  10   3
ATOM      3  O   UNL     1     -14.952  -0.712  31.607  0.00  0.00    -0.387 OA
ATOM     30  H   UNL     1     -15.033  -0.745  32.576  0.00  0.00    +0.210 HD
ENDBRANCH  10   3
BRANCH  11   4
ATOM      4  O   UNL     1     -13.091   0.246  29.821  0.00  0.00    -0.387 OA
ATOM     31  H   UNL     1     -12.393   0.924  29.800  0.00  0.00    +0.210 HD
ENDBRANCH  11   4
BRANCH  12  14
ATOM     14  C   UNL     1     -14.991   1.932  33.412  0.00  0.00    +0.130 C 
BRANCH  14  16
ATOM      5  O   UNL     1     -14.259   4.007  34.418  0.00  0.00    -0.276 OA
ATOM      8  N   UNL     1     -15.978   4.051  32.855  0.00  0.00    -0.314 N 
ATOM     16  C   UNL     1     -15.012   3.433  33.636  0.00  0.00    +0.216 C 
ATOM     33  H   UNL     1     -16.539   3.491  32.218  0.00  0.00    +0.149 HD
BRANCH   8  18
ATOM     18  C   UNL     1     -16.215   5.476  32.873  0.00  0.00    +0.119 C 
BRANCH  18  17
ATOM     17  C   UNL     1     -15.495   6.169  31.726  0.00  0.00    +0.103 C 
BRANCH  17   9
ATOM      6  O   UNL     1     -13.513   8.862  34.262  0.00  0.00    -0.377 OA
ATOM      9  N   UNL     1     -14.776   7.345  32.212  0.00  0.00    -0.297 NA
ATOM     20  C   UNL     1     -13.460   6.967  32.748  0.00  0.00    +0.112 C 
ATOM     21  C   UNL     1     -15.557   8.046  33.239  0.00  0.00    +0.112 C 
ATOM     22  C   UNL     1     -12.735   8.208  33.260  0.00  0.00    +0.175 C 
ATOM     23  C   UNL     1     -14.781   9.263  33.739  0.00  0.00    +0.175 C 
ENDBRANCH  17   9
ENDBRANCH  18  17
ENDBRANCH   8  18
ENDBRANCH  14  16
ENDBRANCH  12  14
BRANCH  13  15
ATOM     15  C   UNL     1     -15.207   3.279  29.464  0.00  0.00    +0.115 C 
BRANCH  15   7
ATOM      7  N   UNL     1     -15.243   3.263  28.009  0.00  0.00    -0.309 NA
ATOM     32  H   UNL     1     -15.171   4.219  27.661  0.00  0.00    +0.122 HD
BRANCH   7  19
ATOM     19  C   UNL     1     -16.472   2.650  27.524  0.00  0.00    +0.116 C 
BRANCH  19  24
ATOM      1 CL   UNL     1     -14.802   4.717  23.042  0.00  0.00    -0.084 Cl
ATOM     24  C   UNL     1     -16.600   2.755  26.028  0.00  0.00    -0.032 A 
ATOM     25  C   UNL     1     -15.742   3.590  25.312  0.00  0.00    +0.025 A 
ATOM     26  C   UNL     1     -17.576   2.018  25.358  0.00  0.00    +0.005 A 
ATOM     27  C   UNL     1     -15.860   3.687  23.925  0.00  0.00    +0.041 A 
ATOM     28  C   UNL     1     -17.694   2.114  23.971  0.00  0.00    +0.002 A 
ATOM     29  C   UNL     1     -16.836   2.949  23.255  0.00  0.00    +0.020 A 
ENDBRANCH  19  24
ENDBRANCH   7  19
ENDBRANCH  15   7
ENDBRANCH  13  15
TORSDOF 11
ENDMDL
MODEL 6
REMARK VINA RESULT:      -5.5      2.372      6.941
REMARK  Name = 26744652
REMARK  11 active torsions:
REMARK  status: ('A' for Active; 'I' for Inactive)
REMARK    1  A    between atoms: O_3  and  C_10
REMARK    2  A    between atoms: O_4  and  C_11
REMARK    3  A    between atoms: N_7  and  C_15
REMARK    4  A    between atoms: N_7  and  C_19
REMARK    5  A    between atoms: N_8  and  C_18
REMARK    6  A    between atoms: N_9  and  C_17
REMARK    7  A    between atoms: C_12  and  C_14
REMARK    8  A    between atoms: C_13  and  C_15
REMARK    9  A    between atoms: C_14  and  C_16
REMARK   10  A    between atoms: C_17  and  C_18
REMARK   11  A    between atoms: C_19  and  C_24
REMARK                            x       y       z     vdW  Elec       q    Type
REMARK                         _______ _______ _______ _____ _____    ______ ____
ROOT
ATOM      2  O   UNL     1      14.350   5.926   0.122  0.00  0.00    -0.366 OA
ATOM     10  C   UNL     1      14.726   4.140   1.614  0.00  0.00    +0.175 C 
ATOM     11  C   UNL     1      15.229   3.720   0.250  0.00  0.00    +0.175 C 
ATOM     12  C   UNL     1      14.722   5.654   1.484  0.00  0.00    +0.158 C 
ATOM     13  C   UNL     1      14.546   4.730  -0.666  0.00  0.00    +0.163 C 
ENDROOT
BRANCH  10   3
ATOM      3  O   UNL     1      15.549   3.702   2.674  0.00  0.00    -0.387 OA
ATOM     30  H   UNL     1      15.422   4.318   3.416  0.00  0.00    +0.210 HD
ENDBRANCH  10   3
BRANCH  11   4
ATOM      4  O   UNL     1      16.640   3.922   0.158  0.00  0.00    -0.387 OA
ATOM     31  H   UNL     1      17.070   3.094   0.434  0.00  0.00    +0.210 HD
ENDBRANCH  11   4
BRANCH  12  14
ATOM     14  C   UNL     1      13.748   6.337   2.427  0.00  0.00    +0.130 C 
BRANCH  14  16
ATOM      5  O   UNL     1      15.611   7.203   3.704  0.00  0.00    -0.276 OA
ATOM      8  N   UNL     1      13.542   6.971   4.735  0.00  0.00    -0.314 N 
ATOM     16  C   UNL     1      14.426   6.884   3.669  0.00  0.00    +0.216 C 
ATOM     33  H   UNL     1      12.570   6.704   4.602  0.00  0.00    +0.149 HD
BRANCH   8  18
ATOM     18  C   UNL     1      13.925   7.458   6.040  0.00  0.00    +0.119 C 
BRANCH  18  17
ATOM     17  C   UNL     1      13.154   6.747   7.143  0.00  0.00    +0.103 C 
BRANCH  17   9
ATOM      6  O   UNL     1       9.049   7.417   7.708  0.00  0.00    -0.377 OA
ATOM      9  N   UNL     1      11.716   6.839   6.898  0.00  0.00    -0.297 NA
ATOM     20  C   UNL     1      11.246   8.223   7.065  0.00  0.00    +0.112 C 
ATOM     21  C   UNL     1      10.975   5.943   7.795  0.00  0.00    +0.112 C 
ATOM     22  C   UNL     1       9.742   8.291   6.817  0.00  0.00    +0.175 C 
ATOM     23  C   UNL     1       9.477   6.066   7.528  0.00  0.00    +0.175 C 
ENDBRANCH  17   9
ENDBRANCH  18  17
ENDBRANCH   8  18
ENDBRANCH  14  16
ENDBRANCH  12  14
BRANCH  13  15
ATOM     15  C   UNL     1      13.181   4.264  -1.154  0.00  0.00    +0.115 C 
BRANCH  15   7
ATOM      7  N   UNL     1      12.132   5.179  -0.724  0.00  0.00    -0.309 NA
ATOM     32  H   UNL     1      12.511   5.819  -0.027  0.00  0.00    +0.122 HD
BRANCH   7  19
ATOM     19  C   UNL     1      11.001   4.450  -0.167  0.00  0.00    +0.116 C 
BRANCH  19  24
ATOM      1 CL   UNL     1       8.969   8.022   3.037  0.00  0.00    -0.084 Cl
ATOM     24  C   UNL     1      10.687   4.890   1.238  0.00  0.00    -0.032 A 
ATOM     25  C   UNL     1      10.048   6.110   1.460  0.00  0.00    +0.025 A 
ATOM     26  C   UNL     1      11.035   4.078   2.317  0.00  0.00    +0.005 A 
ATOM     27  C   UNL     1       9.756   6.517   2.762  0.00  0.00    +0.041 A 
ATOM     28  C   UNL     1      10.743   4.485   3.619  0.00  0.00    +0.002 A 
ATOM     29  C   UNL     1      10.104   5.704   3.842  0.00  0.00    +0.020 A 
ENDBRANCH  19  24
ENDBRANCH   7  19
ENDBRANCH  15   7
ENDBRANCH  13  15
TORSDOF 11
ENDMDL
MODEL 7
REMARK VINA RESULT:      -5.5     27.272     30.235
REMARK  Name = 26744652
REMARK  11 active torsions:
REMARK  status: ('A' for Active; 'I' for Inactive)
REMARK    1  A    between atoms: O_3  and  C_10
REMARK    2  A    between atoms: O_4  and  C_11
REMARK    3  A    between atoms: N_7  and  C_15
REMARK    4  A    between atoms: N_7  and  C_19
REMARK    5  A    between atoms: N_8  and  C_18
REMARK    6  A    between atoms: N_9  and  C_17
REMARK    7  A    between atoms: C_12  and  C_14
REMARK    8  A    between atoms: C_13  and  C_15
REMARK    9  A    between atoms: C_14  and  C_16
REMARK   10  A    between atoms: C_17  and  C_18
REMARK   11  A    between atoms: C_19  and  C_24
REMARK                            x       y       z     vdW  Elec       q    Type
REMARK                         _______ _______ _______ _____ _____    ______ ____
ROOT
ATOM      2  O   UNL     1      -6.434 -11.596  17.452  0.00  0.00    -0.366 OA
ATOM     10  C   UNL     1      -4.125 -11.267  17.794  0.00  0.00    +0.175 C 
ATOM     11  C   UNL     1      -4.605 -12.280  18.811  0.00  0.00    +0.175 C 
ATOM     12  C   UNL     1      -5.210 -11.361  16.735  0.00  0.00    +0.158 C 
ATOM     13  C   UNL     1      -6.115 -12.068  18.781  0.00  0.00    +0.163 C 
ENDROOT
BRANCH  10   3
ATOM      3  O   UNL     1      -2.847 -11.563  17.270  0.00  0.00    -0.387 OA
ATOM     30  H   UNL     1      -2.831 -11.251  16.349  0.00  0.00    +0.210 HD
ENDBRANCH  10   3
BRANCH  11   4
ATOM      4  O   UNL     1      -4.336 -13.606  18.357  0.00  0.00    -0.387 OA
ATOM     31  H   UNL     1      -5.005 -14.191  18.754  0.00  0.00    +0.210 HD
ENDBRANCH  11   4
BRANCH  12  14
ATOM     14  C   UNL     1      -5.343 -10.103  15.895  0.00  0.00    +0.130 C 
BRANCH  14  16
ATOM      5  O   UNL     1      -7.142 -10.327  14.293  0.00  0.00    -0.276 OA
ATOM      8  N   UNL     1      -7.523  -9.166  16.270  0.00  0.00    -0.314 N 
ATOM     16  C   UNL     1      -6.753  -9.895  15.375  0.00  0.00    +0.216 C 
ATOM     33  H   UNL     1      -7.117  -8.872  17.154  0.00  0.00    +0.149 HD
BRANCH   8  18
ATOM     18  C   UNL     1      -8.905  -8.823  16.024  0.00  0.00    +0.119 C 
BRANCH  18  17
ATOM     17  C   UNL     1      -9.539  -8.180  17.248  0.00  0.00    +0.103 C 
BRANCH  17   9
ATOM      6  O   UNL     1     -12.819  -6.760  15.048  0.00  0.00    -0.377 OA
ATOM      9  N   UNL     1     -10.738  -7.435  16.868  0.00  0.00    -0.297 NA
ATOM     20  C   UNL     1     -11.861  -8.349  16.612  0.00  0.00    +0.112 C 
ATOM     21  C   UNL     1     -10.483  -6.605  15.684  0.00  0.00    +0.112 C 
ATOM     22  C   UNL     1     -13.095  -7.550  16.205  0.00  0.00    +0.175 C 
ATOM     23  C   UNL     1     -11.751  -5.846  15.300  0.00  0.00    +0.175 C 
ENDBRANCH  17   9
ENDBRANCH  18  17
ENDBRANCH   8  18
ENDBRANCH  14  16
ENDBRANCH  12  14
BRANCH  13  15
ATOM     15  C   UNL     1      -6.590 -11.015  19.775  0.00  0.00    +0.115 C 
BRANCH  15   7
ATOM      7  N   UNL     1      -8.004 -10.722  19.591  0.00  0.00    -0.309 NA
ATOM     32  H   UNL     1      -8.289 -10.011  20.264  0.00  0.00    +0.122 HD
BRANCH   7  19
ATOM     19  C   UNL     1      -8.812 -11.921  19.764  0.00  0.00    +0.116 C 
BRANCH  19  24
ATOM      1 CL   UNL     1     -13.506 -13.536  21.350  0.00  0.00    -0.084 Cl
ATOM     24  C   UNL     1     -10.242 -11.591  20.100  0.00  0.00    -0.032 A 
ATOM     25  C   UNL     1     -11.109 -12.599  20.520  0.00  0.00    +0.025 A 
ATOM     26  C   UNL     1     -10.698 -10.277  19.992  0.00  0.00    +0.005 A 
ATOM     27  C   UNL     1     -12.434 -12.293  20.833  0.00  0.00    +0.041 A 
ATOM     28  C   UNL     1     -12.023  -9.971  20.304  0.00  0.00    +0.002 A 
ATOM     29  C   UNL     1     -12.890 -10.979  20.724  0.00  0.00    +0.020 A 
ENDBRANCH  19  24
ENDBRANCH   7  19
ENDBRANCH  15   7
ENDBRANCH  13  15
TORSDOF 11
ENDMDL
MODEL 8
REMARK VINA RESULT:      -5.4     24.551     27.547
REMARK  Name = 26744652
REMARK  11 active torsions:
REMARK  status: ('A' for Active; 'I' for Inactive)
REMARK    1  A    between atoms: O_3  and  C_10
REMARK    2  A    between atoms: O_4  and  C_11
REMARK    3  A    between atoms: N_7  and  C_15
REMARK    4  A    between atoms: N_7  and  C_19
REMARK    5  A    between atoms: N_8  and  C_18
REMARK    6  A    between atoms: N_9  and  C_17
REMARK    7  A    between atoms: C_12  and  C_14
REMARK    8  A    between atoms: C_13  and  C_15
REMARK    9  A    between atoms: C_14  and  C_16
REMARK   10  A    between atoms: C_17  and  C_18
REMARK   11  A    between atoms: C_19  and  C_24
REMARK                            x       y       z     vdW  Elec       q    Type
REMARK                         _______ _______ _______ _____ _____    ______ ____
ROOT
ATOM      2  O   UNL     1      -5.175  -9.867  17.510  0.00  0.00    -0.366 OA
ATOM     10  C   UNL     1      -4.854 -12.196  17.687  0.00  0.00    +0.175 C 
ATOM     11  C   UNL     1      -3.814 -11.654  16.729  0.00  0.00    +0.175 C 
ATOM     12  C   UNL     1      -5.236 -10.945  18.460  0.00  0.00    +0.158 C 
ATOM     13  C   UNL     1      -4.392 -10.290  16.370  0.00  0.00    +0.163 C 
ENDROOT
BRANCH  10   3
ATOM      3  O   UNL     1      -4.360 -13.211  18.535  0.00  0.00    -0.387 OA
ATOM     30  H   UNL     1      -5.126 -13.640  18.952  0.00  0.00    +0.210 HD
ENDBRANCH  10   3
BRANCH  11   4
ATOM      4  O   UNL     1      -2.575 -11.445  17.408  0.00  0.00    -0.387 OA
ATOM     31  H   UNL     1      -2.677 -10.651  17.960  0.00  0.00    +0.210 HD
ENDBRANCH  11   4
BRANCH  12  14
ATOM     14  C   UNL     1      -6.625 -11.013  19.068  0.00  0.00    +0.130 C 
BRANCH  14  16
ATOM      5  O   UNL     1      -8.305 -11.625  17.438  0.00  0.00    -0.276 OA
ATOM      8  N   UNL     1      -7.961  -9.378  17.922  0.00  0.00    -0.314 N 
ATOM     16  C   UNL     1      -7.720 -10.737  18.054  0.00  0.00    +0.216 C 
ATOM     33  H   UNL     1      -7.440  -8.720  18.495  0.00  0.00    +0.149 HD
BRANCH   8  18
ATOM     18  C   UNL     1      -8.953  -8.836  17.021  0.00  0.00    +0.119 C 
BRANCH  18  17
ATOM     17  C   UNL     1     -10.297  -8.673  17.715  0.00  0.00    +0.103 C 
BRANCH  17   9
ATOM      6  O   UNL     1     -12.326  -6.503  14.750  0.00  0.00    -0.377 OA
ATOM      9  N   UNL     1     -11.093  -7.645  17.047  0.00  0.00    -0.297 NA
ATOM     20  C   UNL     1     -12.307  -8.228  16.458  0.00  0.00    +0.112 C 
ATOM     21  C   UNL     1     -10.305  -6.966  16.011  0.00  0.00    +0.112 C 
ATOM     22  C   UNL     1     -13.115  -7.139  15.757  0.00  0.00    +0.175 C 
ATOM     23  C   UNL     1     -11.160  -5.906  15.321  0.00  0.00    +0.175 C 
ENDBRANCH  17   9
ENDBRANCH  18  17
ENDBRANCH   8  18
ENDBRANCH  14  16
ENDBRANCH  12  14
BRANCH  13  15
ATOM     15  C   UNL     1      -5.317 -10.333  15.161  0.00  0.00    +0.115 C 
BRANCH  15   7
ATOM      7  N   UNL     1      -4.565 -10.559  13.935  0.00  0.00    -0.309 NA
ATOM     32  H   UNL     1      -4.005  -9.733  13.728  0.00  0.00    +0.122 HD
BRANCH   7  19
ATOM     19  C   UNL     1      -5.458 -10.846  12.821  0.00  0.00    +0.116 C 
BRANCH  19  24
ATOM      1 CL   UNL     1      -6.662  -8.754   8.202  0.00  0.00    -0.084 Cl
ATOM     24  C   UNL     1      -5.001 -10.181  11.550  0.00  0.00    -0.032 A 
ATOM     25  C   UNL     1      -5.934  -9.818  10.579  0.00  0.00    +0.025 A 
ATOM     26  C   UNL     1      -3.645  -9.926  11.345  0.00  0.00    +0.005 A 
ATOM     27  C   UNL     1      -5.511  -9.200   9.402  0.00  0.00    +0.041 A 
ATOM     28  C   UNL     1      -3.222  -9.308  10.167  0.00  0.00    +0.002 A 
ATOM     29  C   UNL     1      -4.155  -8.946   9.196  0.00  0.00    +0.020 A 
ENDBRANCH  19  24
ENDBRANCH   7  19
ENDBRANCH  15   7
ENDBRANCH  13  15
TORSDOF 11
ENDMDL
MODEL 9
REMARK VINA RESULT:      -5.4     23.638     26.623
REMARK  Name = 26744652
REMARK  11 active torsions:
REMARK  status: ('A' for Active; 'I' for Inactive)
REMARK    1  A    between atoms: O_3  and  C_10
REMARK    2  A    between atoms: O_4  and  C_11
REMARK    3  A    between atoms: N_7  and  C_15
REMARK    4  A    between atoms: N_7  and  C_19
REMARK    5  A    between atoms: N_8  and  C_18
REMARK    6  A    between atoms: N_9  and  C_17
REMARK    7  A    between atoms: C_12  and  C_14
REMARK    8  A    between atoms: C_13  and  C_15
REMARK    9  A    between atoms: C_14  and  C_16
REMARK   10  A    between atoms: C_17  and  C_18
REMARK   11  A    between atoms: C_19  and  C_24
REMARK                            x       y       z     vdW  Elec       q    Type
REMARK                         _______ _______ _______ _____ _____    ______ ____
ROOT
ATOM      2  O   UNL     1      -3.871 -10.637  14.337  0.00  0.00    -0.366 OA
ATOM     10  C   UNL     1      -2.089 -11.321  15.721  0.00  0.00    +0.175 C 
ATOM     11  C   UNL     1      -1.501 -10.593  14.531  0.00  0.00    +0.175 C 
ATOM     12  C   UNL     1      -3.516 -10.800  15.721  0.00  0.00    +0.158 C 
ATOM     13  C   UNL     1      -2.663 -10.607  13.544  0.00  0.00    +0.163 C 
ENDROOT
BRANCH  10   3
ATOM      3  O   UNL     1      -1.423 -11.040  16.934  0.00  0.00    -0.387 OA
ATOM     30  H   UNL     1      -1.930 -10.347  17.391  0.00  0.00    +0.210 HD
ENDBRANCH  10   3
BRANCH  11   4
ATOM      4  O   UNL     1      -1.224  -9.233  14.869  0.00  0.00    -0.387 OA
ATOM     31  H   UNL     1      -0.292  -9.186  15.142  0.00  0.00    +0.210 HD
ENDBRANCH  11   4
BRANCH  12  14
ATOM     14  C   UNL     1      -4.500 -11.740  16.395  0.00  0.00    +0.130 C 
BRANCH  14  16
ATOM      5  O   UNL     1      -5.073 -10.523  18.406  0.00  0.00    -0.276 OA
ATOM      8  N   UNL     1      -6.739 -10.998  16.856  0.00  0.00    -0.314 N 
ATOM     16  C   UNL     1      -5.440 -11.018  17.343  0.00  0.00    +0.216 C 
ATOM     33  H   UNL     1      -6.939 -11.416  15.952  0.00  0.00    +0.149 HD
BRANCH   8  18
ATOM     18  C   UNL     1      -7.836 -10.376  17.561  0.00  0.00    +0.119 C 
BRANCH  18  17
ATOM     17  C   UNL     1      -8.011  -8.925  17.138  0.00  0.00    +0.103 C 
BRANCH  17   9
ATOM      6  O   UNL     1     -12.154  -8.344  16.804  0.00  0.00    -0.377 OA
ATOM      9  N   UNL     1      -9.376  -8.478  17.408  0.00  0.00    -0.297 NA
ATOM     20  C   UNL     1     -10.267  -9.627  17.629  0.00  0.00    +0.112 C 
ATOM     21  C   UNL     1      -9.883  -7.652  16.305  0.00  0.00    +0.112 C 
ATOM     22  C   UNL     1     -11.687  -9.136  17.896  0.00  0.00    +0.175 C 
ATOM     23  C   UNL     1     -11.312  -7.208  16.604  0.00  0.00    +0.175 C 
ENDBRANCH  17   9
ENDBRANCH  18  17
ENDBRANCH   8  18
ENDBRANCH  14  16
ENDBRANCH  12  14
BRANCH  13  15
ATOM     15  C   UNL     1      -2.666 -11.837  12.644  0.00  0.00    +0.115 C 
BRANCH  15   7
ATOM      7  N   UNL     1      -2.762 -11.459  11.241  0.00  0.00    -0.309 NA
ATOM     32  H   UNL     1      -1.939 -11.799  10.745  0.00  0.00    +0.122 HD
BRANCH   7  19
ATOM     19  C   UNL     1      -2.867 -10.013  11.097  0.00  0.00    +0.116 C 
BRANCH  19  24
ATOM      1 CL   UNL     1      -5.499 -10.379   6.615  0.00  0.00    -0.084 Cl
ATOM     24  C   UNL     1      -4.059  -9.617  10.268  0.00  0.00    -0.032 A 
ATOM     25  C   UNL     1      -4.209 -10.122   8.977  0.00  0.00    +0.025 A 
ATOM     26  C   UNL     1      -5.014  -8.745  10.791  0.00  0.00    +0.005 A 
ATOM     27  C   UNL     1      -5.315  -9.756   8.208  0.00  0.00    +0.041 A 
ATOM     28  C   UNL     1      -6.120  -8.379  10.023  0.00  0.00    +0.002 A 
ATOM     29  C   UNL     1      -6.270  -8.884   8.732  0.00  0.00    +0.020 A 
ENDBRANCH  19  24
ENDBRANCH   7  19
ENDBRANCH  15   7
ENDBRANCH  13  15
TORSDOF 11
ENDMDL
MODEL 10
REMARK VINA RESULT:      -5.3     23.946     26.333
REMARK  Name = 26744652
REMARK  11 active torsions:
REMARK  status: ('A' for Active; 'I' for Inactive)
REMARK    1  A    between atoms: O_3  and  C_10
REMARK    2  A    between atoms: O_4  and  C_11
REMARK    3  A    between atoms: N_7  and  C_15
REMARK    4  A    between atoms: N_7  and  C_19
REMARK    5  A    between atoms: N_8  and  C_18
REMARK    6  A    between atoms: N_9  and  C_17
REMARK    7  A    between atoms: C_12  and  C_14
REMARK    8  A    between atoms: C_13  and  C_15
REMARK    9  A    between atoms: C_14  and  C_16
REMARK   10  A    between atoms: C_17  and  C_18
REMARK   11  A    between atoms: C_19  and  C_24
REMARK                            x       y       z     vdW  Elec       q    Type
REMARK                         _______ _______ _______ _____ _____    ______ ____
ROOT
ATOM      2  O   UNL     1      -3.945 -11.955  14.385  0.00  0.00    -0.366 OA
ATOM     10  C   UNL     1      -2.426 -10.850  15.809  0.00  0.00    +0.175 C 
ATOM     11  C   UNL     1      -3.714 -11.061  16.576  0.00  0.00    +0.175 C 
ATOM     12  C   UNL     1      -2.547 -11.899  14.717  0.00  0.00    +0.158 C 
ATOM     13  C   UNL     1      -4.707 -11.354  15.457  0.00  0.00    +0.163 C 
ENDROOT
BRANCH  10   3
ATOM      3  O   UNL     1      -1.269 -11.036  16.596  0.00  0.00    -0.387 OA
ATOM     30  H   UNL     1      -0.530 -10.602  16.134  0.00  0.00    +0.210 HD
ENDBRANCH  10   3
BRANCH  11   4
ATOM      4  O   UNL     1      -3.617 -12.224  17.397  0.00  0.00    -0.387 OA
ATOM     31  H   UNL     1      -3.138 -11.971  18.206  0.00  0.00    +0.210 HD
ENDBRANCH  11   4
BRANCH  12  14
ATOM     14  C   UNL     1      -1.738 -11.572  13.474  0.00  0.00    +0.130 C 
BRANCH  14  16
ATOM      5  O   UNL     1      -2.765 -12.932  11.757  0.00  0.00    -0.276 OA
ATOM      8  N   UNL     1      -2.893 -10.617  11.597  0.00  0.00    -0.314 N 
ATOM     16  C   UNL     1      -2.515 -11.811  12.193  0.00  0.00    +0.216 C 
ATOM     33  H   UNL     1      -2.659  -9.737  12.048  0.00  0.00    +0.149 HD
BRANCH   8  18
ATOM     18  C   UNL     1      -3.643 -10.555  10.363  0.00  0.00    +0.119 C 
BRANCH  18  17
ATOM     17  C   UNL     1      -3.554  -9.172   9.734  0.00  0.00    +0.103 C 
BRANCH  17   9
ATOM      6  O   UNL     1      -7.469  -9.422   8.242  0.00  0.00    -0.377 OA
ATOM      9  N   UNL     1      -4.790  -8.857   9.021  0.00  0.00    -0.297 NA
ATOM     20  C   UNL     1      -5.911  -8.711   9.961  0.00  0.00    +0.112 C 
ATOM     21  C   UNL     1      -5.098  -9.892   8.026  0.00  0.00    +0.112 C 
ATOM     22  C   UNL     1      -7.191  -8.395   9.194  0.00  0.00    +0.175 C 
ATOM     23  C   UNL     1      -6.398  -9.546   7.304  0.00  0.00    +0.175 C 
ENDBRANCH  17   9
ENDBRANCH  18  17
ENDBRANCH   8  18
ENDBRANCH  14  16
ENDBRANCH  12  14
BRANCH  13  15
ATOM     15  C   UNL     1      -5.374 -10.100  14.908  0.00  0.00    +0.115 C 
BRANCH  15   7
ATOM      7  N   UNL     1      -5.875  -9.259  15.986  0.00  0.00    -0.309 NA
ATOM     32  H   UNL     1      -5.251  -9.336  16.788  0.00  0.00    +0.122 HD
BRANCH   7  19
ATOM     19  C   UNL     1      -7.225  -9.650  16.367  0.00  0.00    +0.116 C 
BRANCH  19  24
ATOM      1 CL   UNL     1      -8.917 -14.023  18.641  0.00  0.00    -0.084 Cl
ATOM     24  C   UNL     1      -7.228 -10.561  17.566  0.00  0.00    -0.032 A 
ATOM     25  C   UNL     1      -7.983 -11.733  17.550  0.00  0.00    +0.025 A 
ATOM     26  C   UNL     1      -6.474 -10.231  18.693  0.00  0.00    +0.005 A 
ATOM     27  C   UNL     1      -7.984 -12.577  18.661  0.00  0.00    +0.041 A 
ATOM     28  C   UNL     1      -6.476 -11.076  19.804  0.00  0.00    +0.002 A 
ATOM     29  C   UNL     1      -7.230 -12.248  19.788  0.00  0.00    +0.020 A 
ENDBRANCH  19  24
ENDBRANCH   7  19
ENDBRANCH  15   7
ENDBRANCH  13  15
TORSDOF 11
ENDMDL
