MODEL 1
REMARK VINA RESULT:      -7.4      0.000      0.000
REMARK  Name = 44716859
REMARK  9 active torsions:
REMARK  status: ('A' for Active; 'I' for Inactive)
REMARK    1  A    between atoms: O_3  and  C_15
REMARK    2  A    between atoms: O_4  and  C_20
REMARK    3  A    between atoms: N_8  and  C_26
REMARK    4  A    between atoms: C_10  and  C_18
REMARK    5  A    between atoms: C_12  and  C_20
REMARK    6  A    between atoms: C_12  and  C_21
REMARK    7  A    between atoms: C_13  and  C_23
REMARK    8  A    between atoms: C_23  and  C_24
REMARK    9  A    between atoms: C_27  and  C_30
REMARK                            x       y       z     vdW  Elec       q    Type
REMARK                         _______ _______ _______ _____ _____    ______ ____
ROOT
ATOM      1  S   UNL     1     -15.311  -8.108  16.852  0.00  0.00    -0.057 S 
ATOM      6  O   UNL     1     -11.596  -6.368  14.599  0.00  0.00    -0.270 OA
ATOM      7  N   UNL     1     -12.738  -8.268  16.637  0.00  0.00    -0.229 NA
ATOM      9  N   UNL     1     -13.850  -6.665  15.222  0.00  0.00    -0.261 N 
ATOM     10  C   UNL     1     -12.773 -10.717  19.616  0.00  0.00    -0.019 C 
ATOM     11  C   UNL     1     -14.214 -11.279  19.238  0.00  0.00    +0.011 C 
ATOM     12  C   UNL     1     -14.864 -12.312  20.238  0.00  0.00    +0.021 C 
ATOM     13  C   UNL     1     -12.138 -10.066  18.302  0.00  0.00    +0.054 C 
ATOM     14  C   UNL     1     -11.865 -11.890  20.067  0.00  0.00    +0.010 C 
ATOM     15  C   UNL     1     -13.810 -13.387  20.622  0.00  0.00    +0.123 C 
ATOM     16  C   UNL     1     -15.175 -10.134  18.807  0.00  0.00    +0.049 C 
ATOM     17  C   UNL     1     -12.498 -12.790  21.120  0.00  0.00    +0.032 C 
ATOM     18  C   UNL     1     -12.817  -9.660  20.746  0.00  0.00    +0.012 C 
ATOM     19  C   UNL     1     -13.133  -9.177  17.603  0.00  0.00    +0.058 A 
ATOM     21  C   UNL     1     -16.032 -13.046  19.520  0.00  0.00    +0.016 C 
ATOM     22  C   UNL     1     -14.492  -9.236  17.831  0.00  0.00    +0.015 A 
ATOM     25  C   UNL     1     -13.802  -7.644  16.179  0.00  0.00    +0.165 A 
ATOM     27  C   UNL     1     -12.784  -6.082  14.492  0.00  0.00    +0.250 C 
ATOM     42  H   UNL     1     -14.797  -6.367  15.012  0.00  0.00    +0.157 HD
ENDROOT
BRANCH  27  30
ATOM      2  F   UNL     1     -11.616  -3.045  10.878  0.00  0.00    -0.205 F 
ATOM     30  C   UNL     1     -13.160  -5.049  13.492  0.00  0.00    +0.040 A 
ATOM     33  C   UNL     1     -12.193  -4.521  12.638  0.00  0.00    +0.051 A 
ATOM     34  C   UNL     1     -14.480  -4.608  13.409  0.00  0.00    +0.013 A 
ATOM     36  C   UNL     1     -12.546  -3.551  11.699  0.00  0.00    +0.124 A 
ATOM     37  C   UNL     1     -14.833  -3.637  12.471  0.00  0.00    +0.004 A 
ATOM     38  C   UNL     1     -13.866  -3.109  11.616  0.00  0.00    +0.038 A 
ENDBRANCH  27  30
BRANCH  15   3
ATOM      3  O   UNL     1     -14.325 -14.261  21.626  0.00  0.00    -0.391 OA
ATOM     39  H   UNL     1     -15.037 -13.789  22.091  0.00  0.00    +0.210 HD
ENDBRANCH  15   3
BRANCH  12  20
ATOM     20  C   UNL     1     -15.489 -11.676  21.500  0.00  0.00    +0.165 C 
BRANCH  20   4
ATOM      4  O   UNL     1     -16.631 -12.428  21.843  0.00  0.00    -0.394 OA
ATOM     40  H   UNL     1     -16.656 -13.201  21.253  0.00  0.00    +0.209 HD
ENDBRANCH  20   4
ENDBRANCH  12  20
BRANCH  13  23
ATOM     23  C   UNL     1     -10.803  -9.343  18.531  0.00  0.00    +0.106 C 
BRANCH  23  24
ATOM      5  O   UNL     1      -9.788 -11.075  17.199  0.00  0.00    -0.275 OA
ATOM      8  N   UNL     1      -8.442  -9.458  18.241  0.00  0.00    -0.285 N 
ATOM     24  C   UNL     1      -9.639 -10.081  17.900  0.00  0.00    +0.218 C 
ATOM     41  H   UNL     1      -8.486  -8.639  18.843  0.00  0.00    +0.155 HD
BRANCH   8  26
ATOM     26  C   UNL     1      -7.133  -9.835  17.855  0.00  0.00    +0.033 A 
ATOM     28  C   UNL     1      -6.312 -10.520  18.751  0.00  0.00    +0.023 A 
ATOM     29  C   UNL     1      -6.664  -9.522  16.580  0.00  0.00    +0.023 A 
ATOM     31  C   UNL     1      -5.023 -10.891  18.372  0.00  0.00    +0.002 A 
ATOM     32  C   UNL     1      -5.374  -9.893  16.200  0.00  0.00    +0.002 A 
ATOM     35  C   UNL     1      -4.553 -10.578  17.097  0.00  0.00    +0.000 A 
ENDBRANCH   8  26
ENDBRANCH  23  24
ENDBRANCH  13  23
TORSDOF 7
ENDMDL
MODEL 2
REMARK VINA RESULT:      -7.3     32.728     36.207
REMARK  Name = 44716859
REMARK  9 active torsions:
REMARK  status: ('A' for Active; 'I' for Inactive)
REMARK    1  A    between atoms: O_3  and  C_15
REMARK    2  A    between atoms: O_4  and  C_20
REMARK    3  A    between atoms: N_8  and  C_26
REMARK    4  A    between atoms: C_10  and  C_18
REMARK    5  A    between atoms: C_12  and  C_20
REMARK    6  A    between atoms: C_12  and  C_21
REMARK    7  A    between atoms: C_13  and  C_23
REMARK    8  A    between atoms: C_23  and  C_24
REMARK    9  A    between atoms: C_27  and  C_30
REMARK                            x       y       z     vdW  Elec       q    Type
REMARK                         _______ _______ _______ _____ _____    ______ ____
ROOT
ATOM      1  S   UNL     1      18.865  -5.244  -1.890  0.00  0.00    -0.057 S 
ATOM      6  O   UNL     1      16.148  -8.753  -3.380  0.00  0.00    -0.270 OA
ATOM      7  N   UNL     1      18.436  -7.786  -1.676  0.00  0.00    -0.229 NA
ATOM      9  N   UNL     1      16.993  -6.562  -3.169  0.00  0.00    -0.261 N 
ATOM     10  C   UNL     1      21.605  -8.003   0.510  0.00  0.00    -0.019 C 
ATOM     11  C   UNL     1      21.408  -6.531   1.082  0.00  0.00    +0.011 C 
ATOM     12  C   UNL     1      22.546  -5.967   2.016  0.00  0.00    +0.021 C 
ATOM     13  C   UNL     1      20.189  -8.522  -0.018  0.00  0.00    +0.054 C 
ATOM     14  C   UNL     1      22.073  -8.941   1.653  0.00  0.00    +0.010 C 
ATOM     15  C   UNL     1      22.926  -7.044   3.070  0.00  0.00    +0.123 C 
ATOM     16  C   UNL     1      20.966  -5.542  -0.037  0.00  0.00    +0.049 C 
ATOM     17  C   UNL     1      23.251  -8.400   2.451  0.00  0.00    +0.032 C 
ATOM     18  C   UNL     1      22.640  -8.069  -0.640  0.00  0.00    +0.012 C 
ATOM     19  C   UNL     1      19.508  -7.474  -0.859  0.00  0.00    +0.058 A 
ATOM     21  C   UNL     1      22.001  -4.734   2.792  0.00  0.00    +0.016 C 
ATOM     22  C   UNL     1      19.860  -6.140  -0.838  0.00  0.00    +0.015 A 
ATOM     25  C   UNL     1      18.022  -6.690  -2.274  0.00  0.00    +0.165 A 
ATOM     27  C   UNL     1      16.123  -7.562  -3.672  0.00  0.00    +0.250 C 
ATOM     42  H   UNL     1      16.843  -5.602  -3.461  0.00  0.00    +0.157 HD
ENDROOT
BRANCH  27  30
ATOM      2  F   UNL     1      13.168  -8.370  -7.449  0.00  0.00    -0.205 F 
ATOM     30  C   UNL     1      15.076  -7.104  -4.622  0.00  0.00    +0.040 A 
ATOM     33  C   UNL     1      14.605  -7.969  -5.609  0.00  0.00    +0.051 A 
ATOM     34  C   UNL     1      14.566  -5.810  -4.526  0.00  0.00    +0.013 A 
ATOM     36  C   UNL     1      13.621  -7.539  -6.501  0.00  0.00    +0.124 A 
ATOM     37  C   UNL     1      13.583  -5.380  -5.418  0.00  0.00    +0.004 A 
ATOM     38  C   UNL     1      13.111  -6.245  -6.406  0.00  0.00    +0.038 A 
ENDBRANCH  27  30
BRANCH  15   3
ATOM      3  O   UNL     1      24.043  -6.616   3.848  0.00  0.00    -0.391 OA
ATOM     39  H   UNL     1      24.469  -5.881   3.372  0.00  0.00    +0.210 HD
ENDBRANCH  15   3
BRANCH  12  20
ATOM     20  C   UNL     1      23.799  -5.462   1.266  0.00  0.00    +0.165 C 
BRANCH  20   4
ATOM      4  O   UNL     1      24.307  -4.351   1.971  0.00  0.00    -0.394 OA
ATOM     40  H   UNL     1      24.636  -4.677   2.825  0.00  0.00    +0.209 HD
ENDBRANCH  20   4
ENDBRANCH  12  20
BRANCH  13  23
ATOM     23  C   UNL     1      20.235  -9.877  -0.738  0.00  0.00    +0.106 C 
BRANCH  23  24
ATOM      5  O   UNL     1      20.135 -11.945   0.492  0.00  0.00    -0.275 OA
ATOM      8  N   UNL     1      18.187 -10.673   0.180  0.00  0.00    -0.285 N 
ATOM     24  C   UNL     1      19.541 -10.968   0.052  0.00  0.00    +0.218 C 
ATOM     41  H   UNL     1      17.842  -9.819  -0.252  0.00  0.00    +0.155 HD
BRANCH   8  26
ATOM     26  C   UNL     1      17.197 -11.435   0.845  0.00  0.00    +0.033 A 
ATOM     28  C   UNL     1      16.843 -11.125   2.159  0.00  0.00    +0.023 A 
ATOM     29  C   UNL     1      16.573 -12.496   0.188  0.00  0.00    +0.023 A 
ATOM     31  C   UNL     1      15.868 -11.875   2.814  0.00  0.00    +0.002 A 
ATOM     32  C   UNL     1      15.598 -13.246   0.843  0.00  0.00    +0.002 A 
ATOM     35  C   UNL     1      15.245 -12.936   2.157  0.00  0.00    +0.000 A 
ENDBRANCH   8  26
ENDBRANCH  23  24
ENDBRANCH  13  23
TORSDOF 7
ENDMDL
MODEL 3
REMARK VINA RESULT:      -7.3     30.994     35.765
REMARK  Name = 44716859
REMARK  9 active torsions:
REMARK  status: ('A' for Active; 'I' for Inactive)
REMARK    1  A    between atoms: O_3  and  C_15
REMARK    2  A    between atoms: O_4  and  C_20
REMARK    3  A    between atoms: N_8  and  C_26
REMARK    4  A    between atoms: C_10  and  C_18
REMARK    5  A    between atoms: C_12  and  C_20
REMARK    6  A    between atoms: C_12  and  C_21
REMARK    7  A    between atoms: C_13  and  C_23
REMARK    8  A    between atoms: C_23  and  C_24
REMARK    9  A    between atoms: C_27  and  C_30
REMARK                            x       y       z     vdW  Elec       q    Type
REMARK                         _______ _______ _______ _____ _____    ______ ____
ROOT
ATOM      1  S   UNL     1      15.309   8.193   6.222  0.00  0.00    -0.057 S 
ATOM      6  O   UNL     1      12.293   6.705   2.966  0.00  0.00    -0.270 OA
ATOM      7  N   UNL     1      15.085   7.538   3.730  0.00  0.00    -0.229 NA
ATOM      9  N   UNL     1      13.088   7.403   5.073  0.00  0.00    -0.261 N 
ATOM     10  C   UNL     1      18.733   8.685   3.236  0.00  0.00    -0.019 C 
ATOM     11  C   UNL     1      19.143   8.288   4.723  0.00  0.00    +0.011 C 
ATOM     12  C   UNL     1      20.605   8.656   5.185  0.00  0.00    +0.021 C 
ATOM     13  C   UNL     1      17.426   7.853   2.845  0.00  0.00    +0.054 C 
ATOM     14  C   UNL     1      19.875   8.287   2.264  0.00  0.00    +0.010 C 
ATOM     15  C   UNL     1      21.614   8.233   4.081  0.00  0.00    +0.123 C 
ATOM     16  C   UNL     1      18.040   8.696   5.743  0.00  0.00    +0.049 C 
ATOM     17  C   UNL     1      21.252   8.767   2.700  0.00  0.00    +0.032 C 
ATOM     18  C   UNL     1      18.450  10.198   3.074  0.00  0.00    +0.012 C 
ATOM     19  C   UNL     1      16.401   7.906   3.947  0.00  0.00    +0.058 A 
ATOM     21  C   UNL     1      20.951   7.842   6.465  0.00  0.00    +0.016 C 
ATOM     22  C   UNL     1      16.701   8.269   5.244  0.00  0.00    +0.015 A 
ATOM     25  C   UNL     1      14.417   7.658   4.857  0.00  0.00    +0.165 A 
ATOM     27  C   UNL     1      12.109   6.951   4.154  0.00  0.00    +0.250 C 
ATOM     42  H   UNL     1      12.816   7.534   6.042  0.00  0.00    +0.157 HD
ENDROOT
BRANCH  27  30
ATOM      2  F   UNL     1       9.125   5.168   7.555  0.00  0.00    -0.205 F 
ATOM     30  C   UNL     1      10.743   6.740   4.701  0.00  0.00    +0.040 A 
ATOM     33  C   UNL     1      10.572   6.039   5.894  0.00  0.00    +0.051 A 
ATOM     34  C   UNL     1       9.634   7.242   4.021  0.00  0.00    +0.013 A 
ATOM     36  C   UNL     1       9.290   5.840   6.409  0.00  0.00    +0.124 A 
ATOM     37  C   UNL     1       8.353   7.043   4.535  0.00  0.00    +0.004 A 
ATOM     38  C   UNL     1       8.181   6.342   5.728  0.00  0.00    +0.038 A 
ENDBRANCH  27  30
BRANCH  15   3
ATOM      3  O   UNL     1      22.932   8.669   4.411  0.00  0.00    -0.391 OA
ATOM     39  H   UNL     1      23.371   8.932   3.583  0.00  0.00    +0.210 HD
ENDBRANCH  15   3
BRANCH  12  20
ATOM     20  C   UNL     1      20.800  10.139   5.572  0.00  0.00    +0.165 C 
BRANCH  20   4
ATOM      4  O   UNL     1      21.650  10.183   6.697  0.00  0.00    -0.394 OA
ATOM     40  H   UNL     1      22.550   9.984   6.387  0.00  0.00    +0.209 HD
ENDBRANCH  20   4
ENDBRANCH  12  20
BRANCH  13  23
ATOM     23  C   UNL     1      16.813   8.230   1.489  0.00  0.00    +0.106 C 
BRANCH  23  24
ATOM      5  O   UNL     1      17.217   6.513  -0.151  0.00  0.00    -0.275 OA
ATOM      8  N   UNL     1      15.168   6.582   0.993  0.00  0.00    -0.285 N 
ATOM     24  C   UNL     1      16.451   7.010   0.667  0.00  0.00    +0.218 C 
ATOM     41  H   UNL     1      14.653   7.110   1.694  0.00  0.00    +0.155 HD
BRANCH   8  26
ATOM     26  C   UNL     1      14.462   5.480   0.452  0.00  0.00    +0.033 A 
ATOM     28  C   UNL     1      14.205   4.360   1.244  0.00  0.00    +0.023 A 
ATOM     29  C   UNL     1      14.022   5.513  -0.871  0.00  0.00    +0.023 A 
ATOM     31  C   UNL     1      13.511   3.274   0.712  0.00  0.00    +0.002 A 
ATOM     32  C   UNL     1      13.327   4.428  -1.403  0.00  0.00    +0.002 A 
ATOM     35  C   UNL     1      13.071   3.308  -0.611  0.00  0.00    +0.000 A 
ENDBRANCH   8  26
ENDBRANCH  23  24
ENDBRANCH  13  23
TORSDOF 7
ENDMDL
MODEL 4
REMARK VINA RESULT:      -7.2     27.865     31.869
REMARK  Name = 44716859
REMARK  9 active torsions:
REMARK  status: ('A' for Active; 'I' for Inactive)
REMARK    1  A    between atoms: O_3  and  C_15
REMARK    2  A    between atoms: O_4  and  C_20
REMARK    3  A    between atoms: N_8  and  C_26
REMARK    4  A    between atoms: C_10  and  C_18
REMARK    5  A    between atoms: C_12  and  C_20
REMARK    6  A    between atoms: C_12  and  C_21
REMARK    7  A    between atoms: C_13  and  C_23
REMARK    8  A    between atoms: C_23  and  C_24
REMARK    9  A    between atoms: C_27  and  C_30
REMARK                            x       y       z     vdW  Elec       q    Type
REMARK                         _______ _______ _______ _____ _____    ______ ____
ROOT
ATOM      1  S   UNL     1       9.797   8.301  -0.068  0.00  0.00    -0.057 S 
ATOM      6  O   UNL     1       7.659   8.339   4.096  0.00  0.00    -0.270 OA
ATOM      7  N   UNL     1       9.849   7.292   2.313  0.00  0.00    -0.229 NA
ATOM      9  N   UNL     1       8.105   8.888   1.847  0.00  0.00    -0.261 N 
ATOM     10  C   UNL     1      12.673   4.955   1.118  0.00  0.00    -0.019 C 
ATOM     11  C   UNL     1      13.224   6.024   0.074  0.00  0.00    +0.011 C 
ATOM     12  C   UNL     1      14.400   5.563  -0.871  0.00  0.00    +0.021 C 
ATOM     13  C   UNL     1      11.834   5.737   2.230  0.00  0.00    +0.054 C 
ATOM     14  C   UNL     1      13.869   4.252   1.814  0.00  0.00    +0.010 C 
ATOM     15  C   UNL     1      15.484   4.840  -0.023  0.00  0.00    +0.123 C 
ATOM     16  C   UNL     1      12.060   6.736  -0.675  0.00  0.00    +0.049 C 
ATOM     17  C   UNL     1      14.920   3.723   0.848  0.00  0.00    +0.032 C 
ATOM     18  C   UNL     1      11.779   3.876   0.460  0.00  0.00    +0.012 C 
ATOM     19  C   UNL     1      10.890   6.727   1.597  0.00  0.00    +0.058 A 
ATOM     21  C   UNL     1      15.066   6.819  -1.500  0.00  0.00    +0.016 C 
ATOM     22  C   UNL     1      11.020   7.175   0.299  0.00  0.00    +0.015 A 
ATOM     25  C   UNL     1       9.201   8.130   1.533  0.00  0.00    +0.165 A 
ATOM     27  C   UNL     1       7.398   8.964   3.073  0.00  0.00    +0.250 C 
ATOM     42  H   UNL     1       7.810   9.489   1.083  0.00  0.00    +0.157 HD
ENDROOT
BRANCH  27  30
ATOM      2  F   UNL     1       4.545  12.081   5.481  0.00  0.00    -0.205 F 
ATOM     30  C   UNL     1       6.252   9.910   3.113  0.00  0.00    +0.040 A 
ATOM     33  C   UNL     1       5.930  10.564   4.301  0.00  0.00    +0.051 A 
ATOM     34  C   UNL     1       5.499  10.142   1.963  0.00  0.00    +0.013 A 
ATOM     36  C   UNL     1       4.854  11.452   4.340  0.00  0.00    +0.124 A 
ATOM     37  C   UNL     1       4.423  11.029   2.000  0.00  0.00    +0.004 A 
ATOM     38  C   UNL     1       4.101  11.684   3.189  0.00  0.00    +0.038 A 
ENDBRANCH  27  30
BRANCH  15   3
ATOM      3  O   UNL     1      16.500   4.295  -0.866  0.00  0.00    -0.391 OA
ATOM     39  H   UNL     1      16.647   4.923  -1.594  0.00  0.00    +0.210 HD
ENDBRANCH  15   3
BRANCH  12  20
ATOM     20  C   UNL     1      13.957   4.687  -2.064  0.00  0.00    +0.165 C 
BRANCH  20   4
ATOM      4  O   UNL     1      14.846   4.930  -3.131  0.00  0.00    -0.394 OA
ATOM     40  H   UNL     1      14.776   4.178  -3.743  0.00  0.00    +0.209 HD
ENDBRANCH  20   4
ENDBRANCH  12  20
BRANCH  13  23
ATOM     23  C   UNL     1      11.108   4.832   3.235  0.00  0.00    +0.106 C 
BRANCH  23  24
ATOM      5  O   UNL     1      11.816   6.348   4.967  0.00  0.00    -0.275 OA
ATOM      8  N   UNL     1      10.107   4.796   5.395  0.00  0.00    -0.285 N 
ATOM     24  C   UNL     1      11.075   5.434   4.625  0.00  0.00    +0.218 C 
ATOM     41  H   UNL     1       9.575   4.044   4.964  0.00  0.00    +0.155 HD
BRANCH   8  26
ATOM     26  C   UNL     1       9.763   5.062   6.742  0.00  0.00    +0.033 A 
ATOM     28  C   UNL     1       9.296   6.325   7.107  0.00  0.00    +0.023 A 
ATOM     29  C   UNL     1       9.891   4.061   7.706  0.00  0.00    +0.023 A 
ATOM     31  C   UNL     1       8.957   6.587   8.433  0.00  0.00    +0.002 A 
ATOM     32  C   UNL     1       9.551   4.323   9.033  0.00  0.00    +0.002 A 
ATOM     35  C   UNL     1       9.085   5.586   9.397  0.00  0.00    +0.000 A 
ENDBRANCH   8  26
ENDBRANCH  23  24
ENDBRANCH  13  23
TORSDOF 7
ENDMDL
MODEL 5
REMARK VINA RESULT:      -7.2      3.947      8.968
REMARK  Name = 44716859
REMARK  9 active torsions:
REMARK  status: ('A' for Active; 'I' for Inactive)
REMARK    1  A    between atoms: O_3  and  C_15
REMARK    2  A    between atoms: O_4  and  C_20
REMARK    3  A    between atoms: N_8  and  C_26
REMARK    4  A    between atoms: C_10  and  C_18
REMARK    5  A    between atoms: C_12  and  C_20
REMARK    6  A    between atoms: C_12  and  C_21
REMARK    7  A    between atoms: C_13  and  C_23
REMARK    8  A    between atoms: C_23  and  C_24
REMARK    9  A    between atoms: C_27  and  C_30
REMARK                            x       y       z     vdW  Elec       q    Type
REMARK                         _______ _______ _______ _____ _____    ______ ____
ROOT
ATOM      1  S   UNL     1     -10.083 -12.710  20.412  0.00  0.00    -0.057 S 
ATOM      6  O   UNL     1     -13.420  -9.514  19.656  0.00  0.00    -0.270 OA
ATOM      7  N   UNL     1     -10.705 -10.638  18.993  0.00  0.00    -0.229 NA
ATOM      9  N   UNL     1     -12.331 -11.373  20.614  0.00  0.00    -0.261 N 
ATOM     10  C   UNL     1      -7.144 -10.745  17.516  0.00  0.00    -0.019 C 
ATOM     11  C   UNL     1      -7.049 -12.328  17.655  0.00  0.00    +0.011 C 
ATOM     12  C   UNL     1      -5.669 -12.998  17.288  0.00  0.00    +0.021 C 
ATOM     13  C   UNL     1      -8.691 -10.343  17.503  0.00  0.00    +0.054 C 
ATOM     14  C   UNL     1      -6.515 -10.308  16.168  0.00  0.00    +0.010 C 
ATOM     15  C   UNL     1      -5.160 -12.416  15.939  0.00  0.00    +0.123 C 
ATOM     16  C   UNL     1      -7.642 -12.816  19.010  0.00  0.00    +0.049 C 
ATOM     17  C   UNL     1      -5.131 -10.892  15.915  0.00  0.00    +0.032 C 
ATOM     18  C   UNL     1      -6.426  -9.995  18.665  0.00  0.00    +0.012 C 
ATOM     19  C   UNL     1      -9.443 -11.048  18.601  0.00  0.00    +0.058 A 
ATOM     21  C   UNL     1      -5.885 -14.523  17.081  0.00  0.00    +0.016 C 
ATOM     22  C   UNL     1      -8.962 -12.166  19.251  0.00  0.00    +0.015 A 
ATOM     25  C   UNL     1     -11.136 -11.436  19.946  0.00  0.00    +0.165 A 
ATOM     27  C   UNL     1     -13.392 -10.448  20.451  0.00  0.00    +0.250 C 
ATOM     42  H   UNL     1     -12.447 -12.128  21.282  0.00  0.00    +0.157 HD
ENDROOT
BRANCH  27  30
ATOM      2  F   UNL     1     -15.755 -12.936  23.897  0.00  0.00    -0.205 F 
ATOM     30  C   UNL     1     -14.584 -10.658  21.314  0.00  0.00    +0.040 A 
ATOM     33  C   UNL     1     -14.611 -11.719  22.218  0.00  0.00    +0.051 A 
ATOM     34  C   UNL     1     -15.673  -9.793  21.220  0.00  0.00    +0.013 A 
ATOM     36  C   UNL     1     -15.730 -11.917  23.029  0.00  0.00    +0.124 A 
ATOM     37  C   UNL     1     -16.792  -9.990  22.030  0.00  0.00    +0.004 A 
ATOM     38  C   UNL     1     -16.820 -11.052  22.934  0.00  0.00    +0.038 A 
ENDBRANCH  27  30
BRANCH  15   3
ATOM      3  O   UNL     1      -3.852 -12.904  15.642  0.00  0.00    -0.391 OA
ATOM     39  H   UNL     1      -3.358 -12.951  16.479  0.00  0.00    +0.210 HD
ENDBRANCH  15   3
BRANCH  12  20
ATOM     20  C   UNL     1      -4.587 -12.878  18.384  0.00  0.00    +0.165 C 
BRANCH  20   4
ATOM      4  O   UNL     1      -3.996 -14.148  18.549  0.00  0.00    -0.394 OA
ATOM     40  H   UNL     1      -4.500 -14.774  18.002  0.00  0.00    +0.209 HD
ENDBRANCH  20   4
ENDBRANCH  12  20
BRANCH  13  23
ATOM     23  C   UNL     1      -8.957  -8.831  17.522  0.00  0.00    +0.106 C 
BRANCH  23  24
ATOM      5  O   UNL     1      -9.485  -8.708  15.175  0.00  0.00    -0.275 OA
ATOM      8  N   UNL     1     -10.817  -7.569  16.738  0.00  0.00    -0.285 N 
ATOM     24  C   UNL     1      -9.764  -8.378  16.322  0.00  0.00    +0.218 C 
ATOM     41  H   UNL     1     -10.910  -7.381  17.733  0.00  0.00    +0.155 HD
BRANCH   8  26
ATOM     26  C   UNL     1     -11.799  -6.947  15.929  0.00  0.00    +0.033 A 
ATOM     28  C   UNL     1     -11.438  -5.911  15.066  0.00  0.00    +0.023 A 
ATOM     29  C   UNL     1     -13.127  -7.370  15.993  0.00  0.00    +0.023 A 
ATOM     31  C   UNL     1     -12.404  -5.299  14.270  0.00  0.00    +0.002 A 
ATOM     32  C   UNL     1     -14.093  -6.758  15.195  0.00  0.00    +0.002 A 
ATOM     35  C   UNL     1     -13.732  -5.722  14.334  0.00  0.00    +0.000 A 
ENDBRANCH   8  26
ENDBRANCH  23  24
ENDBRANCH  13  23
TORSDOF 7
ENDMDL
MODEL 6
REMARK VINA RESULT:      -7.1      2.873      7.998
REMARK  Name = 44716859
REMARK  9 active torsions:
REMARK  status: ('A' for Active; 'I' for Inactive)
REMARK    1  A    between atoms: O_3  and  C_15
REMARK    2  A    between atoms: O_4  and  C_20
REMARK    3  A    between atoms: N_8  and  C_26
REMARK    4  A    between atoms: C_10  and  C_18
REMARK    5  A    between atoms: C_12  and  C_20
REMARK    6  A    between atoms: C_12  and  C_21
REMARK    7  A    between atoms: C_13  and  C_23
REMARK    8  A    between atoms: C_23  and  C_24
REMARK    9  A    between atoms: C_27  and  C_30
REMARK                            x       y       z     vdW  Elec       q    Type
REMARK                         _______ _______ _______ _____ _____    ______ ____
ROOT
ATOM      1  S   UNL     1     -10.951 -10.829  19.689  0.00  0.00    -0.057 S 
ATOM      6  O   UNL     1      -7.773  -9.175  16.676  0.00  0.00    -0.270 OA
ATOM      7  N   UNL     1     -10.623  -9.276  17.646  0.00  0.00    -0.229 NA
ATOM      9  N   UNL     1      -8.664 -10.407  18.478  0.00  0.00    -0.261 N 
ATOM     10  C   UNL     1     -14.450  -8.813  17.548  0.00  0.00    -0.019 C 
ATOM     11  C   UNL     1     -14.590  -8.986  19.125  0.00  0.00    +0.011 C 
ATOM     12  C   UNL     1     -16.052  -9.009  19.715  0.00  0.00    +0.021 C 
ATOM     13  C   UNL     1     -12.944  -8.380  17.231  0.00  0.00    +0.054 C 
ATOM     14  C   UNL     1     -15.394  -7.679  17.069  0.00  0.00    +0.010 C 
ATOM     15  C   UNL     1     -16.873  -7.842  19.099  0.00  0.00    +0.123 C 
ATOM     16  C   UNL     1     -13.682 -10.136  19.652  0.00  0.00    +0.049 C 
ATOM     17  C   UNL     1     -16.824  -7.813  17.575  0.00  0.00    +0.032 C 
ATOM     18  C   UNL     1     -14.791 -10.105  16.768  0.00  0.00    +0.012 C 
ATOM     19  C   UNL     1     -11.964  -9.242  17.984  0.00  0.00    +0.058 A 
ATOM     21  C   UNL     1     -15.983  -8.765  21.249  0.00  0.00    +0.016 C 
ATOM     22  C   UNL     1     -12.312 -10.007  19.078  0.00  0.00    +0.015 A 
ATOM     25  C   UNL     1      -9.995 -10.086  18.472  0.00  0.00    +0.165 A 
ATOM     27  C   UNL     1      -7.636  -9.956  17.612  0.00  0.00    +0.250 C 
ATOM     42  H   UNL     1      -8.413 -11.026  19.243  0.00  0.00    +0.157 HD
ENDROOT
BRANCH  27  30
ATOM      2  F   UNL     1      -2.976 -10.535  16.349  0.00  0.00    -0.205 F 
ATOM     30  C   UNL     1      -6.270 -10.469  17.892  0.00  0.00    +0.040 A 
ATOM     33  C   UNL     1      -5.244 -10.257  16.971  0.00  0.00    +0.051 A 
ATOM     34  C   UNL     1      -6.013 -11.161  19.075  0.00  0.00    +0.013 A 
ATOM     36  C   UNL     1      -3.961 -10.739  17.234  0.00  0.00    +0.124 A 
ATOM     37  C   UNL     1      -4.731 -11.642  19.338  0.00  0.00    +0.004 A 
ATOM     38  C   UNL     1      -3.705 -11.431  18.416  0.00  0.00    +0.038 A 
ENDBRANCH  27  30
BRANCH  15   3
ATOM      3  O   UNL     1     -18.237  -7.913  19.512  0.00  0.00    -0.391 OA
ATOM     39  H   UNL     1     -18.725  -7.216  19.039  0.00  0.00    +0.210 HD
ENDBRANCH  15   3
BRANCH  12  20
ATOM     20  C   UNL     1     -16.792 -10.355  19.543  0.00  0.00    +0.165 C 
BRANCH  20   4
ATOM      4  O   UNL     1     -17.615 -10.543  20.673  0.00  0.00    -0.394 OA
ATOM     40  H   UNL     1     -18.531 -10.605  20.355  0.00  0.00    +0.209 HD
ENDBRANCH  20   4
ENDBRANCH  12  20
BRANCH  13  23
ATOM     23  C   UNL     1     -12.601  -8.313  15.737  0.00  0.00    +0.106 C 
BRANCH  23  24
ATOM      5  O   UNL     1     -11.747  -6.062  15.798  0.00  0.00    -0.275 OA
ATOM      8  N   UNL     1     -13.259  -6.696  14.117  0.00  0.00    -0.285 N 
ATOM     24  C   UNL     1     -12.466  -6.887  15.245  0.00  0.00    +0.218 C 
ATOM     41  H   UNL     1     -13.808  -7.485  13.782  0.00  0.00    +0.155 HD
BRANCH   8  26
ATOM     26  C   UNL     1     -13.411  -5.510  13.360  0.00  0.00    +0.033 A 
ATOM     28  C   UNL     1     -14.641  -4.851  13.336  0.00  0.00    +0.023 A 
ATOM     29  C   UNL     1     -12.332  -4.998  12.639  0.00  0.00    +0.023 A 
ATOM     31  C   UNL     1     -14.792  -3.683  12.590  0.00  0.00    +0.002 A 
ATOM     32  C   UNL     1     -12.483  -3.829  11.894  0.00  0.00    +0.002 A 
ATOM     35  C   UNL     1     -13.713  -3.171  11.869  0.00  0.00    +0.000 A 
ENDBRANCH   8  26
ENDBRANCH  23  24
ENDBRANCH  13  23
TORSDOF 7
ENDMDL
MODEL 7
REMARK VINA RESULT:      -6.9      6.624      8.931
REMARK  Name = 44716859
REMARK  9 active torsions:
REMARK  status: ('A' for Active; 'I' for Inactive)
REMARK    1  A    between atoms: O_3  and  C_15
REMARK    2  A    between atoms: O_4  and  C_20
REMARK    3  A    between atoms: N_8  and  C_26
REMARK    4  A    between atoms: C_10  and  C_18
REMARK    5  A    between atoms: C_12  and  C_20
REMARK    6  A    between atoms: C_12  and  C_21
REMARK    7  A    between atoms: C_13  and  C_23
REMARK    8  A    between atoms: C_23  and  C_24
REMARK    9  A    between atoms: C_27  and  C_30
REMARK                            x       y       z     vdW  Elec       q    Type
REMARK                         _______ _______ _______ _____ _____    ______ ____
ROOT
ATOM      1  S   UNL     1      -7.893 -10.268  12.749  0.00  0.00    -0.057 S 
ATOM      6  O   UNL     1      -4.255 -10.814   9.854  0.00  0.00    -0.270 OA
ATOM      7  N   UNL     1      -5.377 -10.862  12.649  0.00  0.00    -0.229 NA
ATOM      9  N   UNL     1      -6.460 -10.361  10.555  0.00  0.00    -0.261 N 
ATOM     10  C   UNL     1      -5.365 -10.891  16.505  0.00  0.00    -0.019 C 
ATOM     11  C   UNL     1      -6.881 -11.372  16.585  0.00  0.00    +0.011 C 
ATOM     12  C   UNL     1      -7.529 -11.461  18.020  0.00  0.00    +0.021 C 
ATOM     13  C   UNL     1      -4.796 -11.290  15.066  0.00  0.00    +0.054 C 
ATOM     14  C   UNL     1      -4.532 -11.634  17.582  0.00  0.00    +0.010 C 
ATOM     15  C   UNL     1      -6.549 -12.189  18.981  0.00  0.00    +0.123 C 
ATOM     16  C   UNL     1      -7.767 -10.632  15.541  0.00  0.00    +0.049 C 
ATOM     17  C   UNL     1      -5.146 -11.590  18.975  0.00  0.00    +0.032 C 
ATOM     18  C   UNL     1      -5.205  -9.367  16.719  0.00  0.00    +0.012 C 
ATOM     19  C   UNL     1      -5.764 -10.910  13.976  0.00  0.00    +0.058 A 
ATOM     21  C   UNL     1      -8.822 -12.322  17.939  0.00  0.00    +0.016 C 
ATOM     22  C   UNL     1      -7.096 -10.636  14.209  0.00  0.00    +0.015 A 
ATOM     25  C   UNL     1      -6.415 -10.527  11.914  0.00  0.00    +0.165 A 
ATOM     27  C   UNL     1      -5.416 -10.505   9.607  0.00  0.00    +0.250 C 
ATOM     42  H   UNL     1      -7.391 -10.138  10.217  0.00  0.00    +0.157 HD
ENDROOT
BRANCH  27  30
ATOM      2  F   UNL     1      -4.841 -11.448   4.871  0.00  0.00    -0.205 F 
ATOM     30  C   UNL     1      -5.785 -10.281   8.185  0.00  0.00    +0.040 A 
ATOM     33  C   UNL     1      -5.127 -10.983   7.176  0.00  0.00    +0.051 A 
ATOM     34  C   UNL     1      -6.789  -9.370   7.860  0.00  0.00    +0.013 A 
ATOM     36  C   UNL     1      -5.474 -10.773   5.840  0.00  0.00    +0.124 A 
ATOM     37  C   UNL     1      -7.136  -9.160   6.526  0.00  0.00    +0.004 A 
ATOM     38  C   UNL     1      -6.477  -9.861   5.516  0.00  0.00    +0.038 A 
ENDBRANCH  27  30
BRANCH  15   3
ATOM      3  O   UNL     1      -7.049 -12.171  20.318  0.00  0.00    -0.391 OA
ATOM     39  H   UNL     1      -6.785 -11.325  20.720  0.00  0.00    +0.210 HD
ENDBRANCH  15   3
BRANCH  12  20
ATOM     20  C   UNL     1      -7.973 -10.103  18.608  0.00  0.00    +0.165 C 
BRANCH  20   4
ATOM      4  O   UNL     1      -9.054 -10.343  19.481  0.00  0.00    -0.394 OA
ATOM     40  H   UNL     1      -9.002  -9.682  20.193  0.00  0.00    +0.209 HD
ENDBRANCH  20   4
ENDBRANCH  12  20
BRANCH  13  23
ATOM     23  C   UNL     1      -3.384 -10.765  14.771  0.00  0.00    +0.106 C 
BRANCH  23  24
ATOM      5  O   UNL     1      -1.233 -11.848  14.736  0.00  0.00    -0.275 OA
ATOM      8  N   UNL     1      -3.087 -12.893  13.744  0.00  0.00    -0.285 N 
ATOM     24  C   UNL     1      -2.419 -11.882  14.429  0.00  0.00    +0.218 C 
ATOM     41  H   UNL     1      -4.079 -12.766  13.557  0.00  0.00    +0.155 HD
BRANCH   8  26
ATOM     26  C   UNL     1      -2.546 -14.104  13.250  0.00  0.00    +0.033 A 
ATOM     28  C   UNL     1      -1.827 -14.945  14.100  0.00  0.00    +0.023 A 
ATOM     29  C   UNL     1      -2.731 -14.458  11.913  0.00  0.00    +0.023 A 
ATOM     31  C   UNL     1      -1.294 -16.137  13.614  0.00  0.00    +0.002 A 
ATOM     32  C   UNL     1      -2.199 -15.651  11.427  0.00  0.00    +0.002 A 
ATOM     35  C   UNL     1      -1.479 -16.492  12.278  0.00  0.00    +0.000 A 
ENDBRANCH   8  26
ENDBRANCH  23  24
ENDBRANCH  13  23
TORSDOF 7
ENDMDL
MODEL 8
REMARK VINA RESULT:      -6.8     31.719     35.900
REMARK  Name = 44716859
REMARK  9 active torsions:
REMARK  status: ('A' for Active; 'I' for Inactive)
REMARK    1  A    between atoms: O_3  and  C_15
REMARK    2  A    between atoms: O_4  and  C_20
REMARK    3  A    between atoms: N_8  and  C_26
REMARK    4  A    between atoms: C_10  and  C_18
REMARK    5  A    between atoms: C_12  and  C_20
REMARK    6  A    between atoms: C_12  and  C_21
REMARK    7  A    between atoms: C_13  and  C_23
REMARK    8  A    between atoms: C_23  and  C_24
REMARK    9  A    between atoms: C_27  and  C_30
REMARK                            x       y       z     vdW  Elec       q    Type
REMARK                         _______ _______ _______ _____ _____    ______ ____
ROOT
ATOM      1  S   UNL     1      20.100  -7.240  -0.593  0.00  0.00    -0.057 S 
ATOM      6  O   UNL     1      17.111 -10.565  -1.977  0.00  0.00    -0.270 OA
ATOM      7  N   UNL     1      19.260  -9.633  -0.083  0.00  0.00    -0.229 NA
ATOM      9  N   UNL     1      18.245  -8.499  -1.952  0.00  0.00    -0.261 N 
ATOM     10  C   UNL     1      22.022  -9.892   2.594  0.00  0.00    -0.019 C 
ATOM     11  C   UNL     1      21.975  -8.331   2.907  0.00  0.00    +0.011 C 
ATOM     12  C   UNL     1      23.045  -7.771   3.921  0.00  0.00    +0.021 C 
ATOM     13  C   UNL     1      20.631 -10.303   1.925  0.00  0.00    +0.054 C 
ATOM     14  C   UNL     1      22.176 -10.678   3.923  0.00  0.00    +0.010 C 
ATOM     15  C   UNL     1      23.104  -8.698   5.168  0.00  0.00    +0.123 C 
ATOM     16  C   UNL     1      21.852  -7.494   1.600  0.00  0.00    +0.049 C 
ATOM     17  C   UNL     1      23.301 -10.168   4.814  0.00  0.00    +0.032 C 
ATOM     18  C   UNL     1      23.185 -10.282   1.650  0.00  0.00    +0.012 C 
ATOM     19  C   UNL     1      20.242  -9.330   0.842  0.00  0.00    +0.058 A 
ATOM     21  C   UNL     1      22.593  -6.366   4.411  0.00  0.00    +0.016 C 
ATOM     22  C   UNL     1      20.789  -8.069   0.726  0.00  0.00    +0.015 A 
ATOM     25  C   UNL     1      19.107  -8.608  -0.894  0.00  0.00    +0.165 A 
ATOM     27  C   UNL     1      17.311  -9.447  -2.439  0.00  0.00    +0.250 C 
ATOM     42  H   UNL     1      18.287  -7.589  -2.402  0.00  0.00    +0.157 HD
ENDROOT
BRANCH  27  30
ATOM      2  F   UNL     1      13.535  -7.020  -4.312  0.00  0.00    -0.205 F 
ATOM     30  C   UNL     1      16.489  -9.022  -3.602  0.00  0.00    +0.040 A 
ATOM     33  C   UNL     1      15.376  -8.205  -3.408  0.00  0.00    +0.051 A 
ATOM     34  C   UNL     1      16.831  -9.440  -4.887  0.00  0.00    +0.013 A 
ATOM     36  C   UNL     1      14.604  -7.805  -4.500  0.00  0.00    +0.124 A 
ATOM     37  C   UNL     1      16.060  -9.041  -5.979  0.00  0.00    +0.004 A 
ATOM     38  C   UNL     1      14.946  -8.224  -5.785  0.00  0.00    +0.038 A 
ENDBRANCH  27  30
BRANCH  15   3
ATOM      3  O   UNL     1      24.155  -8.294   6.046  0.00  0.00    -0.391 OA
ATOM     39  H   UNL     1      24.277  -9.000   6.704  0.00  0.00    +0.210 HD
ENDBRANCH  15   3
BRANCH  12  20
ATOM     20  C   UNL     1      24.453  -7.566   3.319  0.00  0.00    +0.165 C 
BRANCH  20   4
ATOM      4  O   UNL     1      24.992  -6.385   3.871  0.00  0.00    -0.394 OA
ATOM     40  H   UNL     1      24.431  -6.137   4.625  0.00  0.00    +0.209 HD
ENDBRANCH  20   4
ENDBRANCH  12  20
BRANCH  13  23
ATOM     23  C   UNL     1      20.567 -11.753   1.427  0.00  0.00    +0.106 C 
BRANCH  23  24
ATOM      5  O   UNL     1      19.842 -13.631   2.750  0.00  0.00    -0.275 OA
ATOM      8  N   UNL     1      18.309 -11.955   2.154  0.00  0.00    -0.285 N 
ATOM     24  C   UNL     1      19.553 -12.577   2.194  0.00  0.00    +0.218 C 
ATOM     41  H   UNL     1      18.230 -11.081   1.640  0.00  0.00    +0.155 HD
BRANCH   8  26
ATOM     26  C   UNL     1      17.103 -12.401   2.746  0.00  0.00    +0.033 A 
ATOM     28  C   UNL     1      16.701 -11.889   3.981  0.00  0.00    +0.023 A 
ATOM     29  C   UNL     1      16.314 -13.349   2.095  0.00  0.00    +0.023 A 
ATOM     31  C   UNL     1      15.513 -12.328   4.564  0.00  0.00    +0.002 A 
ATOM     32  C   UNL     1      15.125 -13.787   2.678  0.00  0.00    +0.002 A 
ATOM     35  C   UNL     1      14.725 -13.276   3.913  0.00  0.00    +0.000 A 
ENDBRANCH   8  26
ENDBRANCH  23  24
ENDBRANCH  13  23
TORSDOF 7
ENDMDL
MODEL 9
REMARK VINA RESULT:      -6.8     28.280     31.719
REMARK  Name = 44716859
REMARK  9 active torsions:
REMARK  status: ('A' for Active; 'I' for Inactive)
REMARK    1  A    between atoms: O_3  and  C_15
REMARK    2  A    between atoms: O_4  and  C_20
REMARK    3  A    between atoms: N_8  and  C_26
REMARK    4  A    between atoms: C_10  and  C_18
REMARK    5  A    between atoms: C_12  and  C_20
REMARK    6  A    between atoms: C_12  and  C_21
REMARK    7  A    between atoms: C_13  and  C_23
REMARK    8  A    between atoms: C_23  and  C_24
REMARK    9  A    between atoms: C_27  and  C_30
REMARK                            x       y       z     vdW  Elec       q    Type
REMARK                         _______ _______ _______ _____ _____    ______ ____
ROOT
ATOM      1  S   UNL     1       9.655   8.019  -0.293  0.00  0.00    -0.057 S 
ATOM      6  O   UNL     1      12.456   6.171   2.970  0.00  0.00    -0.270 OA
ATOM      7  N   UNL     1       9.980   7.730   2.257  0.00  0.00    -0.229 NA
ATOM      9  N   UNL     1      11.654   6.745   0.829  0.00  0.00    -0.261 N 
ATOM     10  C   UNL     1       6.950  10.058   2.773  0.00  0.00    -0.019 C 
ATOM     11  C   UNL     1       6.255   9.584   1.421  0.00  0.00    +0.011 C 
ATOM     12  C   UNL     1       4.929  10.327   0.999  0.00  0.00    +0.021 C 
ATOM     13  C   UNL     1       7.978   8.921   3.225  0.00  0.00    +0.054 C 
ATOM     14  C   UNL     1       5.873  10.209   3.880  0.00  0.00    +0.010 C 
ATOM     15  C   UNL     1       3.986  10.433   2.230  0.00  0.00    +0.123 C 
ATOM     16  C   UNL     1       7.292   9.447   0.269  0.00  0.00    +0.049 C 
ATOM     17  C   UNL     1       4.665  11.034   3.456  0.00  0.00    +0.032 C 
ATOM     18  C   UNL     1       7.700  11.404   2.625  0.00  0.00    +0.012 C 
ATOM     19  C   UNL     1       8.824   8.465   2.064  0.00  0.00    +0.058 A 
ATOM     21  C   UNL     1       4.193   9.477  -0.076  0.00  0.00    +0.016 C 
ATOM     22  C   UNL     1       8.488   8.695   0.746  0.00  0.00    +0.015 A 
ATOM     25  C   UNL     1      10.506   7.447   1.084  0.00  0.00    +0.165 A 
ATOM     27  C   UNL     1      12.556   6.153   1.748  0.00  0.00    +0.250 C 
ATOM     42  H   UNL     1      11.829   6.626  -0.163  0.00  0.00    +0.157 HD
ENDROOT
BRANCH  27  30
ATOM      2  F   UNL     1      16.048   5.745  -1.612  0.00  0.00    -0.205 F 
ATOM     30  C   UNL     1      13.711   5.427   1.158  0.00  0.00    +0.040 A 
ATOM     33  C   UNL     1      14.350   5.936   0.028  0.00  0.00    +0.051 A 
ATOM     34  C   UNL     1      14.157   4.239   1.736  0.00  0.00    +0.013 A 
ATOM     36  C   UNL     1      15.435   5.255  -0.526  0.00  0.00    +0.124 A 
ATOM     37  C   UNL     1      15.241   3.558   1.182  0.00  0.00    +0.004 A 
ATOM     38  C   UNL     1      15.880   4.066   0.051  0.00  0.00    +0.038 A 
ENDBRANCH  27  30
BRANCH  15   3
ATOM      3  O   UNL     1       2.834  11.215   1.915  0.00  0.00    -0.391 OA
ATOM     39  H   UNL     1       3.085  11.840   1.213  0.00  0.00    +0.210 HD
ENDBRANCH  15   3
BRANCH  12  20
ATOM     20  C   UNL     1       5.150  11.712   0.351  0.00  0.00    +0.165 C 
BRANCH  20   4
ATOM      4  O   UNL     1       4.074  11.955  -0.528  0.00  0.00    -0.394 OA
ATOM     40  H   UNL     1       3.323  12.257   0.011  0.00  0.00    +0.209 HD
ENDBRANCH  20   4
ENDBRANCH  12  20
BRANCH  13  23
ATOM     23  C   UNL     1       8.842   9.289   4.439  0.00  0.00    +0.106 C 
BRANCH  23  24
ATOM      5  O   UNL     1       7.678   8.560   6.417  0.00  0.00    -0.275 OA
ATOM      8  N   UNL     1       9.523   7.342   5.629  0.00  0.00    -0.285 N 
ATOM     24  C   UNL     1       8.589   8.373   5.619  0.00  0.00    +0.218 C 
ATOM     41  H   UNL     1      10.228   7.331   4.894  0.00  0.00    +0.155 HD
BRANCH   8  26
ATOM     26  C   UNL     1       9.630   6.282   6.561  0.00  0.00    +0.033 A 
ATOM     28  C   UNL     1       9.644   6.556   7.929  0.00  0.00    +0.023 A 
ATOM     29  C   UNL     1       9.719   4.964   6.114  0.00  0.00    +0.023 A 
ATOM     31  C   UNL     1       9.749   5.513   8.848  0.00  0.00    +0.002 A 
ATOM     32  C   UNL     1       9.824   3.921   7.033  0.00  0.00    +0.002 A 
ATOM     35  C   UNL     1       9.838   4.195   8.401  0.00  0.00    +0.000 A 
ENDBRANCH   8  26
ENDBRANCH  23  24
ENDBRANCH  13  23
TORSDOF 7
ENDMDL
MODEL 10
REMARK VINA RESULT:      -6.8      5.028      8.441
REMARK  Name = 44716859
REMARK  9 active torsions:
REMARK  status: ('A' for Active; 'I' for Inactive)
REMARK    1  A    between atoms: O_3  and  C_15
REMARK    2  A    between atoms: O_4  and  C_20
REMARK    3  A    between atoms: N_8  and  C_26
REMARK    4  A    between atoms: C_10  and  C_18
REMARK    5  A    between atoms: C_12  and  C_20
REMARK    6  A    between atoms: C_12  and  C_21
REMARK    7  A    between atoms: C_13  and  C_23
REMARK    8  A    between atoms: C_23  and  C_24
REMARK    9  A    between atoms: C_27  and  C_30
REMARK                            x       y       z     vdW  Elec       q    Type
REMARK                         _______ _______ _______ _____ _____    ______ ____
ROOT
ATOM      1  S   UNL     1      -5.996 -10.821  12.346  0.00  0.00    -0.057 S 
ATOM      6  O   UNL     1      -9.101  -8.307   9.908  0.00  0.00    -0.270 OA
ATOM      7  N   UNL     1      -8.174  -9.439  12.540  0.00  0.00    -0.229 NA
ATOM      9  N   UNL     1      -7.203  -9.635  10.343  0.00  0.00    -0.261 N 
ATOM     10  C   UNL     1      -8.380 -10.527  16.234  0.00  0.00    -0.019 C 
ATOM     11  C   UNL     1      -6.796 -10.610  16.380  0.00  0.00    +0.011 C 
ATOM     12  C   UNL     1      -6.231 -11.157  17.747  0.00  0.00    +0.021 C 
ATOM     13  C   UNL     1      -8.712  -9.565  15.001  0.00  0.00    +0.054 C 
ATOM     14  C   UNL     1      -8.982  -9.899  17.518  0.00  0.00    +0.010 C 
ATOM     15  C   UNL     1      -6.972 -10.461  18.923  0.00  0.00    +0.123 C 
ATOM     16  C   UNL     1      -6.145 -11.262  15.125  0.00  0.00    +0.049 C 
ATOM     17  C   UNL     1      -8.490 -10.542  18.808  0.00  0.00    +0.032 C 
ATOM     18  C   UNL     1      -9.037 -11.909  16.002  0.00  0.00    +0.012 C 
ATOM     19  C   UNL     1      -7.863  -9.907  13.804  0.00  0.00    +0.058 A 
ATOM     21  C   UNL     1      -4.727 -10.779  17.860  0.00  0.00    +0.016 C 
ATOM     22  C   UNL     1      -6.706 -10.654  13.885  0.00  0.00    +0.015 A 
ATOM     25  C   UNL     1      -7.263  -9.865  11.692  0.00  0.00    +0.165 A 
ATOM     27  C   UNL     1      -8.092  -8.891   9.528  0.00  0.00    +0.250 C 
ATOM     42  H   UNL     1      -6.378 -10.041   9.912  0.00  0.00    +0.157 HD
ENDROOT
BRANCH  27  30
ATOM      2  F   UNL     1      -8.703  -6.922   5.123  0.00  0.00    -0.205 F 
ATOM     30  C   UNL     1      -7.741  -8.800   8.086  0.00  0.00    +0.040 A 
ATOM     33  C   UNL     1      -8.400  -7.887   7.265  0.00  0.00    +0.051 A 
ATOM     34  C   UNL     1      -6.752  -9.629   7.556  0.00  0.00    +0.013 A 
ATOM     36  C   UNL     1      -8.070  -7.801   5.911  0.00  0.00    +0.124 A 
ATOM     37  C   UNL     1      -6.423  -9.544   6.203  0.00  0.00    +0.004 A 
ATOM     38  C   UNL     1      -7.082  -8.630   5.381  0.00  0.00    +0.038 A 
ENDBRANCH  27  30
BRANCH  15   3
ATOM      3  O   UNL     1      -6.576 -11.028  20.172  0.00  0.00    -0.391 OA
ATOM     39  H   UNL     1      -7.321 -10.928  20.790  0.00  0.00    +0.210 HD
ENDBRANCH  15   3
BRANCH  12  20
ATOM     20  C   UNL     1      -6.284 -12.694  17.893  0.00  0.00    +0.165 C 
BRANCH  20   4
ATOM      4  O   UNL     1      -5.127 -13.102  18.589  0.00  0.00    -0.394 OA
ATOM     40  H   UNL     1      -5.164 -14.070  18.668  0.00  0.00    +0.209 HD
ENDBRANCH  20   4
ENDBRANCH  12  20
BRANCH  13  23
ATOM     23  C   UNL     1     -10.200  -9.493  14.633  0.00  0.00    +0.106 C 
BRANCH  23  24
ATOM      5  O   UNL     1     -10.335  -7.301  15.621  0.00  0.00    -0.275 OA
ATOM      8  N   UNL     1     -11.784  -7.887  13.870  0.00  0.00    -0.285 N 
ATOM     24  C   UNL     1     -10.760  -8.094  14.789  0.00  0.00    +0.218 C 
ATOM     41  H   UNL     1     -12.026  -8.654  13.246  0.00  0.00    +0.155 HD
BRANCH   8  26
ATOM     26  C   UNL     1     -12.561  -6.717  13.691  0.00  0.00    +0.033 A 
ATOM     28  C   UNL     1     -11.957  -5.541  13.243  0.00  0.00    +0.023 A 
ATOM     29  C   UNL     1     -13.929  -6.739  13.963  0.00  0.00    +0.023 A 
ATOM     31  C   UNL     1     -12.722  -4.389  13.067  0.00  0.00    +0.002 A 
ATOM     32  C   UNL     1     -14.693  -5.586  13.786  0.00  0.00    +0.002 A 
ATOM     35  C   UNL     1     -14.090  -4.410  13.339  0.00  0.00    +0.000 A 
ENDBRANCH   8  26
ENDBRANCH  23  24
ENDBRANCH  13  23
TORSDOF 7
ENDMDL
