MODEL 1
REMARK VINA RESULT:      -7.4      0.000      0.000
REMARK  Name = 26761953
REMARK  6 active torsions:
REMARK  status: ('A' for Active; 'I' for Inactive)
REMARK    1  A    between atoms: O_5  and  C_25
REMARK    2  A    between atoms: N_6  and  C_16
REMARK    3  A    between atoms: C_11  and  C_17
REMARK    4  A    between atoms: C_16  and  C_18
REMARK    5  A    between atoms: C_21  and  C_24
REMARK    6  A    between atoms: C_22  and  C_25
REMARK                            x       y       z     vdW  Elec       q    Type
REMARK                         _______ _______ _______ _____ _____    ______ ____
ROOT
ATOM      6  N   UNL     1      -3.209 -12.781  12.034  0.00  0.00    -0.278 NA
ATOM      7  N   UNL     1      -4.886 -10.080  10.094  0.00  0.00    -0.347 N 
ATOM      8  N   UNL     1      -2.932  -9.014  10.301  0.00  0.00    -0.240 NA
ATOM     11  C   UNL     1      -2.236 -11.890  12.738  0.00  0.00    +0.152 C 
ATOM     12  C   UNL     1      -1.791 -10.687  11.833  0.00  0.00    +0.086 C 
ATOM     13  C   UNL     1      -4.451 -12.123  11.575  0.00  0.00    +0.140 C 
ATOM     14  C   UNL     1      -4.111 -10.848  10.908  0.00  0.00    +0.053 A 
ATOM     15  C   UNL     1      -2.921 -10.172  11.024  0.00  0.00    +0.065 A 
ATOM     19  C   UNL     1      -4.131  -8.986   9.752  0.00  0.00    +0.197 A 
ATOM     31  H   UNL     1      -5.834 -10.272   9.799  0.00  0.00    +0.167 HD
ENDROOT
BRANCH  11  17
ATOM      3  O   UNL     1      -1.656 -10.959  14.937  0.00  0.00    -0.336 OA
ATOM      9  N   UNL     1      -3.816 -11.514  14.727  0.00  0.00    -0.190 NA
ATOM     10  N   UNL     1      -2.259 -10.646  16.161  0.00  0.00    -0.056 NA
ATOM     17  C   UNL     1      -2.641 -11.464  14.150  0.00  0.00    +0.245 A 
ATOM     21  C   UNL     1      -3.531 -11.002  15.959  0.00  0.00    +0.202 A 
BRANCH  21  24
ATOM      1 CL   UNL     1      -8.110  -9.088  17.332  0.00  0.00    -0.081 Cl
ATOM      2  F   UNL     1      -7.444 -10.452  19.878  0.00  0.00    -0.204 F 
ATOM     24  C   UNL     1      -4.542 -10.858  16.966  0.00  0.00    +0.024 A 
ATOM     26  C   UNL     1      -5.700 -10.128  16.694  0.00  0.00    +0.034 A 
ATOM     27  C   UNL     1      -4.367 -11.446  18.219  0.00  0.00    +0.014 A 
ATOM     28  C   UNL     1      -6.682  -9.989  17.674  0.00  0.00    +0.077 A 
ATOM     29  C   UNL     1      -5.351 -11.305  19.199  0.00  0.00    +0.040 A 
ATOM     30  C   UNL     1      -6.508 -10.577  18.926  0.00  0.00    +0.142 A 
ENDBRANCH  21  24
ENDBRANCH  11  17
BRANCH   6  16
ATOM     16  C   UNL     1      -3.493 -14.027  12.738  0.00  0.00    +0.160 C 
BRANCH  16  18
ATOM      4  O   UNL     1      -1.992 -15.577  11.613  0.00  0.00    -0.461 OA
ATOM     18  C   UNL     1      -2.294 -14.936  12.773  0.00  0.00    +0.119 A 
ATOM     20  C   UNL     1      -1.397 -15.275  13.760  0.00  0.00    +0.046 A 
ATOM     22  C   UNL     1      -0.892 -16.335  11.862  0.00  0.00    +0.131 A 
ATOM     23  C   UNL     1      -0.487 -16.184  13.168  0.00  0.00    +0.047 A 
BRANCH  22  25
ATOM     25  C   UNL     1      -0.378 -17.126  10.736  0.00  0.00    +0.230 C 
BRANCH  25   5
ATOM      5  O   UNL     1       0.586 -16.369   9.999  0.00  0.00    -0.387 OA
ATOM     32  H   UNL     1       1.431 -16.445  10.475  0.00  0.00    +0.210 HD
ENDBRANCH  25   5
ENDBRANCH  22  25
ENDBRANCH  16  18
ENDBRANCH   6  16
TORSDOF 6
ENDMDL
MODEL 2
REMARK VINA RESULT:      -7.3     21.806     24.664
REMARK  Name = 26761953
REMARK  6 active torsions:
REMARK  status: ('A' for Active; 'I' for Inactive)
REMARK    1  A    between atoms: O_5  and  C_25
REMARK    2  A    between atoms: N_6  and  C_16
REMARK    3  A    between atoms: C_11  and  C_17
REMARK    4  A    between atoms: C_16  and  C_18
REMARK    5  A    between atoms: C_21  and  C_24
REMARK    6  A    between atoms: C_22  and  C_25
REMARK                            x       y       z     vdW  Elec       q    Type
REMARK                         _______ _______ _______ _____ _____    ______ ____
ROOT
ATOM      6  N   UNL     1     -11.762   8.047  19.743  0.00  0.00    -0.278 NA
ATOM      7  N   UNL     1     -12.935   5.244  21.895  0.00  0.00    -0.347 N 
ATOM      8  N   UNL     1     -14.980   5.962  21.344  0.00  0.00    -0.240 NA
ATOM     11  C   UNL     1     -12.975   8.903  19.921  0.00  0.00    +0.152 C 
ATOM     12  C   UNL     1     -14.278   8.039  20.063  0.00  0.00    +0.086 C 
ATOM     13  C   UNL     1     -11.504   7.082  20.832  0.00  0.00    +0.140 C 
ATOM     14  C   UNL     1     -12.764   6.389  21.179  0.00  0.00    +0.053 A 
ATOM     15  C   UNL     1     -14.029   6.813  20.857  0.00  0.00    +0.065 A 
ATOM     19  C   UNL     1     -14.289   5.027  21.967  0.00  0.00    +0.197 A 
ATOM     31  H   UNL     1     -12.212   4.665  22.301  0.00  0.00    +0.167 HD
ENDROOT
BRANCH  11  17
ATOM      3  O   UNL     1     -12.955  11.278  20.551  0.00  0.00    -0.336 OA
ATOM      9  N   UNL     1     -12.670   9.878  22.277  0.00  0.00    -0.190 NA
ATOM     10  N   UNL     1     -12.816  12.085  21.688  0.00  0.00    -0.056 NA
ATOM     17  C   UNL     1     -12.856   9.995  20.985  0.00  0.00    +0.245 A 
ATOM     21  C   UNL     1     -12.652  11.186  22.664  0.00  0.00    +0.202 A 
BRANCH  21  24
ATOM      1 CL   UNL     1     -10.706  10.062  27.297  0.00  0.00    -0.081 Cl
ATOM      2  F   UNL     1     -11.953  12.662  27.984  0.00  0.00    -0.204 F 
ATOM     24  C   UNL     1     -12.470  11.563  24.036  0.00  0.00    +0.024 A 
ATOM     26  C   UNL     1     -11.761  10.728  24.900  0.00  0.00    +0.034 A 
ATOM     27  C   UNL     1     -13.002  12.763  24.506  0.00  0.00    +0.014 A 
ATOM     28  C   UNL     1     -11.584  11.095  26.234  0.00  0.00    +0.077 A 
ATOM     29  C   UNL     1     -12.825  13.129  25.841  0.00  0.00    +0.040 A 
ATOM     30  C   UNL     1     -12.115  12.296  26.705  0.00  0.00    +0.142 A 
ENDBRANCH  21  24
ENDBRANCH  11  17
BRANCH   6  16
ATOM     16  C   UNL     1     -10.556   8.790  19.390  0.00  0.00    +0.160 C 
BRANCH  16  18
ATOM      4  O   UNL     1     -10.620   8.248  17.018  0.00  0.00    -0.461 OA
ATOM     18  C   UNL     1     -10.574   9.235  17.953  0.00  0.00    +0.119 A 
ATOM     20  C   UNL     1     -10.552  10.471  17.349  0.00  0.00    +0.046 A 
ATOM     22  C   UNL     1     -10.628   8.861  15.806  0.00  0.00    +0.131 A 
ATOM     23  C   UNL     1     -10.587  10.228  15.955  0.00  0.00    +0.047 A 
BRANCH  22  25
ATOM     25  C   UNL     1     -10.678   7.979  14.632  0.00  0.00    +0.230 C 
BRANCH  25   5
ATOM      5  O   UNL     1     -10.076   6.718  14.935  0.00  0.00    -0.387 OA
ATOM     32  H   UNL     1     -10.185   6.156  14.149  0.00  0.00    +0.210 HD
ENDBRANCH  25   5
ENDBRANCH  22  25
ENDBRANCH  16  18
ENDBRANCH   6  16
TORSDOF 6
ENDMDL
MODEL 3
REMARK VINA RESULT:      -7.2     23.431     25.844
REMARK  Name = 26761953
REMARK  6 active torsions:
REMARK  status: ('A' for Active; 'I' for Inactive)
REMARK    1  A    between atoms: O_5  and  C_25
REMARK    2  A    between atoms: N_6  and  C_16
REMARK    3  A    between atoms: C_11  and  C_17
REMARK    4  A    between atoms: C_16  and  C_18
REMARK    5  A    between atoms: C_21  and  C_24
REMARK    6  A    between atoms: C_22  and  C_25
REMARK                            x       y       z     vdW  Elec       q    Type
REMARK                         _______ _______ _______ _____ _____    ______ ____
ROOT
ATOM      6  N   UNL     1      11.641   4.695  -0.037  0.00  0.00    -0.278 NA
ATOM      7  N   UNL     1      15.248   5.386  -0.651  0.00  0.00    -0.347 N 
ATOM      8  N   UNL     1      15.590   3.622   0.681  0.00  0.00    -0.240 NA
ATOM     11  C   UNL     1      11.828   4.036   1.291  0.00  0.00    +0.152 C 
ATOM     12  C   UNL     1      13.174   3.229   1.353  0.00  0.00    +0.086 C 
ATOM     13  C   UNL     1      12.709   5.637  -0.433  0.00  0.00    +0.140 C 
ATOM     14  C   UNL     1      14.026   5.016  -0.177  0.00  0.00    +0.053 A 
ATOM     15  C   UNL     1      14.262   3.938   0.640  0.00  0.00    +0.065 A 
ATOM     19  C   UNL     1      16.159   4.515  -0.107  0.00  0.00    +0.197 A 
ATOM     31  H   UNL     1      15.451   6.153  -1.278  0.00  0.00    +0.167 HD
ENDROOT
BRANCH  11  17
ATOM      3  O   UNL     1      12.306   6.105   2.528  0.00  0.00    -0.336 OA
ATOM      9  N   UNL     1      10.842   4.752   3.551  0.00  0.00    -0.190 NA
ATOM     10  N   UNL     1      11.948   6.748   3.720  0.00  0.00    -0.056 NA
ATOM     17  C   UNL     1      11.611   4.938   2.507  0.00  0.00    +0.245 A 
ATOM     21  C   UNL     1      11.083   5.889   4.267  0.00  0.00    +0.202 A 
BRANCH  21  24
ATOM      1 CL   UNL     1       9.415   4.044   8.775  0.00  0.00    -0.081 Cl
ATOM      2  F   UNL     1       8.590   6.867   9.145  0.00  0.00    -0.204 F 
ATOM     24  C   UNL     1      10.441   6.136   5.525  0.00  0.00    +0.024 A 
ATOM     26  C   UNL     1      10.259   5.093   6.434  0.00  0.00    +0.034 A 
ATOM     27  C   UNL     1       9.996   7.421   5.840  0.00  0.00    +0.014 A 
ATOM     28  C   UNL     1       9.635   5.335   7.657  0.00  0.00    +0.077 A 
ATOM     29  C   UNL     1       9.372   7.662   7.064  0.00  0.00    +0.040 A 
ATOM     30  C   UNL     1       9.191   6.619   7.973  0.00  0.00    +0.142 A 
ENDBRANCH  21  24
ENDBRANCH  11  17
BRANCH   6  16
ATOM     16  C   UNL     1      10.316   5.278  -0.231  0.00  0.00    +0.160 C 
BRANCH  16  18
ATOM      4  O   UNL     1       9.960   3.765  -2.104  0.00  0.00    -0.461 OA
ATOM     18  C   UNL     1       9.791   5.024  -1.618  0.00  0.00    +0.119 A 
ATOM     20  C   UNL     1       9.150   5.816  -2.542  0.00  0.00    +0.046 A 
ATOM     22  C   UNL     1       9.422   3.755  -3.352  0.00  0.00    +0.131 A 
ATOM     23  C   UNL     1       8.910   4.992  -3.668  0.00  0.00    +0.047 A 
BRANCH  22  25
ATOM     25  C   UNL     1       9.490   2.480  -4.079  0.00  0.00    +0.230 C 
BRANCH  25   5
ATOM      5  O   UNL     1       9.393   1.384  -3.165  0.00  0.00    -0.387 OA
ATOM     32  H   UNL     1       8.870   0.692  -3.607  0.00  0.00    +0.210 HD
ENDBRANCH  25   5
ENDBRANCH  22  25
ENDBRANCH  16  18
ENDBRANCH   6  16
TORSDOF 6
ENDMDL
MODEL 4
REMARK VINA RESULT:      -7.1     23.372     26.477
REMARK  Name = 26761953
REMARK  6 active torsions:
REMARK  status: ('A' for Active; 'I' for Inactive)
REMARK    1  A    between atoms: O_5  and  C_25
REMARK    2  A    between atoms: N_6  and  C_16
REMARK    3  A    between atoms: C_11  and  C_17
REMARK    4  A    between atoms: C_16  and  C_18
REMARK    5  A    between atoms: C_21  and  C_24
REMARK    6  A    between atoms: C_22  and  C_25
REMARK                            x       y       z     vdW  Elec       q    Type
REMARK                         _______ _______ _______ _____ _____    ______ ____
ROOT
ATOM      6  N   UNL     1      10.328   8.844   6.668  0.00  0.00    -0.278 NA
ATOM      7  N   UNL     1      14.015   8.531   7.092  0.00  0.00    -0.347 N 
ATOM      8  N   UNL     1      14.110  10.188   5.593  0.00  0.00    -0.240 NA
ATOM     11  C   UNL     1      10.373   9.393   5.278  0.00  0.00    +0.152 C 
ATOM     12  C   UNL     1      11.632  10.305   5.056  0.00  0.00    +0.086 C 
ATOM     13  C   UNL     1      11.502   8.039   7.070  0.00  0.00    +0.140 C 
ATOM     14  C   UNL     1      12.738   8.748   6.672  0.00  0.00    +0.053 A 
ATOM     15  C   UNL     1      12.822   9.763   5.751  0.00  0.00    +0.065 A 
ATOM     19  C   UNL     1      14.806   9.424   6.413  0.00  0.00    +0.197 A 
ATOM     31  H   UNL     1      14.325   7.845   7.767  0.00  0.00    +0.167 HD
ENDROOT
BRANCH  11  17
ATOM      3  O   UNL     1       8.910   8.261   3.660  0.00  0.00    -0.336 OA
ATOM      9  N   UNL     1      11.037   7.559   3.607  0.00  0.00    -0.190 NA
ATOM     10  N   UNL     1       8.970   7.274   2.668  0.00  0.00    -0.056 NA
ATOM     17  C   UNL     1      10.168   8.367   4.163  0.00  0.00    +0.245 A 
ATOM     21  C   UNL     1      10.255   6.909   2.697  0.00  0.00    +0.202 A 
BRANCH  21  24
ATOM      1 CL   UNL     1      13.925   3.417   1.775  0.00  0.00    -0.081 Cl
ATOM      2  F   UNL     1      12.318   2.996  -0.680  0.00  0.00    -0.204 F 
ATOM     24  C   UNL     1      10.791   5.900   1.830  0.00  0.00    +0.024 A 
ATOM     26  C   UNL     1      11.961   5.227   2.180  0.00  0.00    +0.034 A 
ATOM     27  C   UNL     1      10.141   5.593   0.635  0.00  0.00    +0.014 A 
ATOM     28  C   UNL     1      12.481   4.246   1.336  0.00  0.00    +0.077 A 
ATOM     29  C   UNL     1      10.661   4.611  -0.210  0.00  0.00    +0.040 A 
ATOM     30  C   UNL     1      11.831   3.937   0.141  0.00  0.00    +0.142 A 
ENDBRANCH  21  24
ENDBRANCH  11  17
BRANCH   6  16
ATOM     16  C   UNL     1       9.078   8.168   7.001  0.00  0.00    +0.160 C 
BRANCH  16  18
ATOM      4  O   UNL     1       9.043   6.397   8.670  0.00  0.00    -0.461 OA
ATOM     18  C   UNL     1       9.303   6.728   7.378  0.00  0.00    +0.119 A 
ATOM     20  C   UNL     1       9.732   5.627   6.674  0.00  0.00    +0.046 A 
ATOM     22  C   UNL     1       9.308   5.070   8.792  0.00  0.00    +0.131 A 
ATOM     23  C   UNL     1       9.735   4.550   7.592  0.00  0.00    +0.047 A 
BRANCH  22  25
ATOM     25  C   UNL     1       9.094   4.484  10.122  0.00  0.00    +0.230 C 
BRANCH  25   5
ATOM      5  O   UNL     1      10.265   4.642  10.927  0.00  0.00    -0.387 OA
ATOM     32  H   UNL     1      11.030   4.572  10.330  0.00  0.00    +0.210 HD
ENDBRANCH  25   5
ENDBRANCH  22  25
ENDBRANCH  16  18
ENDBRANCH   6  16
TORSDOF 6
ENDMDL
MODEL 5
REMARK VINA RESULT:      -7.0      3.823      7.680
REMARK  Name = 26761953
REMARK  6 active torsions:
REMARK  status: ('A' for Active; 'I' for Inactive)
REMARK    1  A    between atoms: O_5  and  C_25
REMARK    2  A    between atoms: N_6  and  C_16
REMARK    3  A    between atoms: C_11  and  C_17
REMARK    4  A    between atoms: C_16  and  C_18
REMARK    5  A    between atoms: C_21  and  C_24
REMARK    6  A    between atoms: C_22  and  C_25
REMARK                            x       y       z     vdW  Elec       q    Type
REMARK                         _______ _______ _______ _____ _____    ______ ____
ROOT
ATOM      6  N   UNL     1      -2.954 -11.954  15.069  0.00  0.00    -0.278 NA
ATOM      7  N   UNL     1      -4.039 -15.354  14.006  0.00  0.00    -0.347 N 
ATOM      8  N   UNL     1      -1.959 -15.531  13.203  0.00  0.00    -0.240 NA
ATOM     11  C   UNL     1      -1.904 -11.785  14.018  0.00  0.00    +0.152 C 
ATOM     12  C   UNL     1      -1.211 -13.149  13.667  0.00  0.00    +0.086 C 
ATOM     13  C   UNL     1      -4.040 -12.899  14.734  0.00  0.00    +0.140 C 
ATOM     14  C   UNL     1      -3.455 -14.135  14.172  0.00  0.00    +0.053 A 
ATOM     15  C   UNL     1      -2.184 -14.267  13.668  0.00  0.00    +0.065 A 
ATOM     19  C   UNL     1      -3.097 -16.163  13.420  0.00  0.00    +0.197 A 
ATOM     31  H   UNL     1      -4.981 -15.616  14.261  0.00  0.00    +0.167 HD
ENDROOT
BRANCH  11  17
ATOM      3  O   UNL     1      -1.389 -10.214  12.200  0.00  0.00    -0.336 OA
ATOM      9  N   UNL     1      -3.504 -10.952  12.189  0.00  0.00    -0.190 NA
ATOM     10  N   UNL     1      -2.011  -9.598  11.107  0.00  0.00    -0.056 NA
ATOM     17  C   UNL     1      -2.336 -10.994  12.782  0.00  0.00    +0.245 A 
ATOM     21  C   UNL     1      -3.255 -10.083  11.168  0.00  0.00    +0.202 A 
BRANCH  21  24
ATOM      1 CL   UNL     1      -5.324 -10.717   6.496  0.00  0.00    -0.081 Cl
ATOM      2  F   UNL     1      -7.206  -8.666   7.514  0.00  0.00    -0.204 F 
ATOM     24  C   UNL     1      -4.271  -9.721  10.223  0.00  0.00    +0.024 A 
ATOM     26  C   UNL     1      -4.301 -10.323   8.965  0.00  0.00    +0.034 A 
ATOM     27  C   UNL     1      -5.229  -8.765  10.562  0.00  0.00    +0.014 A 
ATOM     28  C   UNL     1      -5.290  -9.970   8.047  0.00  0.00    +0.077 A 
ATOM     29  C   UNL     1      -6.219  -8.413   9.643  0.00  0.00    +0.040 A 
ATOM     30  C   UNL     1      -6.249  -9.015   8.386  0.00  0.00    +0.142 A 
ENDBRANCH  21  24
ENDBRANCH  11  17
BRANCH   6  16
ATOM     16  C   UNL     1      -3.481 -10.697  15.591  0.00  0.00    +0.160 C 
BRANCH  16  18
ATOM      4  O   UNL     1      -5.496 -10.400  16.924  0.00  0.00    -0.461 OA
ATOM     18  C   UNL     1      -4.231 -10.897  16.880  0.00  0.00    +0.119 A 
ATOM     20  C   UNL     1      -3.906 -11.495  18.076  0.00  0.00    +0.046 A 
ATOM     22  C   UNL     1      -5.983 -10.685  18.159  0.00  0.00    +0.131 A 
ATOM     23  C   UNL     1      -5.044 -11.358  18.906  0.00  0.00    +0.047 A 
BRANCH  22  25
ATOM     25  C   UNL     1      -7.355 -10.237  18.436  0.00  0.00    +0.230 C 
BRANCH  25   5
ATOM      5  O   UNL     1      -7.607 -10.259  19.843  0.00  0.00    -0.387 OA
ATOM     32  H   UNL     1      -6.891  -9.755  20.267  0.00  0.00    +0.210 HD
ENDBRANCH  25   5
ENDBRANCH  22  25
ENDBRANCH  16  18
ENDBRANCH   6  16
TORSDOF 6
ENDMDL
MODEL 6
REMARK VINA RESULT:      -6.8      3.703      7.490
REMARK  Name = 26761953
REMARK  6 active torsions:
REMARK  status: ('A' for Active; 'I' for Inactive)
REMARK    1  A    between atoms: O_5  and  C_25
REMARK    2  A    between atoms: N_6  and  C_16
REMARK    3  A    between atoms: C_11  and  C_17
REMARK    4  A    between atoms: C_16  and  C_18
REMARK    5  A    between atoms: C_21  and  C_24
REMARK    6  A    between atoms: C_22  and  C_25
REMARK                            x       y       z     vdW  Elec       q    Type
REMARK                         _______ _______ _______ _____ _____    ______ ____
ROOT
ATOM      6  N   UNL     1      -3.636 -11.934  14.509  0.00  0.00    -0.278 NA
ATOM      7  N   UNL     1      -3.948 -15.476  13.401  0.00  0.00    -0.347 N 
ATOM      8  N   UNL     1      -1.769 -15.294  12.929  0.00  0.00    -0.240 NA
ATOM     11  C   UNL     1      -2.480 -11.592  13.624  0.00  0.00    +0.152 C 
ATOM     12  C   UNL     1      -1.518 -12.817  13.426  0.00  0.00    +0.086 C 
ATOM     13  C   UNL     1      -4.480 -13.054  14.042  0.00  0.00    +0.140 C 
ATOM     14  C   UNL     1      -3.612 -14.174  13.614  0.00  0.00    +0.053 A 
ATOM     15  C   UNL     1      -2.276 -14.086  13.314  0.00  0.00    +0.065 A 
ATOM     19  C   UNL     1      -2.803 -16.112  12.990  0.00  0.00    +0.197 A 
ATOM     31  H   UNL     1      -4.860 -15.896  13.517  0.00  0.00    +0.167 HD
ENDROOT
BRANCH  11  17
ATOM      3  O   UNL     1      -1.938 -10.003  11.829  0.00  0.00    -0.336 OA
ATOM      9  N   UNL     1      -3.916 -11.024  11.572  0.00  0.00    -0.190 NA
ATOM     10  N   UNL     1      -2.484  -9.501  10.641  0.00  0.00    -0.056 NA
ATOM     17  C   UNL     1      -2.843 -10.893  12.313  0.00  0.00    +0.245 A 
ATOM     21  C   UNL     1      -3.649 -10.150  10.559  0.00  0.00    +0.202 A 
BRANCH  21  24
ATOM      1 CL   UNL     1      -7.689  -7.588   8.655  0.00  0.00    -0.081 Cl
ATOM      2  F   UNL     1      -7.208  -9.387   6.349  0.00  0.00    -0.204 F 
ATOM     24  C   UNL     1      -4.569  -9.950   9.476  0.00  0.00    +0.024 A 
ATOM     26  C   UNL     1      -5.567  -8.981   9.578  0.00  0.00    +0.034 A 
ATOM     27  C   UNL     1      -4.466 -10.726   8.322  0.00  0.00    +0.014 A 
ATOM     28  C   UNL     1      -6.460  -8.787   8.525  0.00  0.00    +0.077 A 
ATOM     29  C   UNL     1      -5.360 -10.532   7.268  0.00  0.00    +0.040 A 
ATOM     30  C   UNL     1      -6.357  -9.562   7.370  0.00  0.00    +0.142 A 
ENDBRANCH  21  24
ENDBRANCH  11  17
BRANCH   6  16
ATOM     16  C   UNL     1      -4.443 -10.785  14.904  0.00  0.00    +0.160 C 
BRANCH  16  18
ATOM      4  O   UNL     1      -3.970 -11.574  17.157  0.00  0.00    -0.461 OA
ATOM     18  C   UNL     1      -4.777 -10.814  16.371  0.00  0.00    +0.119 A 
ATOM     20  C   UNL     1      -5.761 -10.216  17.126  0.00  0.00    +0.046 A 
ATOM     22  C   UNL     1      -4.442 -11.461  18.426  0.00  0.00    +0.131 A 
ATOM     23  C   UNL     1      -5.543 -10.636  18.459  0.00  0.00    +0.047 A 
BRANCH  22  25
ATOM     25  C   UNL     1      -3.713 -12.208  19.460  0.00  0.00    +0.230 C 
BRANCH  25   5
ATOM      5  O   UNL     1      -2.321 -11.888  19.413  0.00  0.00    -0.387 OA
ATOM     32  H   UNL     1      -1.882 -12.603  18.920  0.00  0.00    +0.210 HD
ENDBRANCH  25   5
ENDBRANCH  22  25
ENDBRANCH  16  18
ENDBRANCH   6  16
TORSDOF 6
ENDMDL
MODEL 7
REMARK VINA RESULT:      -6.8      1.900      2.733
REMARK  Name = 26761953
REMARK  6 active torsions:
REMARK  status: ('A' for Active; 'I' for Inactive)
REMARK    1  A    between atoms: O_5  and  C_25
REMARK    2  A    between atoms: N_6  and  C_16
REMARK    3  A    between atoms: C_11  and  C_17
REMARK    4  A    between atoms: C_16  and  C_18
REMARK    5  A    between atoms: C_21  and  C_24
REMARK    6  A    between atoms: C_22  and  C_25
REMARK                            x       y       z     vdW  Elec       q    Type
REMARK                         _______ _______ _______ _____ _____    ______ ____
ROOT
ATOM      6  N   UNL     1      -2.078 -12.825  12.557  0.00  0.00    -0.278 NA
ATOM      7  N   UNL     1      -4.862 -11.410  10.529  0.00  0.00    -0.347 N 
ATOM      8  N   UNL     1      -3.675  -9.517  10.613  0.00  0.00    -0.240 NA
ATOM     11  C   UNL     1      -1.661 -11.531  13.179  0.00  0.00    +0.152 C 
ATOM     12  C   UNL     1      -1.860 -10.323  12.195  0.00  0.00    +0.086 C 
ATOM     13  C   UNL     1      -3.484 -12.885  12.104  0.00  0.00    +0.140 C 
ATOM     14  C   UNL     1      -3.809 -11.650  11.358  0.00  0.00    +0.053 A 
ATOM     15  C   UNL     1      -3.100 -10.476  11.398  0.00  0.00    +0.065 A 
ATOM     19  C   UNL     1      -4.737 -10.111  10.104  0.00  0.00    +0.197 A 
ATOM     31  H   UNL     1      -5.598 -12.056  10.276  0.00  0.00    +0.167 HD
ENDROOT
BRANCH  11  17
ATOM      3  O   UNL     1      -1.312 -10.989  15.550  0.00  0.00    -0.336 OA
ATOM      9  N   UNL     1      -3.463 -11.269  14.990  0.00  0.00    -0.190 NA
ATOM     10  N   UNL     1      -2.050 -10.788  16.724  0.00  0.00    -0.056 NA
ATOM     17  C   UNL     1      -2.219 -11.267  14.578  0.00  0.00    +0.245 A 
ATOM     21  C   UNL     1      -3.308 -10.970  16.312  0.00  0.00    +0.202 A 
BRANCH  21  24
ATOM      1 CL   UNL     1      -8.021  -9.093  17.195  0.00  0.00    -0.081 Cl
ATOM      2  F   UNL     1      -7.663 -10.551  19.751  0.00  0.00    -0.204 F 
ATOM     24  C   UNL     1      -4.433 -10.859  17.195  0.00  0.00    +0.024 A 
ATOM     26  C   UNL     1      -5.550 -10.117  16.813  0.00  0.00    +0.034 A 
ATOM     27  C   UNL     1      -4.408 -11.494  18.437  0.00  0.00    +0.014 A 
ATOM     28  C   UNL     1      -6.643 -10.010  17.672  0.00  0.00    +0.077 A 
ATOM     29  C   UNL     1      -5.503 -11.386  19.297  0.00  0.00    +0.040 A 
ATOM     30  C   UNL     1      -6.620 -10.645  18.914  0.00  0.00    +0.142 A 
ENDBRANCH  21  24
ENDBRANCH  11  17
BRANCH   6  16
ATOM     16  C   UNL     1      -1.717 -14.004  13.337  0.00  0.00    +0.160 C 
BRANCH  16  18
ATOM      4  O   UNL     1      -3.451 -14.475  14.979  0.00  0.00    -0.461 OA
ATOM     18  C   UNL     1      -2.930 -14.787  13.763  0.00  0.00    +0.119 A 
ATOM     20  C   UNL     1      -3.660 -15.790  13.168  0.00  0.00    +0.046 A 
ATOM     22  C   UNL     1      -4.523 -15.288  15.163  0.00  0.00    +0.131 A 
ATOM     23  C   UNL     1      -4.694 -16.115  14.078  0.00  0.00    +0.047 A 
BRANCH  22  25
ATOM     25  C   UNL     1      -5.253 -15.125  16.428  0.00  0.00    +0.230 C 
BRANCH  25   5
ATOM      5  O   UNL     1      -4.337 -14.899  17.502  0.00  0.00    -0.387 OA
ATOM     32  H   UNL     1      -3.442 -15.040  17.146  0.00  0.00    +0.210 HD
ENDBRANCH  25   5
ENDBRANCH  22  25
ENDBRANCH  16  18
ENDBRANCH   6  16
TORSDOF 6
ENDMDL
MODEL 8
REMARK VINA RESULT:      -6.7     29.664     31.482
REMARK  Name = 26761953
REMARK  6 active torsions:
REMARK  status: ('A' for Active; 'I' for Inactive)
REMARK    1  A    between atoms: O_5  and  C_25
REMARK    2  A    between atoms: N_6  and  C_16
REMARK    3  A    between atoms: C_11  and  C_17
REMARK    4  A    between atoms: C_16  and  C_18
REMARK    5  A    between atoms: C_21  and  C_24
REMARK    6  A    between atoms: C_22  and  C_25
REMARK                            x       y       z     vdW  Elec       q    Type
REMARK                         _______ _______ _______ _____ _____    ______ ____
ROOT
ATOM      6  N   UNL     1      22.461   5.515  22.829  0.00  0.00    -0.278 NA
ATOM      7  N   UNL     1      23.641   2.065  22.073  0.00  0.00    -0.347 N 
ATOM      8  N   UNL     1      24.300   2.949  20.128  0.00  0.00    -0.240 NA
ATOM     11  C   UNL     1      22.256   5.929  21.407  0.00  0.00    +0.152 C 
ATOM     12  C   UNL     1      23.311   5.264  20.452  0.00  0.00    +0.086 C 
ATOM     13  C   UNL     1      22.392   4.060  23.082  0.00  0.00    +0.140 C 
ATOM     14  C   UNL     1      23.190   3.350  22.059  0.00  0.00    +0.053 A 
ATOM     15  C   UNL     1      23.601   3.868  20.856  0.00  0.00    +0.065 A 
ATOM     19  C   UNL     1      24.306   1.870  20.888  0.00  0.00    +0.197 A 
ATOM     31  H   UNL     1      23.512   1.383  22.809  0.00  0.00    +0.167 HD
ENDROOT
BRANCH  11  17
ATOM      3  O   UNL     1      20.507   4.677  20.219  0.00  0.00    -0.336 OA
ATOM      9  N   UNL     1      19.829   6.662  21.003  0.00  0.00    -0.190 NA
ATOM     10  N   UNL     1      19.161   4.801  19.852  0.00  0.00    -0.056 NA
ATOM     17  C   UNL     1      20.821   5.814  20.892  0.00  0.00    +0.245 A 
ATOM     21  C   UNL     1      18.833   5.997  20.350  0.00  0.00    +0.202 A 
BRANCH  21  24
ATOM      1 CL   UNL     1      15.171   9.099  22.216  0.00  0.00    -0.081 Cl
ATOM      2  F   UNL     1      13.732   8.154  19.803  0.00  0.00    -0.204 F 
ATOM     24  C   UNL     1      17.519   6.555  20.213  0.00  0.00    +0.024 A 
ATOM     26  C   UNL     1      17.038   7.451  21.168  0.00  0.00    +0.034 A 
ATOM     27  C   UNL     1      16.721   6.202  19.124  0.00  0.00    +0.014 A 
ATOM     28  C   UNL     1      15.760   7.993  21.034  0.00  0.00    +0.077 A 
ATOM     29  C   UNL     1      15.443   6.744  18.991  0.00  0.00    +0.040 A 
ATOM     30  C   UNL     1      14.962   7.640  19.945  0.00  0.00    +0.142 A 
ENDBRANCH  21  24
ENDBRANCH  11  17
BRANCH   6  16
ATOM     16  C   UNL     1      21.655   6.263  23.789  0.00  0.00    +0.160 C 
BRANCH  16  18
ATOM      4  O   UNL     1      21.320   5.708  26.135  0.00  0.00    -0.461 OA
ATOM     18  C   UNL     1      22.195   6.142  25.188  0.00  0.00    +0.119 A 
ATOM     20  C   UNL     1      23.430   6.382  25.746  0.00  0.00    +0.046 A 
ATOM     22  C   UNL     1      22.004   5.672  27.309  0.00  0.00    +0.131 A 
ATOM     23  C   UNL     1      23.305   6.077  27.123  0.00  0.00    +0.047 A 
BRANCH  22  25
ATOM     25  C   UNL     1      21.248   5.226  28.487  0.00  0.00    +0.230 C 
BRANCH  25   5
ATOM      5  O   UNL     1      19.844   5.316  28.237  0.00  0.00    -0.387 OA
ATOM     32  H   UNL     1      19.587   6.242  28.388  0.00  0.00    +0.210 HD
ENDBRANCH  25   5
ENDBRANCH  22  25
ENDBRANCH  16  18
ENDBRANCH   6  16
TORSDOF 6
ENDMDL
MODEL 9
REMARK VINA RESULT:      -6.6     23.947     27.081
REMARK  Name = 26761953
REMARK  6 active torsions:
REMARK  status: ('A' for Active; 'I' for Inactive)
REMARK    1  A    between atoms: O_5  and  C_25
REMARK    2  A    between atoms: N_6  and  C_16
REMARK    3  A    between atoms: C_11  and  C_17
REMARK    4  A    between atoms: C_16  and  C_18
REMARK    5  A    between atoms: C_21  and  C_24
REMARK    6  A    between atoms: C_22  and  C_25
REMARK                            x       y       z     vdW  Elec       q    Type
REMARK                         _______ _______ _______ _____ _____    ______ ____
ROOT
ATOM      6  N   UNL     1      11.931   7.255   5.367  0.00  0.00    -0.278 NA
ATOM      7  N   UNL     1      15.317   8.413   6.397  0.00  0.00    -0.347 N 
ATOM      8  N   UNL     1      14.987  10.029   4.887  0.00  0.00    -0.240 NA
ATOM     11  C   UNL     1      11.978   7.831   3.989  0.00  0.00    +0.152 C 
ATOM     12  C   UNL     1      12.787   9.175   3.949  0.00  0.00    +0.086 C 
ATOM     13  C   UNL     1      13.245   6.967   5.978  0.00  0.00    +0.140 C 
ATOM     14  C   UNL     1      14.145   8.122   5.768  0.00  0.00    +0.053 A 
ATOM     15  C   UNL     1      13.966   9.122   4.845  0.00  0.00    +0.065 A 
ATOM     19  C   UNL     1      15.786   9.573   5.832  0.00  0.00    +0.197 A 
ATOM     31  H   UNL     1      15.761   7.881   7.133  0.00  0.00    +0.167 HD
ENDROOT
BRANCH  11  17
ATOM      3  O   UNL     1      13.690   6.497   2.836  0.00  0.00    -0.336 OA
ATOM      9  N   UNL     1      11.639   6.295   1.958  0.00  0.00    -0.190 NA
ATOM     10  N   UNL     1      13.813   5.610   1.759  0.00  0.00    -0.056 NA
ATOM     17  C   UNL     1      12.380   6.853   2.884  0.00  0.00    +0.245 A 
ATOM     21  C   UNL     1      12.562   5.543   1.293  0.00  0.00    +0.202 A 
BRANCH  21  24
ATOM      1 CL   UNL     1       9.413   4.737  -2.701  0.00  0.00    -0.081 Cl
ATOM      2  F   UNL     1      11.176   2.384  -3.074  0.00  0.00    -0.204 F 
ATOM     24  C   UNL     1      12.201   4.731   0.166  0.00  0.00    +0.024 A 
ATOM     26  C   UNL     1      11.110   5.085  -0.628  0.00  0.00    +0.034 A 
ATOM     27  C   UNL     1      12.941   3.588  -0.134  0.00  0.00    +0.014 A 
ATOM     28  C   UNL     1      10.760   4.295  -1.723  0.00  0.00    +0.077 A 
ATOM     29  C   UNL     1      12.590   2.798  -1.230  0.00  0.00    +0.040 A 
ATOM     30  C   UNL     1      11.500   3.152  -2.025  0.00  0.00    +0.142 A 
ENDBRANCH  21  24
ENDBRANCH  11  17
BRANCH   6  16
ATOM     16  C   UNL     1      11.016   6.127   5.511  0.00  0.00    +0.160 C 
BRANCH  16  18
ATOM      4  O   UNL     1      10.224   5.075   7.558  0.00  0.00    -0.461 OA
ATOM     18  C   UNL     1      10.234   6.200   6.794  0.00  0.00    +0.119 A 
ATOM     20  C   UNL     1       9.494   7.195   7.392  0.00  0.00    +0.046 A 
ATOM     22  C   UNL     1       9.471   5.355   8.653  0.00  0.00    +0.131 A 
ATOM     23  C   UNL     1       8.999   6.646   8.598  0.00  0.00    +0.047 A 
BRANCH  22  25
ATOM     25  C   UNL     1       9.320   4.270   9.633  0.00  0.00    +0.230 C 
BRANCH  25   5
ATOM      5  O   UNL     1      10.062   4.568  10.818  0.00  0.00    -0.387 OA
ATOM     32  H   UNL     1      10.146   5.536  10.864  0.00  0.00    +0.210 HD
ENDBRANCH  25   5
ENDBRANCH  22  25
ENDBRANCH  16  18
ENDBRANCH   6  16
TORSDOF 6
ENDMDL
MODEL 10
REMARK VINA RESULT:      -6.6     24.325     26.966
REMARK  Name = 26761953
REMARK  6 active torsions:
REMARK  status: ('A' for Active; 'I' for Inactive)
REMARK    1  A    between atoms: O_5  and  C_25
REMARK    2  A    between atoms: N_6  and  C_16
REMARK    3  A    between atoms: C_11  and  C_17
REMARK    4  A    between atoms: C_16  and  C_18
REMARK    5  A    between atoms: C_21  and  C_24
REMARK    6  A    between atoms: C_22  and  C_25
REMARK                            x       y       z     vdW  Elec       q    Type
REMARK                         _______ _______ _______ _____ _____    ______ ____
ROOT
ATOM      6  N   UNL     1       9.327   6.401   4.907  0.00  0.00    -0.278 NA
ATOM      7  N   UNL     1      10.151   3.936   7.574  0.00  0.00    -0.347 N 
ATOM      8  N   UNL     1       9.247   5.447   8.951  0.00  0.00    -0.240 NA
ATOM     11  C   UNL     1       9.372   7.609   5.788  0.00  0.00    +0.152 C 
ATOM     12  C   UNL     1       8.873   7.286   7.241  0.00  0.00    +0.086 C 
ATOM     13  C   UNL     1      10.124   5.247   5.374  0.00  0.00    +0.140 C 
ATOM     14  C   UNL     1       9.872   5.032   6.816  0.00  0.00    +0.053 A 
ATOM     15  C   UNL     1       9.324   5.946   7.682  0.00  0.00    +0.065 A 
ATOM     19  C   UNL     1       9.755   4.234   8.854  0.00  0.00    +0.197 A 
ATOM     31  H   UNL     1      10.572   3.071   7.261  0.00  0.00    +0.167 HD
ENDROOT
BRANCH  11  17
ATOM      3  O   UNL     1      10.590   9.736   5.614  0.00  0.00    -0.336 OA
ATOM      9  N   UNL     1      11.916   7.948   5.861  0.00  0.00    -0.190 NA
ATOM     10  N   UNL     1      11.903  10.223   5.618  0.00  0.00    -0.056 NA
ATOM     17  C   UNL     1      10.687   8.389   5.762  0.00  0.00    +0.245 A 
ATOM     21  C   UNL     1      12.626   9.109   5.768  0.00  0.00    +0.202 A 
BRANCH  21  24
ATOM      1 CL   UNL     1      16.941  11.659   6.948  0.00  0.00    -0.081 Cl
ATOM      2  F   UNL     1      18.186   9.143   5.999  0.00  0.00    -0.204 F 
ATOM     24  C   UNL     1      14.059   9.122   5.829  0.00  0.00    +0.024 A 
ATOM     26  C   UNL     1      14.728  10.251   6.302  0.00  0.00    +0.034 A 
ATOM     27  C   UNL     1      14.785   8.005   5.413  0.00  0.00    +0.014 A 
ATOM     28  C   UNL     1      16.121  10.263   6.362  0.00  0.00    +0.077 A 
ATOM     29  C   UNL     1      16.179   8.018   5.473  0.00  0.00    +0.040 A 
ATOM     30  C   UNL     1      16.847   9.146   5.947  0.00  0.00    +0.142 A 
ENDBRANCH  21  24
ENDBRANCH  11  17
BRANCH   6  16
ATOM     16  C   UNL     1       9.571   6.683   3.497  0.00  0.00    +0.160 C 
BRANCH  16  18
ATOM      4  O   UNL     1      11.901   6.429   2.840  0.00  0.00    -0.461 OA
ATOM     18  C   UNL     1      10.682   5.835   2.940  0.00  0.00    +0.119 A 
ATOM     20  C   UNL     1      10.741   4.535   2.491  0.00  0.00    +0.046 A 
ATOM     22  C   UNL     1      12.746   5.500   2.322  0.00  0.00    +0.131 A 
ATOM     23  C   UNL     1      12.081   4.319   2.090  0.00  0.00    +0.047 A 
BRANCH  22  25
ATOM     25  C   UNL     1      14.138   5.926   2.124  0.00  0.00    +0.230 C 
BRANCH  25   5
ATOM      5  O   UNL     1      15.033   4.876   2.497  0.00  0.00    -0.387 OA
ATOM     32  H   UNL     1      15.124   4.293   1.723  0.00  0.00    +0.210 HD
ENDBRANCH  25   5
ENDBRANCH  22  25
ENDBRANCH  16  18
ENDBRANCH   6  16
TORSDOF 6
ENDMDL
