MODEL 1
REMARK VINA RESULT:      -6.8      0.000      0.000
REMARK  Name = 26742953
REMARK  10 active torsions:
REMARK  status: ('A' for Active; 'I' for Inactive)
REMARK    1  A    between atoms: N_4  and  C_18
REMARK    2  A    between atoms: C_6  and  C_12
REMARK    3  A    between atoms: C_7  and  C_10
REMARK    4  A    between atoms: C_10  and  C_13
REMARK    5  A    between atoms: C_12  and  C_14
REMARK    6  A    between atoms: C_16  and  C_17
REMARK    7  A    between atoms: C_17  and  C_19
REMARK    8  A    between atoms: C_18  and  C_20
REMARK    9  A    between atoms: C_19  and  C_21
REMARK   10  A    between atoms: C_21  and  C_22
REMARK                            x       y       z     vdW  Elec       q    Type
REMARK                         _______ _______ _______ _____ _____    ______ ____
ROOT
ATOM      3  N   UNL     1      13.891   8.755  16.158  0.00  0.00    -0.316 NA
ATOM      6  C   UNL     1      12.965   8.985  18.950  0.00  0.00    +0.004 C 
ATOM      7  C   UNL     1      14.138   8.067  18.530  0.00  0.00    +0.012 C 
ATOM      8  C   UNL     1      12.820  10.116  17.919  0.00  0.00    +0.019 C 
ATOM      9  C   UNL     1      14.009   7.613  17.067  0.00  0.00    +0.085 C 
ATOM     11  C   UNL     1      12.740   9.593  16.486  0.00  0.00    +0.081 C 
ATOM     28  H   UNL     1      13.799   8.415  15.201  0.00  0.00    +0.122 HD
ENDROOT
BRANCH   7  10
ATOM     10  C   UNL     1      14.313   6.858  19.452  0.00  0.00    +0.064 C 
BRANCH  10  13
ATOM      1  O   UNL     1      17.776   5.883  19.593  0.00  0.00    -0.359 OA
ATOM      5  N   UNL     1      16.520   5.879  18.999  0.00  0.00    -0.083 NA
ATOM     13  C   UNL     1      15.758   6.636  19.793  0.00  0.00    +0.084 A 
ATOM     15  C   UNL     1      16.472   7.140  20.894  0.00  0.00    +0.071 A 
ATOM     16  C   UNL     1      17.735   6.638  20.722  0.00  0.00    +0.138 A 
BRANCH  16  17
ATOM     17  C   UNL     1      18.986   6.752  21.479  0.00  0.00    +0.077 C 
BRANCH  17  19
ATOM     19  C   UNL     1      20.087   5.789  20.978  0.00  0.00    +0.007 C 
BRANCH  19  21
ATOM     21  C   UNL     1      21.414   6.501  20.713  0.00  0.00    -0.003 C 
ATOM     22  C   UNL     1      22.493   5.523  20.278  0.00  0.00    +0.004 C 
ENDBRANCH  19  21
ENDBRANCH  17  19
ENDBRANCH  16  17
ENDBRANCH  10  13
ENDBRANCH   7  10
BRANCH   6  12
ATOM     12  C   UNL     1      11.634   8.247  19.142  0.00  0.00    +0.099 C 
BRANCH  12  14
ATOM      2  O   UNL     1      10.800   7.129  21.119  0.00  0.00    -0.276 OA
ATOM      4  N   UNL     1      11.434   9.360  21.253  0.00  0.00    -0.311 N 
ATOM     14  C   UNL     1      11.238   8.152  20.600  0.00  0.00    +0.214 C 
ATOM     29  H   UNL     1      11.786  10.156  20.728  0.00  0.00    +0.149 HD
BRANCH   4  18
ATOM     18  C   UNL     1      11.138   9.557  22.653  0.00  0.00    +0.139 C 
BRANCH  18  20
ATOM     20  C   UNL     1      11.032  11.013  23.005  0.00  0.00    -0.030 A 
ATOM     23  C   UNL     1      11.173  11.982  22.013  0.00  0.00    +0.005 A 
ATOM     24  C   UNL     1      10.792  11.395  24.325  0.00  0.00    +0.005 A 
ATOM     25  C   UNL     1      11.074  13.335  22.340  0.00  0.00    +0.000 A 
ATOM     26  C   UNL     1      10.693  12.747  24.652  0.00  0.00    +0.000 A 
ATOM     27  C   UNL     1      10.834  13.718  23.660  0.00  0.00    +0.000 A 
ENDBRANCH  18  20
ENDBRANCH   4  18
ENDBRANCH  12  14
ENDBRANCH   6  12
TORSDOF 9
ENDMDL
MODEL 2
REMARK VINA RESULT:      -6.6      2.064      7.060
REMARK  Name = 26742953
REMARK  10 active torsions:
REMARK  status: ('A' for Active; 'I' for Inactive)
REMARK    1  A    between atoms: N_4  and  C_18
REMARK    2  A    between atoms: C_6  and  C_12
REMARK    3  A    between atoms: C_7  and  C_10
REMARK    4  A    between atoms: C_10  and  C_13
REMARK    5  A    between atoms: C_12  and  C_14
REMARK    6  A    between atoms: C_16  and  C_17
REMARK    7  A    between atoms: C_17  and  C_19
REMARK    8  A    between atoms: C_18  and  C_20
REMARK    9  A    between atoms: C_19  and  C_21
REMARK   10  A    between atoms: C_21  and  C_22
REMARK                            x       y       z     vdW  Elec       q    Type
REMARK                         _______ _______ _______ _____ _____    ______ ____
ROOT
ATOM      3  N   UNL     1      11.771   9.962  15.184  0.00  0.00    -0.316 NA
ATOM      6  C   UNL     1      11.937   8.792  17.887  0.00  0.00    +0.004 C 
ATOM      7  C   UNL     1      12.827   9.973  17.431  0.00  0.00    +0.012 C 
ATOM      8  C   UNL     1      10.655   8.773  17.038  0.00  0.00    +0.019 C 
ATOM      9  C   UNL     1      13.043   9.966  15.908  0.00  0.00    +0.085 C 
ATOM     11  C   UNL     1      10.947   8.809  15.539  0.00  0.00    +0.081 C 
ATOM     28  H   UNL     1      11.954   9.949  14.181  0.00  0.00    +0.122 HD
ENDROOT
BRANCH   7  10
ATOM     10  C   UNL     1      14.169  10.030  18.162  0.00  0.00    +0.064 C 
BRANCH  10  13
ATOM      1  O   UNL     1      14.393  10.555  21.717  0.00  0.00    -0.359 OA
ATOM      5  N   UNL     1      14.832   9.987  20.528  0.00  0.00    -0.083 NA
ATOM     13  C   UNL     1      13.992  10.444  19.595  0.00  0.00    +0.084 A 
ATOM     15  C   UNL     1      13.012  11.297  20.131  0.00  0.00    +0.071 A 
ATOM     16  C   UNL     1      13.308  11.333  21.468  0.00  0.00    +0.138 A 
BRANCH  16  17
ATOM     17  C   UNL     1      12.712  12.014  22.623  0.00  0.00    +0.077 C 
BRANCH  17  19
ATOM     19  C   UNL     1      11.203  11.722  22.787  0.00  0.00    +0.007 C 
BRANCH  19  21
ATOM     21  C   UNL     1      10.834  11.323  24.215  0.00  0.00    -0.003 C 
ATOM     22  C   UNL     1      11.157  12.432  25.204  0.00  0.00    +0.004 C 
ENDBRANCH  19  21
ENDBRANCH  17  19
ENDBRANCH  16  17
ENDBRANCH  10  13
ENDBRANCH   7  10
BRANCH   6  12
ATOM     12  C   UNL     1      12.639   7.430  17.845  0.00  0.00    +0.099 C 
BRANCH  12  14
ATOM      2  O   UNL     1      12.126   6.528  20.031  0.00  0.00    -0.276 OA
ATOM      4  N   UNL     1      14.340   6.943  19.459  0.00  0.00    -0.311 N 
ATOM     14  C   UNL     1      12.972   6.915  19.230  0.00  0.00    +0.214 C 
ATOM     29  H   UNL     1      14.958   7.300  18.735  0.00  0.00    +0.149 HD
BRANCH   4  18
ATOM     18  C   UNL     1      14.940   6.510  20.700  0.00  0.00    +0.139 C 
BRANCH  18  20
ATOM     20  C   UNL     1      16.440   6.494  20.624  0.00  0.00    -0.030 A 
ATOM     23  C   UNL     1      17.079   5.774  19.615  0.00  0.00    +0.005 A 
ATOM     24  C   UNL     1      17.193   7.200  21.561  0.00  0.00    +0.005 A 
ATOM     25  C   UNL     1      18.472   5.759  19.543  0.00  0.00    +0.000 A 
ATOM     26  C   UNL     1      18.586   7.186  21.490  0.00  0.00    +0.000 A 
ATOM     27  C   UNL     1      19.226   6.465  20.481  0.00  0.00    +0.000 A 
ENDBRANCH  18  20
ENDBRANCH   4  18
ENDBRANCH  12  14
ENDBRANCH   6  12
TORSDOF 9
ENDMDL
MODEL 3
REMARK VINA RESULT:      -6.4      3.887      6.622
REMARK  Name = 26742953
REMARK  10 active torsions:
REMARK  status: ('A' for Active; 'I' for Inactive)
REMARK    1  A    between atoms: N_4  and  C_18
REMARK    2  A    between atoms: C_6  and  C_12
REMARK    3  A    between atoms: C_7  and  C_10
REMARK    4  A    between atoms: C_10  and  C_13
REMARK    5  A    between atoms: C_12  and  C_14
REMARK    6  A    between atoms: C_16  and  C_17
REMARK    7  A    between atoms: C_17  and  C_19
REMARK    8  A    between atoms: C_18  and  C_20
REMARK    9  A    between atoms: C_19  and  C_21
REMARK   10  A    between atoms: C_21  and  C_22
REMARK                            x       y       z     vdW  Elec       q    Type
REMARK                         _______ _______ _______ _____ _____    ______ ____
ROOT
ATOM      3  N   UNL     1      16.903  11.800  13.179  0.00  0.00    -0.316 NA
ATOM      6  C   UNL     1      15.709  12.000  15.869  0.00  0.00    +0.004 C 
ATOM      7  C   UNL     1      15.139  11.074  14.768  0.00  0.00    +0.012 C 
ATOM      8  C   UNL     1      17.199  12.256  15.588  0.00  0.00    +0.019 C 
ATOM      9  C   UNL     1      15.464  11.600  13.360  0.00  0.00    +0.085 C 
ATOM     11  C   UNL     1      17.448  12.736  14.160  0.00  0.00    +0.081 C 
ATOM     28  H   UNL     1      17.078  12.156  12.240  0.00  0.00    +0.122 HD
ENDROOT
BRANCH   7  10
ATOM     10  C   UNL     1      13.637  10.823  14.914  0.00  0.00    +0.064 C 
BRANCH  10  13
ATOM      1  O   UNL     1      13.370   7.658  16.608  0.00  0.00    -0.359 OA
ATOM      5  N   UNL     1      13.781   8.453  15.546  0.00  0.00    -0.083 NA
ATOM     13  C   UNL     1      13.362   9.685  15.853  0.00  0.00    +0.084 A 
ATOM     15  C   UNL     1      12.688   9.727  17.085  0.00  0.00    +0.071 A 
ATOM     16  C   UNL     1      12.719   8.428  17.519  0.00  0.00    +0.138 A 
BRANCH  16  17
ATOM     17  C   UNL     1      12.214   7.742  18.714  0.00  0.00    +0.077 C 
BRANCH  17  19
ATOM     19  C   UNL     1      11.291   8.632  19.577  0.00  0.00    +0.007 C 
BRANCH  19  21
ATOM     21  C   UNL     1      10.867   7.950  20.878  0.00  0.00    -0.003 C 
ATOM     22  C   UNL     1      11.662   6.678  21.125  0.00  0.00    +0.004 C 
ENDBRANCH  19  21
ENDBRANCH  17  19
ENDBRANCH  16  17
ENDBRANCH  10  13
ENDBRANCH   7  10
BRANCH   6  12
ATOM     12  C   UNL     1      14.948  13.322  16.028  0.00  0.00    +0.099 C 
BRANCH  12  14
ATOM      2  O   UNL     1      13.401  14.272  17.628  0.00  0.00    -0.276 OA
ATOM      4  N   UNL     1      14.695  12.442  18.241  0.00  0.00    -0.311 N 
ATOM     14  C   UNL     1      14.249  13.423  17.368  0.00  0.00    +0.214 C 
ATOM     29  H   UNL     1      15.417  11.795  17.934  0.00  0.00    +0.149 HD
BRANCH   4  18
ATOM     18  C   UNL     1      14.201  12.303  19.591  0.00  0.00    +0.139 C 
BRANCH  18  20
ATOM     20  C   UNL     1      14.493  10.945  20.160  0.00  0.00    -0.030 A 
ATOM     23  C   UNL     1      13.925  10.562  21.375  0.00  0.00    +0.005 A 
ATOM     24  C   UNL     1      15.331  10.067  19.474  0.00  0.00    +0.005 A 
ATOM     25  C   UNL     1      14.196   9.301  21.905  0.00  0.00    +0.000 A 
ATOM     26  C   UNL     1      15.602   8.805  20.003  0.00  0.00    +0.000 A 
ATOM     27  C   UNL     1      15.035   8.421  21.219  0.00  0.00    +0.000 A 
ENDBRANCH  18  20
ENDBRANCH   4  18
ENDBRANCH  12  14
ENDBRANCH   6  12
TORSDOF 9
ENDMDL
MODEL 4
REMARK VINA RESULT:      -6.4     26.650     28.487
REMARK  Name = 26742953
REMARK  10 active torsions:
REMARK  status: ('A' for Active; 'I' for Inactive)
REMARK    1  A    between atoms: N_4  and  C_18
REMARK    2  A    between atoms: C_6  and  C_12
REMARK    3  A    between atoms: C_7  and  C_10
REMARK    4  A    between atoms: C_10  and  C_13
REMARK    5  A    between atoms: C_12  and  C_14
REMARK    6  A    between atoms: C_16  and  C_17
REMARK    7  A    between atoms: C_17  and  C_19
REMARK    8  A    between atoms: C_18  and  C_20
REMARK    9  A    between atoms: C_19  and  C_21
REMARK   10  A    between atoms: C_21  and  C_22
REMARK                            x       y       z     vdW  Elec       q    Type
REMARK                         _______ _______ _______ _____ _____    ______ ____
ROOT
ATOM      3  N   UNL     1      -6.445 -12.024  19.384  0.00  0.00    -0.316 NA
ATOM      6  C   UNL     1      -6.391 -11.352  16.512  0.00  0.00    +0.004 C 
ATOM      7  C   UNL     1      -5.133 -11.285  17.410  0.00  0.00    +0.012 C 
ATOM      8  C   UNL     1      -7.394 -12.343  17.127  0.00  0.00    +0.019 C 
ATOM      9  C   UNL     1      -5.499 -11.026  18.882  0.00  0.00    +0.085 C 
ATOM     11  C   UNL     1      -7.676 -12.049  18.599  0.00  0.00    +0.081 C 
ATOM     28  H   UNL     1      -6.669 -11.815  20.357  0.00  0.00    +0.122 HD
ENDROOT
BRANCH   7  10
ATOM     10  C   UNL     1      -4.105 -10.261  16.926  0.00  0.00    +0.064 C 
BRANCH  10  13
ATOM      1  O   UNL     1      -1.083 -11.371  15.313  0.00  0.00    -0.359 OA
ATOM      5  N   UNL     1      -1.767 -10.620  16.260  0.00  0.00    -0.083 NA
ATOM     13  C   UNL     1      -3.057 -10.905  16.064  0.00  0.00    +0.084 A 
ATOM     15  C   UNL     1      -3.247 -11.822  15.017  0.00  0.00    +0.071 A 
ATOM     16  C   UNL     1      -1.976 -12.084  14.578  0.00  0.00    +0.138 A 
BRANCH  16  17
ATOM     17  C   UNL     1      -1.420 -12.940  13.523  0.00  0.00    +0.077 C 
BRANCH  17  19
ATOM     19  C   UNL     1      -1.771 -14.434  13.710  0.00  0.00    +0.007 C 
BRANCH  19  21
ATOM     21  C   UNL     1      -2.051 -15.141  12.384  0.00  0.00    -0.003 C 
ATOM     22  C   UNL     1      -3.051 -14.367  11.540  0.00  0.00    +0.004 C 
ENDBRANCH  19  21
ENDBRANCH  17  19
ENDBRANCH  16  17
ENDBRANCH  10  13
ENDBRANCH   7  10
BRANCH   6  12
ATOM     12  C   UNL     1      -7.052  -9.991  16.262  0.00  0.00    +0.099 C 
BRANCH  12  14
ATOM      2  O   UNL     1      -8.739 -10.037  14.528  0.00  0.00    -0.276 OA
ATOM      4  N   UNL     1      -6.546  -9.511  13.971  0.00  0.00    -0.311 N 
ATOM     14  C   UNL     1      -7.567  -9.857  14.843  0.00  0.00    +0.214 C 
ATOM     29  H   UNL     1      -5.601  -9.403  14.330  0.00  0.00    +0.149 HD
BRANCH   4  18
ATOM     18  C   UNL     1      -6.751  -9.319  12.554  0.00  0.00    +0.139 C 
BRANCH  18  20
ATOM     20  C   UNL     1      -5.464  -9.397  11.784  0.00  0.00    -0.030 A 
ATOM     23  C   UNL     1      -5.288  -8.618  10.640  0.00  0.00    +0.005 A 
ATOM     24  C   UNL     1      -4.446 -10.249  12.212  0.00  0.00    +0.005 A 
ATOM     25  C   UNL     1      -4.093  -8.691   9.924  0.00  0.00    +0.000 A 
ATOM     26  C   UNL     1      -3.251 -10.321  11.496  0.00  0.00    +0.000 A 
ATOM     27  C   UNL     1      -3.074  -9.543  10.352  0.00  0.00    +0.000 A 
ENDBRANCH  18  20
ENDBRANCH   4  18
ENDBRANCH  12  14
ENDBRANCH   6  12
TORSDOF 9
ENDMDL
MODEL 5
REMARK VINA RESULT:      -6.4      3.144      5.611
REMARK  Name = 26742953
REMARK  10 active torsions:
REMARK  status: ('A' for Active; 'I' for Inactive)
REMARK    1  A    between atoms: N_4  and  C_18
REMARK    2  A    between atoms: C_6  and  C_12
REMARK    3  A    between atoms: C_7  and  C_10
REMARK    4  A    between atoms: C_10  and  C_13
REMARK    5  A    between atoms: C_12  and  C_14
REMARK    6  A    between atoms: C_16  and  C_17
REMARK    7  A    between atoms: C_17  and  C_19
REMARK    8  A    between atoms: C_18  and  C_20
REMARK    9  A    between atoms: C_19  and  C_21
REMARK   10  A    between atoms: C_21  and  C_22
REMARK                            x       y       z     vdW  Elec       q    Type
REMARK                         _______ _______ _______ _____ _____    ______ ____
ROOT
ATOM      3  N   UNL     1      16.352  14.047  24.128  0.00  0.00    -0.316 NA
ATOM      6  C   UNL     1      13.974  12.399  23.555  0.00  0.00    +0.004 C 
ATOM      7  C   UNL     1      15.337  12.171  22.858  0.00  0.00    +0.012 C 
ATOM      8  C   UNL     1      14.211  13.095  24.905  0.00  0.00    +0.019 C 
ATOM      9  C   UNL     1      16.167  13.465  22.798  0.00  0.00    +0.085 C 
ATOM     11  C   UNL     1      15.076  14.347  24.773  0.00  0.00    +0.081 C 
ATOM     28  H   UNL     1      16.898  14.905  24.047  0.00  0.00    +0.122 HD
ENDROOT
BRANCH   7  10
ATOM     10  C   UNL     1      15.202  11.556  21.465  0.00  0.00    +0.064 C 
BRANCH  10  13
ATOM      1  O   UNL     1      14.867   8.082  22.348  0.00  0.00    -0.359 OA
ATOM      5  N   UNL     1      14.727   9.437  22.616  0.00  0.00    -0.083 NA
ATOM     13  C   UNL     1      15.198  10.056  21.529  0.00  0.00    +0.084 A 
ATOM     15  C   UNL     1      15.644   9.149  20.552  0.00  0.00    +0.071 A 
ATOM     16  C   UNL     1      15.414   7.922  21.115  0.00  0.00    +0.138 A 
BRANCH  16  17
ATOM     17  C   UNL     1      15.632   6.541  20.669  0.00  0.00    +0.077 C 
BRANCH  17  19
ATOM     19  C   UNL     1      16.158   6.450  19.219  0.00  0.00    +0.007 C 
BRANCH  19  21
ATOM     21  C   UNL     1      17.462   5.658  19.116  0.00  0.00    -0.003 C 
ATOM     22  C   UNL     1      18.506   6.175  20.093  0.00  0.00    +0.004 C 
ENDBRANCH  19  21
ENDBRANCH  17  19
ENDBRANCH  16  17
ENDBRANCH  10  13
ENDBRANCH   7  10
BRANCH   6  12
ATOM     12  C   UNL     1      12.964  13.182  22.707  0.00  0.00    +0.099 C 
BRANCH  12  14
ATOM      2  O   UNL     1      10.718  12.835  21.876  0.00  0.00    -0.276 OA
ATOM      4  N   UNL     1      11.905  11.034  22.742  0.00  0.00    -0.311 N 
ATOM     14  C   UNL     1      11.731  12.364  22.385  0.00  0.00    +0.214 C 
ATOM     29  H   UNL     1      12.778  10.747  23.176  0.00  0.00    +0.149 HD
BRANCH   4  18
ATOM     18  C   UNL     1      10.887  10.027  22.550  0.00  0.00    +0.139 C 
BRANCH  18  20
ATOM     20  C   UNL     1      11.328   8.957  21.593  0.00  0.00    -0.030 A 
ATOM     23  C   UNL     1      11.674   9.293  20.284  0.00  0.00    +0.005 A 
ATOM     24  C   UNL     1      11.392   7.629  22.013  0.00  0.00    +0.005 A 
ATOM     25  C   UNL     1      12.084   8.300  19.394  0.00  0.00    +0.000 A 
ATOM     26  C   UNL     1      11.802   6.635  21.123  0.00  0.00    +0.000 A 
ATOM     27  C   UNL     1      12.148   6.970  19.814  0.00  0.00    +0.000 A 
ENDBRANCH  18  20
ENDBRANCH   4  18
ENDBRANCH  12  14
ENDBRANCH   6  12
TORSDOF 9
ENDMDL
MODEL 6
REMARK VINA RESULT:      -6.3     25.080     27.501
REMARK  Name = 26742953
REMARK  10 active torsions:
REMARK  status: ('A' for Active; 'I' for Inactive)
REMARK    1  A    between atoms: N_4  and  C_18
REMARK    2  A    between atoms: C_6  and  C_12
REMARK    3  A    between atoms: C_7  and  C_10
REMARK    4  A    between atoms: C_10  and  C_13
REMARK    5  A    between atoms: C_12  and  C_14
REMARK    6  A    between atoms: C_16  and  C_17
REMARK    7  A    between atoms: C_17  and  C_19
REMARK    8  A    between atoms: C_18  and  C_20
REMARK    9  A    between atoms: C_19  and  C_21
REMARK   10  A    between atoms: C_21  and  C_22
REMARK                            x       y       z     vdW  Elec       q    Type
REMARK                         _______ _______ _______ _____ _____    ______ ____
ROOT
ATOM      3  N   UNL     1     -14.208   4.329  21.963  0.00  0.00    -0.316 NA
ATOM      6  C   UNL     1     -14.146   7.131  21.044  0.00  0.00    +0.004 C 
ATOM      7  C   UNL     1     -12.895   6.220  21.035  0.00  0.00    +0.012 C 
ATOM      8  C   UNL     1     -15.407   6.253  20.985  0.00  0.00    +0.019 C 
ATOM      9  C   UNL     1     -12.985   5.121  22.107  0.00  0.00    +0.085 C 
ATOM     11  C   UNL     1     -15.406   5.159  22.051  0.00  0.00    +0.081 C 
ATOM     28  H   UNL     1     -14.236   3.618  22.694  0.00  0.00    +0.122 HD
ENDROOT
BRANCH   7  10
ATOM     10  C   UNL     1     -11.586   6.999  21.175  0.00  0.00    +0.064 C 
BRANCH  10  13
ATOM      1  O   UNL     1     -10.834   7.842  17.756  0.00  0.00    -0.359 OA
ATOM      5  N   UNL     1     -11.246   6.954  18.741  0.00  0.00    -0.083 NA
ATOM     13  C   UNL     1     -11.199   7.652  19.880  0.00  0.00    +0.084 A 
ATOM     15  C   UNL     1     -10.768   8.975  19.676  0.00  0.00    +0.071 A 
ATOM     16  C   UNL     1     -10.551   9.043  18.325  0.00  0.00    +0.138 A 
BRANCH  16  17
ATOM     17  C   UNL     1     -10.098  10.106  17.420  0.00  0.00    +0.077 C 
BRANCH  17  19
ATOM     19  C   UNL     1     -10.097  11.503  18.081  0.00  0.00    +0.007 C 
BRANCH  19  21
ATOM     21  C   UNL     1      -9.782  12.622  17.088  0.00  0.00    -0.003 C 
ATOM     22  C   UNL     1     -10.014  12.175  15.653  0.00  0.00    +0.004 C 
ENDBRANCH  19  21
ENDBRANCH  17  19
ENDBRANCH  16  17
ENDBRANCH  10  13
ENDBRANCH   7  10
BRANCH   6  12
ATOM     12  C   UNL     1     -14.208   8.094  22.236  0.00  0.00    +0.099 C 
BRANCH  12  14
ATOM      2  O   UNL     1     -13.334  10.322  22.597  0.00  0.00    -0.276 OA
ATOM      4  N   UNL     1     -14.248   9.775  20.532  0.00  0.00    -0.311 N 
ATOM     14  C   UNL     1     -13.871   9.516  21.841  0.00  0.00    +0.214 C 
ATOM     29  H   UNL     1     -14.704   9.044  19.993  0.00  0.00    +0.149 HD
BRANCH   4  18
ATOM     18  C   UNL     1     -14.049  11.055  19.892  0.00  0.00    +0.139 C 
BRANCH  18  20
ATOM     20  C   UNL     1     -13.876  10.920  18.407  0.00  0.00    -0.030 A 
ATOM     23  C   UNL     1     -13.901   9.658  17.814  0.00  0.00    +0.005 A 
ATOM     24  C   UNL     1     -13.690  12.057  17.621  0.00  0.00    +0.005 A 
ATOM     25  C   UNL     1     -13.741   9.532  16.434  0.00  0.00    +0.000 A 
ATOM     26  C   UNL     1     -13.530  11.931  16.240  0.00  0.00    +0.000 A 
ATOM     27  C   UNL     1     -13.555  10.669  15.646  0.00  0.00    +0.000 A 
ENDBRANCH  18  20
ENDBRANCH   4  18
ENDBRANCH  12  14
ENDBRANCH   6  12
TORSDOF 9
ENDMDL
MODEL 7
REMARK VINA RESULT:      -6.1     26.804     29.163
REMARK  Name = 26742953
REMARK  10 active torsions:
REMARK  status: ('A' for Active; 'I' for Inactive)
REMARK    1  A    between atoms: N_4  and  C_18
REMARK    2  A    between atoms: C_6  and  C_12
REMARK    3  A    between atoms: C_7  and  C_10
REMARK    4  A    between atoms: C_10  and  C_13
REMARK    5  A    between atoms: C_12  and  C_14
REMARK    6  A    between atoms: C_16  and  C_17
REMARK    7  A    between atoms: C_17  and  C_19
REMARK    8  A    between atoms: C_18  and  C_20
REMARK    9  A    between atoms: C_19  and  C_21
REMARK   10  A    between atoms: C_21  and  C_22
REMARK                            x       y       z     vdW  Elec       q    Type
REMARK                         _______ _______ _______ _____ _____    ______ ____
ROOT
ATOM      3  N   UNL     1      -6.068 -12.716  19.014  0.00  0.00    -0.316 NA
ATOM      6  C   UNL     1      -6.621 -10.926  16.736  0.00  0.00    +0.004 C 
ATOM      7  C   UNL     1      -5.186 -11.313  17.166  0.00  0.00    +0.012 C 
ATOM      8  C   UNL     1      -7.597 -12.016  17.206  0.00  0.00    +0.019 C 
ATOM      9  C   UNL     1      -5.116 -11.661  18.663  0.00  0.00    +0.085 C 
ATOM     11  C   UNL     1      -7.441 -12.338  18.691  0.00  0.00    +0.081 C 
ATOM     28  H   UNL     1      -5.998 -12.913  20.013  0.00  0.00    +0.122 HD
ENDROOT
BRANCH   7  10
ATOM     10  C   UNL     1      -4.146 -10.247  16.815  0.00  0.00    +0.064 C 
BRANCH  10  13
ATOM      1  O   UNL     1      -1.475 -11.474  14.737  0.00  0.00    -0.359 OA
ATOM      5  N   UNL     1      -2.017 -11.134  15.969  0.00  0.00    -0.083 NA
ATOM     13  C   UNL     1      -3.252 -10.704  15.699  0.00  0.00    +0.084 A 
ATOM     15  C   UNL     1      -3.542 -10.748  14.324  0.00  0.00    +0.071 A 
ATOM     16  C   UNL     1      -2.393 -11.239  13.764  0.00  0.00    +0.138 A 
BRANCH  16  17
ATOM     17  C   UNL     1      -1.983 -11.546  12.388  0.00  0.00    +0.077 C 
BRANCH  17  19
ATOM     19  C   UNL     1      -2.982 -11.027  11.329  0.00  0.00    +0.007 C 
BRANCH  19  21
ATOM     21  C   UNL     1      -2.581  -9.666  10.761  0.00  0.00    -0.003 C 
ATOM     22  C   UNL     1      -3.715  -9.037   9.968  0.00  0.00    +0.004 C 
ENDBRANCH  19  21
ENDBRANCH  17  19
ENDBRANCH  16  17
ENDBRANCH  10  13
ENDBRANCH   7  10
BRANCH   6  12
ATOM     12  C   UNL     1      -7.068  -9.544  17.229  0.00  0.00    +0.099 C 
BRANCH  12  14
ATOM      2  O   UNL     1      -8.769  -9.195  15.543  0.00  0.00    -0.276 OA
ATOM      4  N   UNL     1      -9.285  -8.823  17.778  0.00  0.00    -0.311 N 
ATOM     14  C   UNL     1      -8.450  -9.177  16.729  0.00  0.00    +0.214 C 
ATOM     29  H   UNL     1      -8.918  -8.822  18.726  0.00  0.00    +0.149 HD
BRANCH   4  18
ATOM     18  C   UNL     1     -10.661  -8.424  17.591  0.00  0.00    +0.139 C 
BRANCH  18  20
ATOM     20  C   UNL     1     -11.609  -9.305  18.352  0.00  0.00    -0.030 A 
ATOM     23  C   UNL     1     -11.171  -9.984  19.488  0.00  0.00    +0.005 A 
ATOM     24  C   UNL     1     -12.929  -9.443  17.922  0.00  0.00    +0.005 A 
ATOM     25  C   UNL     1     -12.052 -10.802  20.196  0.00  0.00    +0.000 A 
ATOM     26  C   UNL     1     -13.811 -10.261  18.630  0.00  0.00    +0.000 A 
ATOM     27  C   UNL     1     -13.372 -10.941  19.766  0.00  0.00    +0.000 A 
ENDBRANCH  18  20
ENDBRANCH   4  18
ENDBRANCH  12  14
ENDBRANCH   6  12
TORSDOF 9
ENDMDL
MODEL 8
REMARK VINA RESULT:      -6.1     13.397     16.537
REMARK  Name = 26742953
REMARK  10 active torsions:
REMARK  status: ('A' for Active; 'I' for Inactive)
REMARK    1  A    between atoms: N_4  and  C_18
REMARK    2  A    between atoms: C_6  and  C_12
REMARK    3  A    between atoms: C_7  and  C_10
REMARK    4  A    between atoms: C_10  and  C_13
REMARK    5  A    between atoms: C_12  and  C_14
REMARK    6  A    between atoms: C_16  and  C_17
REMARK    7  A    between atoms: C_17  and  C_19
REMARK    8  A    between atoms: C_18  and  C_20
REMARK    9  A    between atoms: C_19  and  C_21
REMARK   10  A    between atoms: C_21  and  C_22
REMARK                            x       y       z     vdW  Elec       q    Type
REMARK                         _______ _______ _______ _____ _____    ______ ____
ROOT
ATOM      3  N   UNL     1      17.432   9.980   5.434  0.00  0.00    -0.316 NA
ATOM      6  C   UNL     1      15.060   8.637   4.307  0.00  0.00    +0.004 C 
ATOM      7  C   UNL     1      15.391   8.619   5.818  0.00  0.00    +0.012 C 
ATOM      8  C   UNL     1      15.714   9.871   3.664  0.00  0.00    +0.019 C 
ATOM      9  C   UNL     1      16.901   8.773   6.070  0.00  0.00    +0.085 C 
ATOM     11  C   UNL     1      17.202   9.980   3.992  0.00  0.00    +0.081 C 
ATOM     28  H   UNL     1      18.433  10.043   5.616  0.00  0.00    +0.122 HD
ENDROOT
BRANCH   7  10
ATOM     10  C   UNL     1      14.851   7.381   6.536  0.00  0.00    +0.064 C 
BRANCH  10  13
ATOM      1  O   UNL     1      11.547   8.549   7.358  0.00  0.00    -0.359 OA
ATOM      5  N   UNL     1      12.886   8.760   7.059  0.00  0.00    -0.083 NA
ATOM     13  C   UNL     1      13.399   7.539   6.880  0.00  0.00    +0.084 A 
ATOM     15  C   UNL     1      12.437   6.528   7.051  0.00  0.00    +0.071 A 
ATOM     16  C   UNL     1      11.291   7.215   7.350  0.00  0.00    +0.138 A 
BRANCH  16  17
ATOM     17  C   UNL     1       9.912   6.811   7.648  0.00  0.00    +0.077 C 
BRANCH  17  19
ATOM     19  C   UNL     1       9.600   5.359   7.217  0.00  0.00    +0.007 C 
BRANCH  19  21
ATOM     21  C   UNL     1       9.734   4.364   8.369  0.00  0.00    -0.003 C 
ATOM     22  C   UNL     1       9.289   4.974   9.688  0.00  0.00    +0.004 C 
ENDBRANCH  19  21
ENDBRANCH  17  19
ENDBRANCH  16  17
ENDBRANCH  10  13
ENDBRANCH   7  10
BRANCH   6  12
ATOM     12  C   UNL     1      15.464   7.357   3.565  0.00  0.00    +0.099 C 
BRANCH  12  14
ATOM      2  O   UNL     1      14.396   6.251   1.695  0.00  0.00    -0.276 OA
ATOM      4  N   UNL     1      13.136   6.793   3.571  0.00  0.00    -0.311 N 
ATOM     14  C   UNL     1      14.300   6.736   2.819  0.00  0.00    +0.214 C 
ATOM     29  H   UNL     1      13.158   7.233   4.487  0.00  0.00    +0.149 HD
BRANCH   4  18
ATOM     18  C   UNL     1      11.870   6.276   3.105  0.00  0.00    +0.139 C 
BRANCH  18  20
ATOM     20  C   UNL     1      10.712   7.093   3.600  0.00  0.00    -0.030 A 
ATOM     23  C   UNL     1       9.456   6.505   3.746  0.00  0.00    +0.005 A 
ATOM     24  C   UNL     1      10.893   8.440   3.915  0.00  0.00    +0.005 A 
ATOM     25  C   UNL     1       8.380   7.264   4.207  0.00  0.00    +0.000 A 
ATOM     26  C   UNL     1       9.817   9.199   4.376  0.00  0.00    +0.000 A 
ATOM     27  C   UNL     1       8.560   8.611   4.522  0.00  0.00    +0.000 A 
ENDBRANCH  18  20
ENDBRANCH   4  18
ENDBRANCH  12  14
ENDBRANCH   6  12
TORSDOF 9
ENDMDL
MODEL 9
REMARK VINA RESULT:      -6.0      3.615      6.788
REMARK  Name = 26742953
REMARK  10 active torsions:
REMARK  status: ('A' for Active; 'I' for Inactive)
REMARK    1  A    between atoms: N_4  and  C_18
REMARK    2  A    between atoms: C_6  and  C_12
REMARK    3  A    between atoms: C_7  and  C_10
REMARK    4  A    between atoms: C_10  and  C_13
REMARK    5  A    between atoms: C_12  and  C_14
REMARK    6  A    between atoms: C_16  and  C_17
REMARK    7  A    between atoms: C_17  and  C_19
REMARK    8  A    between atoms: C_18  and  C_20
REMARK    9  A    between atoms: C_19  and  C_21
REMARK   10  A    between atoms: C_21  and  C_22
REMARK                            x       y       z     vdW  Elec       q    Type
REMARK                         _______ _______ _______ _____ _____    ______ ____
ROOT
ATOM      3  N   UNL     1      19.037   7.558  21.133  0.00  0.00    -0.316 NA
ATOM      6  C   UNL     1      16.272   7.382  20.121  0.00  0.00    +0.004 C 
ATOM      7  C   UNL     1      16.941   8.726  20.496  0.00  0.00    +0.012 C 
ATOM      8  C   UNL     1      17.364   6.359  19.770  0.00  0.00    +0.019 C 
ATOM      9  C   UNL     1      18.036   8.538  21.559  0.00  0.00    +0.085 C 
ATOM     11  C   UNL     1      18.437   6.256  20.851  0.00  0.00    +0.081 C 
ATOM     28  H   UNL     1      19.740   7.455  21.865  0.00  0.00    +0.122 HD
ENDROOT
BRANCH   7  10
ATOM     10  C   UNL     1      15.938   9.792  20.943  0.00  0.00    +0.064 C 
BRANCH  10  13
ATOM      1  O   UNL     1      16.200  12.524  18.614  0.00  0.00    -0.359 OA
ATOM      5  N   UNL     1      16.701  11.726  19.634  0.00  0.00    -0.083 NA
ATOM     13  C   UNL     1      15.738  10.833  19.880  0.00  0.00    +0.084 A 
ATOM     15  C   UNL     1      14.617  11.016  19.052  0.00  0.00    +0.071 A 
ATOM     16  C   UNL     1      14.957  12.092  18.275  0.00  0.00    +0.138 A 
BRANCH  16  17
ATOM     17  C   UNL     1      14.277  12.828  17.204  0.00  0.00    +0.077 C 
BRANCH  17  19
ATOM     19  C   UNL     1      15.214  13.191  16.029  0.00  0.00    +0.007 C 
BRANCH  19  21
ATOM     21  C   UNL     1      15.053  12.247  14.837  0.00  0.00    -0.003 C 
ATOM     22  C   UNL     1      16.288  11.383  14.641  0.00  0.00    +0.004 C 
ENDBRANCH  19  21
ENDBRANCH  17  19
ENDBRANCH  16  17
ENDBRANCH  10  13
ENDBRANCH   7  10
BRANCH   6  12
ATOM     12  C   UNL     1      15.334   6.830  21.201  0.00  0.00    +0.099 C 
BRANCH  12  14
ATOM      2  O   UNL     1      13.048   7.415  21.742  0.00  0.00    -0.276 OA
ATOM      4  N   UNL     1      13.618   6.963  19.535  0.00  0.00    -0.311 N 
ATOM     14  C   UNL     1      13.877   7.106  20.891  0.00  0.00    +0.214 C 
ATOM     29  H   UNL     1      14.372   6.685  18.913  0.00  0.00    +0.149 HD
BRANCH   4  18
ATOM     18  C   UNL     1      12.310   7.164  18.957  0.00  0.00    +0.139 C 
BRANCH  18  20
ATOM     20  C   UNL     1      12.371   7.986  17.702  0.00  0.00    -0.030 A 
ATOM     23  C   UNL     1      13.604   8.285  17.124  0.00  0.00    +0.005 A 
ATOM     24  C   UNL     1      11.194   8.450  17.115  0.00  0.00    +0.005 A 
ATOM     25  C   UNL     1      13.661   9.049  15.958  0.00  0.00    +0.000 A 
ATOM     26  C   UNL     1      11.250   9.214  15.948  0.00  0.00    +0.000 A 
ATOM     27  C   UNL     1      12.484   9.514  15.370  0.00  0.00    +0.000 A 
ENDBRANCH  18  20
ENDBRANCH   4  18
ENDBRANCH  12  14
ENDBRANCH   6  12
TORSDOF 9
ENDMDL
MODEL 10
REMARK VINA RESULT:      -6.0     27.298     29.582
REMARK  Name = 26742953
REMARK  10 active torsions:
REMARK  status: ('A' for Active; 'I' for Inactive)
REMARK    1  A    between atoms: N_4  and  C_18
REMARK    2  A    between atoms: C_6  and  C_12
REMARK    3  A    between atoms: C_7  and  C_10
REMARK    4  A    between atoms: C_10  and  C_13
REMARK    5  A    between atoms: C_12  and  C_14
REMARK    6  A    between atoms: C_16  and  C_17
REMARK    7  A    between atoms: C_17  and  C_19
REMARK    8  A    between atoms: C_18  and  C_20
REMARK    9  A    between atoms: C_19  and  C_21
REMARK   10  A    between atoms: C_21  and  C_22
REMARK                            x       y       z     vdW  Elec       q    Type
REMARK                         _______ _______ _______ _____ _____    ______ ____
ROOT
ATOM      3  N   UNL     1      -6.125 -12.658  18.919  0.00  0.00    -0.316 NA
ATOM      6  C   UNL     1      -4.845 -11.052  16.802  0.00  0.00    +0.004 C 
ATOM      7  C   UNL     1      -6.380 -11.219  16.912  0.00  0.00    +0.012 C 
ATOM      8  C   UNL     1      -4.215 -11.275  18.186  0.00  0.00    +0.019 C 
ATOM      9  C   UNL     1      -6.758 -12.539  17.605  0.00  0.00    +0.085 C 
ATOM     11  C   UNL     1      -4.669 -12.584  18.829  0.00  0.00    +0.081 C 
ATOM     28  H   UNL     1      -6.393 -13.547  19.342  0.00  0.00    +0.122 HD
ENDROOT
BRANCH   7  10
ATOM     10  C   UNL     1      -7.095 -11.096  15.566  0.00  0.00    +0.064 C 
BRANCH  10  13
ATOM      1  O   UNL     1      -9.557  -8.577  14.822  0.00  0.00    -0.359 OA
ATOM      5  N   UNL     1      -8.676  -9.584  14.448  0.00  0.00    -0.083 NA
ATOM     13  C   UNL     1      -8.116  -9.995  15.589  0.00  0.00    +0.084 A 
ATOM     15  C   UNL     1      -8.600  -9.291  16.704  0.00  0.00    +0.071 A 
ATOM     16  C   UNL     1      -9.502  -8.411  16.169  0.00  0.00    +0.138 A 
BRANCH  16  17
ATOM     17  C   UNL     1     -10.377  -7.379  16.738  0.00  0.00    +0.077 C 
BRANCH  17  19
ATOM     19  C   UNL     1     -11.879  -7.667  16.511  0.00  0.00    +0.007 C 
BRANCH  19  21
ATOM     21  C   UNL     1     -12.623  -6.470  15.920  0.00  0.00    -0.003 C 
ATOM     22  C   UNL     1     -11.791  -5.764  14.862  0.00  0.00    +0.004 C 
ENDBRANCH  19  21
ENDBRANCH  17  19
ENDBRANCH  16  17
ENDBRANCH  10  13
ENDBRANCH   7  10
BRANCH   6  12
ATOM     12  C   UNL     1      -4.193 -11.960  15.752  0.00  0.00    +0.099 C 
BRANCH  12  14
ATOM      2  O   UNL     1      -2.336 -10.484  15.273  0.00  0.00    -0.276 OA
ATOM      4  N   UNL     1      -3.526 -11.427  13.515  0.00  0.00    -0.311 N 
ATOM     14  C   UNL     1      -3.239 -11.202  14.853  0.00  0.00    +0.214 C 
ATOM     29  H   UNL     1      -4.310 -12.026  13.269  0.00  0.00    +0.149 HD
BRANCH   4  18
ATOM     18  C   UNL     1      -2.777 -10.828  12.435  0.00  0.00    +0.139 C 
BRANCH  18  20
ATOM     20  C   UNL     1      -3.651 -10.010  11.530  0.00  0.00    -0.030 A 
ATOM     23  C   UNL     1      -3.173  -9.596  10.287  0.00  0.00    +0.005 A 
ATOM     24  C   UNL     1      -4.941  -9.664  11.932  0.00  0.00    +0.005 A 
ATOM     25  C   UNL     1      -3.985  -8.835   9.445  0.00  0.00    +0.000 A 
ATOM     26  C   UNL     1      -5.753  -8.903  11.090  0.00  0.00    +0.000 A 
ATOM     27  C   UNL     1      -5.275  -8.489   9.847  0.00  0.00    +0.000 A 
ENDBRANCH  18  20
ENDBRANCH   4  18
ENDBRANCH  12  14
ENDBRANCH   6  12
TORSDOF 9
ENDMDL
