MODEL 1
REMARK VINA RESULT:      -6.7      0.000      0.000
REMARK  Name = 40780152
REMARK  6 active torsions:
REMARK  status: ('A' for Active; 'I' for Inactive)
REMARK    1  A    between atoms: N_4  and  C_14
REMARK    2  A    between atoms: C_8  and  C_14
REMARK    3  A    between atoms: C_9  and  C_15
REMARK    4  A    between atoms: C_16  and  C_19
REMARK    5  A    between atoms: C_21  and  C_23
REMARK    6  A    between atoms: C_22  and  C_24
REMARK                            x       y       z     vdW  Elec       q    Type
REMARK                         _______ _______ _______ _____ _____    ______ ____
ROOT
ATOM      3  N   UNL     1      11.575   7.233  20.570  0.00  0.00    -0.297 NA
ATOM      7  C   UNL     1      12.112   9.312  22.044  0.00  0.00    +0.002 C 
ATOM      8  C   UNL     1      12.894   7.058  21.234  0.00  0.00    +0.074 C 
ATOM      9  C   UNL     1      11.685   9.752  20.617  0.00  0.00    +0.055 C 
ATOM     10  C   UNL     1      13.323   8.361  21.943  0.00  0.00    +0.024 C 
ATOM     11  C   UNL     1      10.939   8.493  22.626  0.00  0.00    +0.019 C 
ATOM     12  C   UNL     1      11.579   8.467  19.746  0.00  0.00    +0.094 C 
ATOM     13  C   UNL     1      10.549   7.387  21.630  0.00  0.00    +0.085 C 
ENDROOT
BRANCH   9  15
ATOM      5  N   UNL     1      12.494  12.059  20.527  0.00  0.00    -0.237 NA
ATOM      6  N   UNL     1      13.916  12.854  18.751  0.00  0.00    -0.232 NA
ATOM     15  C   UNL     1      12.490  10.848  19.932  0.00  0.00    +0.050 A 
ATOM     20  C   UNL     1      13.166  10.567  18.762  0.00  0.00    +0.052 A 
ATOM     21  C   UNL     1      13.869  11.618  18.210  0.00  0.00    +0.081 A 
ATOM     22  C   UNL     1      13.216  13.002  19.891  0.00  0.00    +0.127 A 
ATOM     24  C   UNL     1      13.245  14.354  20.519  0.00  0.00    +0.088 C 
BRANCH  21  23
ATOM      1  S   UNL     1      14.162  10.233  15.890  0.00  0.00    -0.095 S 
ATOM     23  C   UNL     1      14.617  11.464  16.992  0.00  0.00    +0.038 A 
ATOM     25  C   UNL     1      15.701  12.186  16.541  0.00  0.00    +0.017 A 
ATOM     26  C   UNL     1      16.163  11.723  15.276  0.00  0.00    +0.008 A 
ATOM     27  C   UNL     1      15.415  10.666  14.806  0.00  0.00    +0.046 A 
ENDBRANCH  21  23
ENDBRANCH   9  15
BRANCH   8  14
ATOM     14  C   UNL     1      13.969   6.553  20.270  0.00  0.00    +0.123 C 
BRANCH  14   4
ATOM      2  O   UNL     1      16.563   6.219  19.000  0.00  0.00    -0.276 OA
ATOM      4  N   UNL     1      15.252   6.534  20.901  0.00  0.00    -0.314 N 
ATOM     19  C   UNL     1      16.447   6.368  20.211  0.00  0.00    +0.216 C 
ATOM     28  H   UNL     1      15.284   6.654  21.910  0.00  0.00    +0.149 HD
BRANCH  19  16
ATOM     16  C   UNL     1      17.667   6.383  21.072  0.00  0.00    +0.075 C 
ATOM     17  C   UNL     1      19.018   6.319  20.425  0.00  0.00    +0.013 C 
ATOM     18  C   UNL     1      18.553   7.594  21.063  0.00  0.00    +0.013 C 
ENDBRANCH  19  16
ENDBRANCH  14   4
ENDBRANCH   8  14
TORSDOF 5
ENDMDL
MODEL 2
REMARK VINA RESULT:      -6.6      2.778      4.614
REMARK  Name = 40780152
REMARK  6 active torsions:
REMARK  status: ('A' for Active; 'I' for Inactive)
REMARK    1  A    between atoms: N_4  and  C_14
REMARK    2  A    between atoms: C_8  and  C_14
REMARK    3  A    between atoms: C_9  and  C_15
REMARK    4  A    between atoms: C_16  and  C_19
REMARK    5  A    between atoms: C_21  and  C_23
REMARK    6  A    between atoms: C_22  and  C_24
REMARK                            x       y       z     vdW  Elec       q    Type
REMARK                         _______ _______ _______ _____ _____    ______ ____
ROOT
ATOM      3  N   UNL     1      12.079  11.818  24.287  0.00  0.00    -0.297 NA
ATOM      7  C   UNL     1      11.488  12.132  21.769  0.00  0.00    +0.002 C 
ATOM      8  C   UNL     1      13.260  12.337  23.548  0.00  0.00    +0.074 C 
ATOM      9  C   UNL     1      11.069  10.717  22.254  0.00  0.00    +0.055 C 
ATOM     10  C   UNL     1      12.996  12.333  22.027  0.00  0.00    +0.024 C 
ATOM     11  C   UNL     1      10.737  13.147  22.657  0.00  0.00    +0.019 C 
ATOM     12  C   UNL     1      11.631  10.533  23.693  0.00  0.00    +0.094 C 
ATOM     13  C   UNL     1      10.981  12.804  24.137  0.00  0.00    +0.085 C 
ENDROOT
BRANCH   9  15
ATOM      5  N   UNL     1      11.118   8.303  21.858  0.00  0.00    -0.237 NA
ATOM      6  N   UNL     1      11.921   7.357  19.792  0.00  0.00    -0.232 NA
ATOM     15  C   UNL     1      11.381   9.528  21.356  0.00  0.00    +0.050 A 
ATOM     20  C   UNL     1      11.906   9.744  20.098  0.00  0.00    +0.052 A 
ATOM     21  C   UNL     1      12.159   8.611  19.353  0.00  0.00    +0.081 A 
ATOM     22  C   UNL     1      11.409   7.277  21.035  0.00  0.00    +0.127 A 
ATOM     24  C   UNL     1      11.131   5.908  21.554  0.00  0.00    +0.088 C 
BRANCH  21  23
ATOM      1  S   UNL     1      14.137   7.819  17.666  0.00  0.00    -0.095 S 
ATOM     23  C   UNL     1      12.708   8.691  18.026  0.00  0.00    +0.038 A 
ATOM     25  C   UNL     1      12.244   9.396  16.936  0.00  0.00    +0.017 A 
ATOM     26  C   UNL     1      13.074   9.218  15.791  0.00  0.00    +0.008 A 
ATOM     27  C   UNL     1      14.138   8.382  16.049  0.00  0.00    +0.046 A 
ENDBRANCH  21  23
ENDBRANCH   9  15
BRANCH   8  14
ATOM     14  C   UNL     1      14.546  11.588  23.906  0.00  0.00    +0.123 C 
BRANCH  14   4
ATOM      2  O   UNL     1      14.599   8.968  22.646  0.00  0.00    -0.276 OA
ATOM      4  N   UNL     1      15.257  11.203  22.727  0.00  0.00    -0.314 N 
ATOM     19  C   UNL     1      15.224   9.920  22.192  0.00  0.00    +0.216 C 
ATOM     28  H   UNL     1      15.810  11.913  22.256  0.00  0.00    +0.149 HD
BRANCH  19  16
ATOM     16  C   UNL     1      16.041   9.743  20.956  0.00  0.00    +0.075 C 
ATOM     17  C   UNL     1      17.295  10.547  20.786  0.00  0.00    +0.013 C 
ATOM     18  C   UNL     1      17.381   9.074  21.054  0.00  0.00    +0.013 C 
ENDBRANCH  19  16
ENDBRANCH  14   4
ENDBRANCH   8  14
TORSDOF 5
ENDMDL
MODEL 3
REMARK VINA RESULT:      -6.4     25.933     28.880
REMARK  Name = 40780152
REMARK  6 active torsions:
REMARK  status: ('A' for Active; 'I' for Inactive)
REMARK    1  A    between atoms: N_4  and  C_14
REMARK    2  A    between atoms: C_8  and  C_14
REMARK    3  A    between atoms: C_9  and  C_15
REMARK    4  A    between atoms: C_16  and  C_19
REMARK    5  A    between atoms: C_21  and  C_23
REMARK    6  A    between atoms: C_22  and  C_24
REMARK                            x       y       z     vdW  Elec       q    Type
REMARK                         _______ _______ _______ _____ _____    ______ ____
ROOT
ATOM      3  N   UNL     1      -7.501 -11.649  17.772  0.00  0.00    -0.297 NA
ATOM      7  C   UNL     1      -5.006 -11.409  18.482  0.00  0.00    +0.002 C 
ATOM      8  C   UNL     1      -6.890 -12.993  17.947  0.00  0.00    +0.074 C 
ATOM      9  C   UNL     1      -5.306 -10.525  17.240  0.00  0.00    +0.055 C 
ATOM     10  C   UNL     1      -5.366 -12.875  18.163  0.00  0.00    +0.024 C 
ATOM     11  C   UNL     1      -5.961 -10.940  19.602  0.00  0.00    +0.019 C 
ATOM     12  C   UNL     1      -6.744 -10.874  16.758  0.00  0.00    +0.094 C 
ATOM     13  C   UNL     1      -7.404 -10.934  19.068  0.00  0.00    +0.085 C 
ENDROOT
BRANCH   9  15
ATOM      5  N   UNL     1      -2.995 -10.504  16.440  0.00  0.00    -0.237 NA
ATOM      6  N   UNL     1      -2.448 -10.523  14.093  0.00  0.00    -0.232 NA
ATOM     15  C   UNL     1      -4.300 -10.525  16.098  0.00  0.00    +0.050 A 
ATOM     20  C   UNL     1      -4.750 -10.546  14.794  0.00  0.00    +0.052 A 
ATOM     21  C   UNL     1      -3.770 -10.543  13.823  0.00  0.00    +0.081 A 
ATOM     22  C   UNL     1      -2.135 -10.503  15.403  0.00  0.00    +0.127 A 
ATOM     24  C   UNL     1      -0.683 -10.482  15.741  0.00  0.00    +0.088 C 
BRANCH  21  23
ATOM      1  S   UNL     1      -5.657 -10.050  11.931  0.00  0.00    -0.095 S 
ATOM     23  C   UNL     1      -4.098 -10.562  12.423  0.00  0.00    +0.038 A 
ATOM     25  C   UNL     1      -3.319 -10.947  11.353  0.00  0.00    +0.017 A 
ATOM     26  C   UNL     1      -4.011 -10.820  10.114  0.00  0.00    +0.008 A 
ATOM     27  C   UNL     1      -5.292 -10.342  10.283  0.00  0.00    +0.046 A 
ENDBRANCH  21  23
ENDBRANCH   9  15
BRANCH   8  14
ATOM     14  C   UNL     1      -7.231 -13.942  16.796  0.00  0.00    +0.123 C 
BRANCH  14   4
ATOM      2  O   UNL     1      -6.390 -13.545  14.041  0.00  0.00    -0.276 OA
ATOM      4  N   UNL     1      -6.042 -14.431  16.169  0.00  0.00    -0.314 N 
ATOM     19  C   UNL     1      -5.719 -14.190  14.838  0.00  0.00    +0.216 C 
ATOM     28  H   UNL     1      -5.400 -14.979  16.735  0.00  0.00    +0.149 HD
BRANCH  19  16
ATOM     16  C   UNL     1      -4.429 -14.795  14.395  0.00  0.00    +0.075 C 
ATOM     17  C   UNL     1      -3.745 -14.249  13.177  0.00  0.00    +0.013 C 
ATOM     18  C   UNL     1      -3.163 -14.002  14.537  0.00  0.00    +0.013 C 
ENDBRANCH  19  16
ENDBRANCH  14   4
ENDBRANCH   8  14
TORSDOF 5
ENDMDL
MODEL 4
REMARK VINA RESULT:      -6.4     27.764     29.023
REMARK  Name = 40780152
REMARK  6 active torsions:
REMARK  status: ('A' for Active; 'I' for Inactive)
REMARK    1  A    between atoms: N_4  and  C_14
REMARK    2  A    between atoms: C_8  and  C_14
REMARK    3  A    between atoms: C_9  and  C_15
REMARK    4  A    between atoms: C_16  and  C_19
REMARK    5  A    between atoms: C_21  and  C_23
REMARK    6  A    between atoms: C_22  and  C_24
REMARK                            x       y       z     vdW  Elec       q    Type
REMARK                         _______ _______ _______ _____ _____    ______ ____
ROOT
ATOM      3  N   UNL     1      -6.406 -10.399  17.550  0.00  0.00    -0.297 NA
ATOM      7  C   UNL     1      -4.518 -12.187  17.391  0.00  0.00    +0.002 C 
ATOM      8  C   UNL     1      -6.995 -11.738  17.286  0.00  0.00    +0.074 C 
ATOM      9  C   UNL     1      -4.190 -10.968  16.486  0.00  0.00    +0.055 C 
ATOM     10  C   UNL     1      -5.887 -12.770  16.984  0.00  0.00    +0.024 C 
ATOM     11  C   UNL     1      -4.665 -11.645  18.830  0.00  0.00    +0.019 C 
ATOM     12  C   UNL     1      -5.444 -10.046  16.476  0.00  0.00    +0.094 C 
ATOM     13  C   UNL     1      -5.662 -10.474  18.831  0.00  0.00    +0.085 C 
ENDROOT
BRANCH   9  15
ATOM      5  N   UNL     1      -2.782 -12.252  14.952  0.00  0.00    -0.237 NA
ATOM      6  N   UNL     1      -2.673 -11.763  12.595  0.00  0.00    -0.232 NA
ATOM     15  C   UNL     1      -3.659 -11.235  15.085  0.00  0.00    +0.050 A 
ATOM     20  C   UNL     1      -4.086 -10.449  14.034  0.00  0.00    +0.052 A 
ATOM     21  C   UNL     1      -3.555 -10.761  12.799  0.00  0.00    +0.081 A 
ATOM     22  C   UNL     1      -2.335 -12.457  13.698  0.00  0.00    +0.127 A 
ATOM     24  C   UNL     1      -1.364 -13.572  13.511  0.00  0.00    +0.088 C 
BRANCH  21  23
ATOM      1  S   UNL     1      -5.462  -9.299  11.531  0.00  0.00    -0.095 S 
ATOM     23  C   UNL     1      -3.912 -10.021  11.619  0.00  0.00    +0.038 A 
ATOM     25  C   UNL     1      -3.167  -9.787  10.484  0.00  0.00    +0.017 A 
ATOM     26  C   UNL     1      -3.879  -9.004   9.529  0.00  0.00    +0.008 A 
ATOM     27  C   UNL     1      -5.139  -8.669   9.971  0.00  0.00    +0.046 A 
ENDBRANCH  21  23
ENDBRANCH   9  15
BRANCH   8  14
ATOM     14  C   UNL     1      -8.056 -11.702  16.184  0.00  0.00    +0.123 C 
BRANCH  14   4
ATOM      2  O   UNL     1      -8.823  -9.337  14.677  0.00  0.00    -0.276 OA
ATOM      4  N   UNL     1      -9.088 -10.764  16.500  0.00  0.00    -0.314 N 
ATOM     19  C   UNL     1      -9.387  -9.655  15.717  0.00  0.00    +0.216 C 
ATOM     28  H   UNL     1      -9.632 -10.926  17.343  0.00  0.00    +0.149 HD
BRANCH  19  16
ATOM     16  C   UNL     1     -10.504  -8.813  16.237  0.00  0.00    +0.075 C 
ATOM     17  C   UNL     1     -10.850  -8.876  17.695  0.00  0.00    +0.013 C 
ATOM     18  C   UNL     1     -10.188  -7.652  17.134  0.00  0.00    +0.013 C 
ENDBRANCH  19  16
ENDBRANCH  14   4
ENDBRANCH   8  14
TORSDOF 5
ENDMDL
MODEL 5
REMARK VINA RESULT:      -6.3      3.623      6.884
REMARK  Name = 40780152
REMARK  6 active torsions:
REMARK  status: ('A' for Active; 'I' for Inactive)
REMARK    1  A    between atoms: N_4  and  C_14
REMARK    2  A    between atoms: C_8  and  C_14
REMARK    3  A    between atoms: C_9  and  C_15
REMARK    4  A    between atoms: C_16  and  C_19
REMARK    5  A    between atoms: C_21  and  C_23
REMARK    6  A    between atoms: C_22  and  C_24
REMARK                            x       y       z     vdW  Elec       q    Type
REMARK                         _______ _______ _______ _____ _____    ______ ____
ROOT
ATOM      3  N   UNL     1      11.731   9.009  21.903  0.00  0.00    -0.297 NA
ATOM      7  C   UNL     1      12.747   8.818  19.512  0.00  0.00    +0.002 C 
ATOM      8  C   UNL     1      12.098  10.358  21.398  0.00  0.00    +0.074 C 
ATOM      9  C   UNL     1      13.436   7.815  20.478  0.00  0.00    +0.055 C 
ATOM     10  C   UNL     1      12.889  10.247  20.076  0.00  0.00    +0.024 C 
ATOM     11  C   UNL     1      11.241   8.476  19.515  0.00  0.00    +0.019 C 
ATOM     12  C   UNL     1      12.924   8.126  21.914  0.00  0.00    +0.094 C 
ATOM     13  C   UNL     1      10.735   8.430  20.968  0.00  0.00    +0.085 C 
ENDROOT
BRANCH   9  15
ATOM      5  N   UNL     1      15.448   6.699  19.648  0.00  0.00    -0.237 NA
ATOM      6  N   UNL     1      17.663   7.410  20.279  0.00  0.00    -0.232 NA
ATOM     15  C   UNL     1      14.951   7.687  20.421  0.00  0.00    +0.050 A 
ATOM     20  C   UNL     1      15.736   8.565  21.142  0.00  0.00    +0.052 A 
ATOM     21  C   UNL     1      17.098   8.377  21.032  0.00  0.00    +0.081 A 
ATOM     22  C   UNL     1      16.793   6.618  19.624  0.00  0.00    +0.127 A 
ATOM     24  C   UNL     1      17.380   5.539  18.780  0.00  0.00    +0.088 C 
BRANCH  21  23
ATOM      1  S   UNL     1      19.439   8.514  22.406  0.00  0.00    -0.095 S 
ATOM     23  C   UNL     1      18.031   9.219  21.731  0.00  0.00    +0.038 A 
ATOM     25  C   UNL     1      17.973  10.577  21.959  0.00  0.00    +0.017 A 
ATOM     26  C   UNL     1      19.099  11.045  22.697  0.00  0.00    +0.008 A 
ATOM     27  C   UNL     1      19.975  10.027  23.004  0.00  0.00    +0.046 A 
ENDBRANCH  21  23
ENDBRANCH   9  15
BRANCH   8  14
ATOM     14  C   UNL     1      12.848  11.187  22.443  0.00  0.00    +0.123 C 
BRANCH  14   4
ATOM      2  O   UNL     1      11.207  11.137  24.842  0.00  0.00    -0.276 OA
ATOM      4  N   UNL     1      12.020  12.234  22.954  0.00  0.00    -0.314 N 
ATOM     19  C   UNL     1      11.265  12.122  24.115  0.00  0.00    +0.216 C 
ATOM     28  H   UNL     1      11.991  13.108  22.436  0.00  0.00    +0.149 HD
BRANCH  19  16
ATOM     16  C   UNL     1      10.476  13.341  24.462  0.00  0.00    +0.075 C 
ATOM     17  C   UNL     1      10.489  13.843  25.875  0.00  0.00    +0.013 C 
ATOM     18  C   UNL     1      11.202  14.610  24.801  0.00  0.00    +0.013 C 
ENDBRANCH  19  16
ENDBRANCH  14   4
ENDBRANCH   8  14
TORSDOF 5
ENDMDL
MODEL 6
REMARK VINA RESULT:      -6.3     25.952     29.224
REMARK  Name = 40780152
REMARK  6 active torsions:
REMARK  status: ('A' for Active; 'I' for Inactive)
REMARK    1  A    between atoms: N_4  and  C_14
REMARK    2  A    between atoms: C_8  and  C_14
REMARK    3  A    between atoms: C_9  and  C_15
REMARK    4  A    between atoms: C_16  and  C_19
REMARK    5  A    between atoms: C_21  and  C_23
REMARK    6  A    between atoms: C_22  and  C_24
REMARK                            x       y       z     vdW  Elec       q    Type
REMARK                         _______ _______ _______ _____ _____    ______ ____
ROOT
ATOM      3  N   UNL     1      -5.531 -11.037  10.417  0.00  0.00    -0.297 NA
ATOM      7  C   UNL     1      -3.184 -11.734  11.308  0.00  0.00    +0.002 C 
ATOM      8  C   UNL     1      -4.529  -9.991  10.082  0.00  0.00    +0.074 C 
ATOM      9  C   UNL     1      -4.253 -11.869  12.427  0.00  0.00    +0.055 C 
ATOM     10  C   UNL     1      -3.182 -10.285  10.778  0.00  0.00    +0.024 C 
ATOM     11  C   UNL     1      -3.640 -12.642  10.145  0.00  0.00    +0.019 C 
ATOM     12  C   UNL     1      -5.574 -11.249  11.886  0.00  0.00    +0.094 C 
ATOM     13  C   UNL     1      -5.096 -12.304   9.779  0.00  0.00    +0.085 C 
ENDROOT
BRANCH   9  15
ATOM      5  N   UNL     1      -2.610 -11.061  14.048  0.00  0.00    -0.237 NA
ATOM      6  N   UNL     1      -3.220 -10.444  16.296  0.00  0.00    -0.232 NA
ATOM     15  C   UNL     1      -3.905 -11.361  13.819  0.00  0.00    +0.050 A 
ATOM     20  C   UNL     1      -4.902 -11.229  14.764  0.00  0.00    +0.052 A 
ATOM     21  C   UNL     1      -4.497 -10.762  15.998  0.00  0.00    +0.081 A 
ATOM     22  C   UNL     1      -2.341 -10.615  15.291  0.00  0.00    +0.127 A 
ATOM     24  C   UNL     1      -0.920 -10.272  15.583  0.00  0.00    +0.088 C 
BRANCH  21  23
ATOM      1  S   UNL     1      -7.040 -10.115  16.708  0.00  0.00    -0.095 S 
ATOM     23  C   UNL     1      -5.432 -10.579  17.075  0.00  0.00    +0.038 A 
ATOM     25  C   UNL     1      -5.233 -10.724  18.431  0.00  0.00    +0.017 A 
ATOM     26  C   UNL     1      -6.415 -10.451  19.178  0.00  0.00    +0.008 A 
ATOM     27  C   UNL     1      -7.473 -10.109  18.365  0.00  0.00    +0.046 A 
ENDBRANCH  21  23
ENDBRANCH   9  15
BRANCH   8  14
ATOM     14  C   UNL     1      -5.034  -8.580  10.390  0.00  0.00    +0.123 C 
BRANCH  14   4
ATOM      2  O   UNL     1      -7.928  -8.635  10.127  0.00  0.00    -0.276 OA
ATOM      4  N   UNL     1      -5.820  -8.072   9.310  0.00  0.00    -0.314 N 
ATOM     19  C   UNL     1      -7.208  -8.142   9.268  0.00  0.00    +0.216 C 
ATOM     28  H   UNL     1      -5.330  -7.632   8.536  0.00  0.00    +0.149 HD
BRANCH  19  16
ATOM     16  C   UNL     1      -7.821  -7.546   8.045  0.00  0.00    +0.075 C 
ATOM     17  C   UNL     1      -9.270  -7.161   8.067  0.00  0.00    +0.013 C 
ATOM     18  C   UNL     1      -8.213  -6.097   8.054  0.00  0.00    +0.013 C 
ENDBRANCH  19  16
ENDBRANCH  14   4
ENDBRANCH   8  14
TORSDOF 5
ENDMDL
MODEL 7
REMARK VINA RESULT:      -6.3     13.314     16.271
REMARK  Name = 40780152
REMARK  6 active torsions:
REMARK  status: ('A' for Active; 'I' for Inactive)
REMARK    1  A    between atoms: N_4  and  C_14
REMARK    2  A    between atoms: C_8  and  C_14
REMARK    3  A    between atoms: C_9  and  C_15
REMARK    4  A    between atoms: C_16  and  C_19
REMARK    5  A    between atoms: C_21  and  C_23
REMARK    6  A    between atoms: C_22  and  C_24
REMARK                            x       y       z     vdW  Elec       q    Type
REMARK                         _______ _______ _______ _____ _____    ______ ____
ROOT
ATOM      3  N   UNL     1      10.461   5.597   7.722  0.00  0.00    -0.297 NA
ATOM      7  C   UNL     1       9.419   7.622   6.457  0.00  0.00    +0.002 C 
ATOM      8  C   UNL     1      11.411   6.741   7.724  0.00  0.00    +0.074 C 
ATOM      9  C   UNL     1       9.306   6.329   5.602  0.00  0.00    +0.055 C 
ATOM     10  C   UNL     1      10.901   7.873   6.806  0.00  0.00    +0.024 C 
ATOM     11  C   UNL     1       8.681   7.343   7.784  0.00  0.00    +0.019 C 
ATOM     12  C   UNL     1      10.121   5.220   6.327  0.00  0.00    +0.094 C 
ATOM     13  C   UNL     1       9.217   6.039   8.399  0.00  0.00    +0.085 C 
ENDROOT
BRANCH   9  15
ATOM      5  N   UNL     1       9.069   7.423   3.427  0.00  0.00    -0.237 NA
ATOM      6  N   UNL     1      10.204   6.623   1.458  0.00  0.00    -0.232 NA
ATOM     15  C   UNL     1       9.641   6.416   4.120  0.00  0.00    +0.050 A 
ATOM     20  C   UNL     1      10.494   5.487   3.560  0.00  0.00    +0.052 A 
ATOM     21  C   UNL     1      10.742   5.641   2.211  0.00  0.00    +0.081 A 
ATOM     22  C   UNL     1       9.389   7.466   2.119  0.00  0.00    +0.127 A 
ATOM     24  C   UNL     1       8.777   8.565   1.320  0.00  0.00    +0.088 C 
BRANCH  21  23
ATOM      1  S   UNL     1      11.293   4.415  -0.151  0.00  0.00    -0.095 S 
ATOM     23  C   UNL     1      11.611   4.742   1.500  0.00  0.00    +0.038 A 
ATOM     25  C   UNL     1      12.719   4.063   1.957  0.00  0.00    +0.017 A 
ATOM     26  C   UNL     1      13.315   3.264   0.939  0.00  0.00    +0.008 A 
ATOM     27  C   UNL     1      12.640   3.363  -0.258  0.00  0.00    +0.046 A 
ENDBRANCH  21  23
ENDBRANCH   9  15
BRANCH   8  14
ATOM     14  C   UNL     1      12.836   6.316   7.366  0.00  0.00    +0.123 C 
BRANCH  14   4
ATOM      2  O   UNL     1      15.278   7.614   6.468  0.00  0.00    -0.276 OA
ATOM      4  N   UNL     1      13.170   6.719   6.035  0.00  0.00    -0.314 N 
ATOM     19  C   UNL     1      14.368   7.337   5.695  0.00  0.00    +0.216 C 
ATOM     28  H   UNL     1      12.491   6.535   5.302  0.00  0.00    +0.149 HD
BRANCH  19  16
ATOM     16  C   UNL     1      14.505   7.668   4.247  0.00  0.00    +0.075 C 
ATOM     17  C   UNL     1      13.278   8.014   3.457  0.00  0.00    +0.013 C 
ATOM     18  C   UNL     1      14.277   9.081   3.796  0.00  0.00    +0.013 C 
ENDBRANCH  19  16
ENDBRANCH  14   4
ENDBRANCH   8  14
TORSDOF 5
ENDMDL
MODEL 8
REMARK VINA RESULT:      -6.2     26.653     29.790
REMARK  Name = 40780152
REMARK  6 active torsions:
REMARK  status: ('A' for Active; 'I' for Inactive)
REMARK    1  A    between atoms: N_4  and  C_14
REMARK    2  A    between atoms: C_8  and  C_14
REMARK    3  A    between atoms: C_9  and  C_15
REMARK    4  A    between atoms: C_16  and  C_19
REMARK    5  A    between atoms: C_21  and  C_23
REMARK    6  A    between atoms: C_22  and  C_24
REMARK                            x       y       z     vdW  Elec       q    Type
REMARK                         _______ _______ _______ _____ _____    ______ ____
ROOT
ATOM      3  N   UNL     1     -10.593 -10.761  16.801  0.00  0.00    -0.297 NA
ATOM      7  C   UNL     1      -8.610  -9.581  15.594  0.00  0.00    +0.002 C 
ATOM      8  C   UNL     1      -9.905  -9.836  17.740  0.00  0.00    +0.074 C 
ATOM      9  C   UNL     1      -8.547 -11.117  15.370  0.00  0.00    +0.055 C 
ATOM     10  C   UNL     1      -8.608  -9.286  17.109  0.00  0.00    +0.024 C 
ATOM     11  C   UNL     1      -9.971  -9.106  15.041  0.00  0.00    +0.019 C 
ATOM     12  C   UNL     1      -9.633 -11.764  16.278  0.00  0.00    +0.094 C 
ATOM     13  C   UNL     1     -11.094  -9.959  15.658  0.00  0.00    +0.085 C 
ENDROOT
BRANCH   9  15
ATOM      5  N   UNL     1      -7.213 -13.103  15.880  0.00  0.00    -0.237 NA
ATOM      6  N   UNL     1      -4.807 -13.100  15.758  0.00  0.00    -0.232 NA
ATOM     15  C   UNL     1      -7.197 -11.808  15.503  0.00  0.00    +0.050 A 
ATOM     20  C   UNL     1      -6.042 -11.101  15.238  0.00  0.00    +0.052 A 
ATOM     21  C   UNL     1      -4.864 -11.804  15.384  0.00  0.00    +0.081 A 
ATOM     22  C   UNL     1      -6.000 -13.679  15.987  0.00  0.00    +0.127 A 
ATOM     24  C   UNL     1      -5.977 -15.111  16.402  0.00  0.00    +0.088 C 
BRANCH  21  23
ATOM      1  S   UNL     1      -3.168 -10.751  13.539  0.00  0.00    -0.095 S 
ATOM     23  C   UNL     1      -3.587 -11.189  15.141  0.00  0.00    +0.038 A 
ATOM     25  C   UNL     1      -2.589 -10.879  16.040  0.00  0.00    +0.017 A 
ATOM     26  C   UNL     1      -1.466 -10.273  15.404  0.00  0.00    +0.008 A 
ATOM     27  C   UNL     1      -1.649 -10.142  14.045  0.00  0.00    +0.046 A 
ENDBRANCH  21  23
ENDBRANCH   9  15
BRANCH   8  14
ATOM     14  C   UNL     1      -9.648 -10.476  19.105  0.00  0.00    +0.123 C 
BRANCH  14   4
ATOM      2  O   UNL     1      -7.802 -12.720  19.189  0.00  0.00    -0.276 OA
ATOM      4  N   UNL     1      -8.256 -10.447  19.429  0.00  0.00    -0.314 N 
ATOM     19  C   UNL     1      -7.445 -11.576  19.444  0.00  0.00    +0.216 C 
ATOM     28  H   UNL     1      -7.842  -9.547  19.654  0.00  0.00    +0.149 HD
BRANCH  19  16
ATOM     16  C   UNL     1      -6.022 -11.312  19.808  0.00  0.00    +0.075 C 
ATOM     17  C   UNL     1      -4.943 -12.158  19.201  0.00  0.00    +0.013 C 
ATOM     18  C   UNL     1      -5.100 -10.727  18.778  0.00  0.00    +0.013 C 
ENDBRANCH  19  16
ENDBRANCH  14   4
ENDBRANCH   8  14
TORSDOF 5
ENDMDL
MODEL 9
REMARK VINA RESULT:      -6.0     12.929     16.229
REMARK  Name = 40780152
REMARK  6 active torsions:
REMARK  status: ('A' for Active; 'I' for Inactive)
REMARK    1  A    between atoms: N_4  and  C_14
REMARK    2  A    between atoms: C_8  and  C_14
REMARK    3  A    between atoms: C_9  and  C_15
REMARK    4  A    between atoms: C_16  and  C_19
REMARK    5  A    between atoms: C_21  and  C_23
REMARK    6  A    between atoms: C_22  and  C_24
REMARK                            x       y       z     vdW  Elec       q    Type
REMARK                         _______ _______ _______ _____ _____    ______ ____
ROOT
ATOM      3  N   UNL     1      18.179  -3.057  22.947  0.00  0.00    -0.297 NA
ATOM      7  C   UNL     1      16.815  -1.918  24.852  0.00  0.00    +0.002 C 
ATOM      8  C   UNL     1      16.983  -3.876  23.275  0.00  0.00    +0.074 C 
ATOM      9  C   UNL     1      18.316  -2.016  25.241  0.00  0.00    +0.055 C 
ATOM     10  C   UNL     1      16.278  -3.329  24.536  0.00  0.00    +0.024 C 
ATOM     11  C   UNL     1      16.748  -1.102  23.542  0.00  0.00    +0.019 C 
ATOM     12  C   UNL     1      19.022  -2.880  24.155  0.00  0.00    +0.094 C 
ATOM     13  C   UNL     1      17.708  -1.720  22.511  0.00  0.00    +0.085 C 
ENDROOT
BRANCH   9  15
ATOM      5  N   UNL     1      19.949  -2.813  26.879  0.00  0.00    -0.237 NA
ATOM      6  N   UNL     1      19.350  -3.280  29.165  0.00  0.00    -0.232 NA
ATOM     15  C   UNL     1      18.665  -2.466  26.652  0.00  0.00    +0.050 A 
ATOM     20  C   UNL     1      17.680  -2.498  27.619  0.00  0.00    +0.052 A 
ATOM     21  C   UNL     1      18.084  -2.918  28.870  0.00  0.00    +0.081 A 
ATOM     22  C   UNL     1      20.218  -3.205  28.139  0.00  0.00    +0.127 A 
ATOM     24  C   UNL     1      21.627  -3.596  28.429  0.00  0.00    +0.088 C 
BRANCH  21  23
ATOM      1  S   UNL     1      17.077  -1.701  31.081  0.00  0.00    -0.095 S 
ATOM     23  C   UNL     1      17.160  -3.001  29.969  0.00  0.00    +0.038 A 
ATOM     25  C   UNL     1      16.283  -4.014  30.290  0.00  0.00    +0.017 A 
ATOM     26  C   UNL     1      15.532  -3.718  31.465  0.00  0.00    +0.008 A 
ATOM     27  C   UNL     1      15.864  -2.491  31.996  0.00  0.00    +0.046 A 
ENDBRANCH  21  23
ENDBRANCH   9  15
BRANCH   8  14
ATOM     14  C   UNL     1      17.313  -5.364  23.408  0.00  0.00    +0.123 C 
BRANCH  14   4
ATOM      2  O   UNL     1      19.972  -6.537  23.502  0.00  0.00    -0.276 OA
ATOM      4  N   UNL     1      18.108  -5.810  22.306  0.00  0.00    -0.314 N 
ATOM     19  C   UNL     1      19.377  -6.362  22.445  0.00  0.00    +0.216 C 
ATOM     28  H   UNL     1      17.715  -5.721  21.373  0.00  0.00    +0.149 HD
BRANCH  19  16
ATOM     16  C   UNL     1      20.023  -6.760  21.160  0.00  0.00    +0.075 C 
ATOM     17  C   UNL     1      19.192  -6.829  19.914  0.00  0.00    +0.013 C 
ATOM     18  C   UNL     1      20.200  -5.731  20.082  0.00  0.00    +0.013 C 
ENDBRANCH  19  16
ENDBRANCH  14   4
ENDBRANCH   8  14
TORSDOF 5
ENDMDL
MODEL 10
REMARK VINA RESULT:      -6.0     27.536     31.250
REMARK  Name = 40780152
REMARK  6 active torsions:
REMARK  status: ('A' for Active; 'I' for Inactive)
REMARK    1  A    between atoms: N_4  and  C_14
REMARK    2  A    between atoms: C_8  and  C_14
REMARK    3  A    between atoms: C_9  and  C_15
REMARK    4  A    between atoms: C_16  and  C_19
REMARK    5  A    between atoms: C_21  and  C_23
REMARK    6  A    between atoms: C_22  and  C_24
REMARK                            x       y       z     vdW  Elec       q    Type
REMARK                         _______ _______ _______ _____ _____    ______ ____
ROOT
ATOM      3  N   UNL     1     -17.597   4.917  23.045  0.00  0.00    -0.297 NA
ATOM      7  C   UNL     1     -16.454   2.973  24.349  0.00  0.00    +0.002 C 
ATOM      8  C   UNL     1     -16.124   4.972  22.852  0.00  0.00    +0.074 C 
ATOM      9  C   UNL     1     -17.439   3.741  25.272  0.00  0.00    +0.055 C 
ATOM     10  C   UNL     1     -15.415   3.961  23.779  0.00  0.00    +0.024 C 
ATOM     11  C   UNL     1     -17.281   2.445  23.157  0.00  0.00    +0.019 C 
ATOM     12  C   UNL     1     -17.924   4.997  24.491  0.00  0.00    +0.094 C 
ATOM     13  C   UNL     1     -18.073   3.608  22.535  0.00  0.00    +0.085 C 
ENDROOT
BRANCH   9  15
ATOM      5  N   UNL     1     -17.348   5.287  27.165  0.00  0.00    -0.237 NA
ATOM      6  N   UNL     1     -16.200   4.744  29.213  0.00  0.00    -0.232 NA
ATOM     15  C   UNL     1     -16.985   4.080  26.685  0.00  0.00    +0.050 A 
ATOM     20  C   UNL     1     -16.241   3.163  27.398  0.00  0.00    +0.052 A 
ATOM     21  C   UNL     1     -15.872   3.552  28.670  0.00  0.00    +0.081 A 
ATOM     22  C   UNL     1     -16.927   5.551  28.417  0.00  0.00    +0.127 A 
ATOM     24  C   UNL     1     -17.310   6.875  28.984  0.00  0.00    +0.088 C 
BRANCH  21  23
ATOM      1  S   UNL     1     -15.340   1.002  29.442  0.00  0.00    -0.095 S 
ATOM     23  C   UNL     1     -15.093   2.695  29.522  0.00  0.00    +0.038 A 
ATOM     25  C   UNL     1     -14.127   3.033  30.444  0.00  0.00    +0.017 A 
ATOM     26  C   UNL     1     -13.582   1.888  31.094  0.00  0.00    +0.008 A 
ATOM     27  C   UNL     1     -14.152   0.718  30.642  0.00  0.00    +0.046 A 
ENDBRANCH  21  23
ENDBRANCH   9  15
BRANCH   8  14
ATOM     14  C   UNL     1     -15.567   6.387  23.021  0.00  0.00    +0.123 C 
BRANCH  14   4
ATOM      2  O   UNL     1     -14.606   6.931  20.331  0.00  0.00    -0.276 OA
ATOM      4  N   UNL     1     -14.209   6.457  22.578  0.00  0.00    -0.314 N 
ATOM     19  C   UNL     1     -13.840   6.725  21.265  0.00  0.00    +0.216 C 
ATOM     28  H   UNL     1     -13.479   6.308  23.269  0.00  0.00    +0.149 HD
BRANCH  19  16
ATOM     16  C   UNL     1     -12.367   6.752  21.028  0.00  0.00    +0.075 C 
ATOM     17  C   UNL     1     -11.854   6.973  19.636  0.00  0.00    +0.013 C 
ATOM     18  C   UNL     1     -11.708   8.052  20.668  0.00  0.00    +0.013 C 
ENDBRANCH  19  16
ENDBRANCH  14   4
ENDBRANCH   8  14
TORSDOF 5
ENDMDL
