MODEL 1
REMARK VINA RESULT:      -7.3      0.000      0.000
REMARK  Name = 40778224
REMARK  14 active torsions:
REMARK  status: ('A' for Active; 'I' for Inactive)
REMARK    1  A    between atoms: O_2  and  C_13
REMARK    2  A    between atoms: O_3  and  C_14
REMARK    3  A    between atoms: O_5  and  C_26
REMARK    4  A    between atoms: O_5  and  C_35
REMARK    5  A    between atoms: N_7  and  C_17
REMARK    6  A    between atoms: N_8  and  C_24
REMARK    7  A    between atoms: N_11  and  C_27
REMARK    8  A    between atoms: N_11  and  C_32
REMARK    9  A    between atoms: N_11  and  C_33
REMARK   10  A    between atoms: C_12  and  C_16
REMARK   11  A    between atoms: C_15  and  C_17
REMARK   12  A    between atoms: C_16  and  C_18
REMARK   13  A    between atoms: C_25  and  C_27
REMARK   14  A    between atoms: C_32  and  C_34
REMARK                            x       y       z     vdW  Elec       q    Type
REMARK                         _______ _______ _______ _____ _____    ______ ____
ROOT
ATOM      1  O   UNL     1      -7.054 -11.986  17.484  0.00  0.00    -0.366 OA
ATOM     12  C   UNL     1      -6.242 -12.325  18.622  0.00  0.00    +0.159 C 
ATOM     13  C   UNL     1      -6.257 -11.097  19.517  0.00  0.00    +0.175 C 
ATOM     14  C   UNL     1      -7.666 -10.583  19.304  0.00  0.00    +0.176 C 
ATOM     15  C   UNL     1      -7.880 -10.846  17.817  0.00  0.00    +0.171 C 
ENDROOT
BRANCH  13   2
ATOM      2  O   UNL     1      -5.975 -11.418  20.861  0.00  0.00    -0.387 OA
ATOM     41  H   UNL     1      -5.018 -11.307  20.992  0.00  0.00    +0.210 HD
ENDBRANCH  13   2
BRANCH  14   3
ATOM      3  O   UNL     1      -8.599 -11.379  20.034  0.00  0.00    -0.387 OA
ATOM     42  H   UNL     1      -9.483 -11.002  19.886  0.00  0.00    +0.210 HD
ENDBRANCH  14   3
BRANCH  12  16
ATOM     16  C   UNL     1      -4.851 -12.717  18.159  0.00  0.00    +0.130 C 
BRANCH  16  18
ATOM      4  O   UNL     1      -5.558 -14.480  16.743  0.00  0.00    -0.276 OA
ATOM      6  N   UNL     1      -4.276 -12.810  15.762  0.00  0.00    -0.298 N 
ATOM      8  N   UNL     1      -4.115 -11.181  13.464  0.00  0.00    -0.324 N 
ATOM     18  C   UNL     1      -4.931 -13.421  16.828  0.00  0.00    +0.218 C 
ATOM     19  C   UNL     1      -3.522 -11.557  15.824  0.00  0.00    +0.126 C 
ATOM     20  C   UNL     1      -4.280 -13.435  14.441  0.00  0.00    +0.126 C 
ATOM     21  C   UNL     1      -4.049 -10.559  14.793  0.00  0.00    +0.124 C 
ATOM     22  C   UNL     1      -4.823 -12.469  13.389  0.00  0.00    +0.124 C 
BRANCH   8  24
ATOM     24  C   UNL     1      -4.116 -10.373  12.322  0.00  0.00    +0.072 A 
ATOM     26  C   UNL     1      -5.260  -9.668  11.951  0.00  0.00    +0.141 A 
ATOM     28  C   UNL     1      -2.956 -10.276  11.551  0.00  0.00    +0.027 A 
ATOM     29  C   UNL     1      -5.247  -8.866  10.809  0.00  0.00    +0.047 A 
ATOM     30  C   UNL     1      -2.943  -9.473  10.410  0.00  0.00    +0.002 A 
ATOM     31  C   UNL     1      -4.088  -8.769  10.039  0.00  0.00    +0.004 A 
BRANCH  26   5
ATOM      5  O   UNL     1      -6.403  -9.749  12.689  0.00  0.00    -0.493 OA
ATOM     35  C   UNL     1      -7.638  -9.733  11.976  0.00  0.00    +0.277 C 
ENDBRANCH  26   5
ENDBRANCH   8  24
ENDBRANCH  16  18
ENDBRANCH  12  16
BRANCH  15  17
ATOM     17  C   UNL     1      -7.446  -9.683  16.937  0.00  0.00    +0.179 C 
BRANCH  17   7
ATOM      7  N   UNL     1      -8.627  -8.933  16.380  0.00  0.00    -0.249 N 
ATOM      9  N   UNL     1      -9.042  -9.143  15.121  0.00  0.00    -0.065 NA
ATOM     10  N   UNL     1     -10.085  -8.348  14.910  0.00  0.00    -0.133 NA
ATOM     23  C   UNL     1      -9.390  -7.999  17.010  0.00  0.00    +0.135 A 
ATOM     25  C   UNL     1     -10.311  -7.640  16.058  0.00  0.00    +0.097 A 
BRANCH  25  27
ATOM     27  C   UNL     1     -11.404  -6.665  16.149  0.00  0.00    +0.143 C 
BRANCH  27  11
ATOM     11  N   UNL     1     -12.533  -6.971  15.253  0.00  0.00    -0.295 NA
ATOM     33  C   UNL     1     -13.502  -7.818  15.939  0.00  0.00    +0.105 C 
BRANCH  11  32
ATOM     32  C   UNL     1     -13.156  -5.736  14.791  0.00  0.00    +0.119 C 
BRANCH  32  34
ATOM     34  C   UNL     1     -12.764  -5.404  13.376  0.00  0.00    -0.033 A 
ATOM     36  C   UNL     1     -12.626  -6.423  12.434  0.00  0.00    +0.005 A 
ATOM     37  C   UNL     1     -12.538  -4.078  13.008  0.00  0.00    +0.005 A 
ATOM     38  C   UNL     1     -12.262  -6.117  11.123  0.00  0.00    +0.000 A 
ATOM     39  C   UNL     1     -12.173  -3.771  11.696  0.00  0.00    +0.000 A 
ATOM     40  C   UNL     1     -12.036  -4.791  10.755  0.00  0.00    +0.000 A 
ENDBRANCH  32  34
ENDBRANCH  11  32
ENDBRANCH  27  11
ENDBRANCH  25  27
ENDBRANCH  17   7
ENDBRANCH  15  17
TORSDOF 12
ENDMDL
MODEL 2
REMARK VINA RESULT:      -7.2      2.338      8.430
REMARK  Name = 40778224
REMARK  14 active torsions:
REMARK  status: ('A' for Active; 'I' for Inactive)
REMARK    1  A    between atoms: O_2  and  C_13
REMARK    2  A    between atoms: O_3  and  C_14
REMARK    3  A    between atoms: O_5  and  C_26
REMARK    4  A    between atoms: O_5  and  C_35
REMARK    5  A    between atoms: N_7  and  C_17
REMARK    6  A    between atoms: N_8  and  C_24
REMARK    7  A    between atoms: N_11  and  C_27
REMARK    8  A    between atoms: N_11  and  C_32
REMARK    9  A    between atoms: N_11  and  C_33
REMARK   10  A    between atoms: C_12  and  C_16
REMARK   11  A    between atoms: C_15  and  C_17
REMARK   12  A    between atoms: C_16  and  C_18
REMARK   13  A    between atoms: C_25  and  C_27
REMARK   14  A    between atoms: C_32  and  C_34
REMARK                            x       y       z     vdW  Elec       q    Type
REMARK                         _______ _______ _______ _____ _____    ______ ____
ROOT
ATOM      1  O   UNL     1      -8.774  -9.275  17.576  0.00  0.00    -0.366 OA
ATOM     12  C   UNL     1      -9.740  -9.493  18.619  0.00  0.00    +0.159 C 
ATOM     13  C   UNL     1      -9.477 -10.897  19.135  0.00  0.00    +0.175 C 
ATOM     14  C   UNL     1      -7.970 -10.988  19.017  0.00  0.00    +0.176 C 
ATOM     15  C   UNL     1      -7.708 -10.244  17.712  0.00  0.00    +0.171 C 
ENDROOT
BRANCH  13   2
ATOM      2  O   UNL     1      -9.947 -11.074  20.454  0.00  0.00    -0.387 OA
ATOM     41  H   UNL     1      -9.181 -11.303  21.008  0.00  0.00    +0.210 HD
ENDBRANCH  13   2
BRANCH  14   3
ATOM      3  O   UNL     1      -7.346 -10.262  20.074  0.00  0.00    -0.387 OA
ATOM     42  H   UNL     1      -6.400 -10.189  19.860  0.00  0.00    +0.210 HD
ENDBRANCH  14   3
BRANCH  12  16
ATOM     16  C   UNL     1     -11.141  -9.305  18.067  0.00  0.00    +0.130 C 
BRANCH  16  18
ATOM      4  O   UNL     1     -11.145 -10.617  16.095  0.00  0.00    -0.276 OA
ATOM      6  N   UNL     1     -11.108  -8.313  15.808  0.00  0.00    -0.298 N 
ATOM      8  N   UNL     1     -12.266  -6.235  14.291  0.00  0.00    -0.324 N 
ATOM     18  C   UNL     1     -11.131  -9.479  16.570  0.00  0.00    +0.218 C 
ATOM     19  C   UNL     1     -11.091  -6.947  16.335  0.00  0.00    +0.126 C 
ATOM     20  C   UNL     1     -11.072  -8.388  14.350  0.00  0.00    +0.126 C 
ATOM     21  C   UNL     1     -12.247  -6.131  15.756  0.00  0.00    +0.124 C 
ATOM     22  C   UNL     1     -12.231  -7.599  13.741  0.00  0.00    +0.124 C 
BRANCH   8  24
ATOM     24  C   UNL     1     -12.909  -5.247  13.537  0.00  0.00    +0.072 A 
ATOM     26  C   UNL     1     -14.296  -5.111  13.579  0.00  0.00    +0.141 A 
ATOM     28  C   UNL     1     -12.148  -4.394  12.737  0.00  0.00    +0.027 A 
ATOM     29  C   UNL     1     -14.923  -4.121  12.821  0.00  0.00    +0.047 A 
ATOM     30  C   UNL     1     -12.775  -3.404  11.980  0.00  0.00    +0.002 A 
ATOM     31  C   UNL     1     -14.162  -3.268  12.022  0.00  0.00    +0.004 A 
BRANCH  26   5
ATOM      5  O   UNL     1     -15.058  -5.934  14.353  0.00  0.00    -0.493 OA
ATOM     35  C   UNL     1     -15.932  -6.834  13.676  0.00  0.00    +0.277 C 
ENDBRANCH  26   5
ENDBRANCH   8  24
ENDBRANCH  16  18
ENDBRANCH  12  16
BRANCH  15  17
ATOM     17  C   UNL     1      -7.743 -11.151  16.490  0.00  0.00    +0.179 C 
BRANCH  17   7
ATOM      7  N   UNL     1      -6.361 -11.569  16.064  0.00  0.00    -0.249 N 
ATOM      9  N   UNL     1      -6.154 -12.759  15.480  0.00  0.00    -0.065 NA
ATOM     10  N   UNL     1      -4.853 -12.853  15.224  0.00  0.00    -0.133 NA
ATOM     23  C   UNL     1      -5.202 -10.867  16.198  0.00  0.00    +0.135 A 
ATOM     25  C   UNL     1      -4.257 -11.701  15.658  0.00  0.00    +0.097 A 
BRANCH  25  27
ATOM     27  C   UNL     1      -2.811 -11.494  15.518  0.00  0.00    +0.143 C 
BRANCH  27  11
ATOM     11  N   UNL     1      -2.463 -10.485  14.502  0.00  0.00    -0.295 NA
ATOM     33  C   UNL     1      -1.218  -9.818  14.862  0.00  0.00    +0.105 C 
BRANCH  11  32
ATOM     32  C   UNL     1      -2.356 -11.112  13.189  0.00  0.00    +0.119 C 
BRANCH  32  34
ATOM     34  C   UNL     1      -3.159 -10.377  12.149  0.00  0.00    -0.033 A 
ATOM     36  C   UNL     1      -4.539 -10.243  12.300  0.00  0.00    +0.005 A 
ATOM     37  C   UNL     1      -2.523  -9.832  11.034  0.00  0.00    +0.005 A 
ATOM     38  C   UNL     1      -5.283  -9.562  11.337  0.00  0.00    +0.000 A 
ATOM     39  C   UNL     1      -3.267  -9.151  10.070  0.00  0.00    +0.000 A 
ATOM     40  C   UNL     1      -4.647  -9.017  10.222  0.00  0.00    +0.000 A 
ENDBRANCH  32  34
ENDBRANCH  11  32
ENDBRANCH  27  11
ENDBRANCH  25  27
ENDBRANCH  17   7
ENDBRANCH  15  17
TORSDOF 12
ENDMDL
MODEL 3
REMARK VINA RESULT:      -7.1     25.572     28.547
REMARK  Name = 40778224
REMARK  14 active torsions:
REMARK  status: ('A' for Active; 'I' for Inactive)
REMARK    1  A    between atoms: O_2  and  C_13
REMARK    2  A    between atoms: O_3  and  C_14
REMARK    3  A    between atoms: O_5  and  C_26
REMARK    4  A    between atoms: O_5  and  C_35
REMARK    5  A    between atoms: N_7  and  C_17
REMARK    6  A    between atoms: N_8  and  C_24
REMARK    7  A    between atoms: N_11  and  C_27
REMARK    8  A    between atoms: N_11  and  C_32
REMARK    9  A    between atoms: N_11  and  C_33
REMARK   10  A    between atoms: C_12  and  C_16
REMARK   11  A    between atoms: C_15  and  C_17
REMARK   12  A    between atoms: C_16  and  C_18
REMARK   13  A    between atoms: C_25  and  C_27
REMARK   14  A    between atoms: C_32  and  C_34
REMARK                            x       y       z     vdW  Elec       q    Type
REMARK                         _______ _______ _______ _____ _____    ______ ____
ROOT
ATOM      1  O   UNL     1      11.821  11.679  12.676  0.00  0.00    -0.366 OA
ATOM     12  C   UNL     1      12.471  12.400  13.738  0.00  0.00    +0.159 C 
ATOM     13  C   UNL     1      12.286  13.872  13.408  0.00  0.00    +0.175 C 
ATOM     14  C   UNL     1      10.906  13.872  12.784  0.00  0.00    +0.176 C 
ATOM     15  C   UNL     1      10.918  12.573  11.985  0.00  0.00    +0.171 C 
ENDROOT
BRANCH  13   2
ATOM      2  O   UNL     1      12.382  14.687  14.556  0.00  0.00    -0.387 OA
ATOM     41  H   UNL     1      13.291  14.610  14.893  0.00  0.00    +0.210 HD
ENDBRANCH  13   2
BRANCH  14   3
ATOM      3  O   UNL     1       9.905  13.761  13.796  0.00  0.00    -0.387 OA
ATOM     42  H   UNL     1       9.384  12.963  13.604  0.00  0.00    +0.210 HD
ENDBRANCH  14   3
BRANCH  12  16
ATOM     16  C   UNL     1      13.927  11.980  13.824  0.00  0.00    +0.130 C 
BRANCH  16  18
ATOM      4  O   UNL     1      14.848  13.285  15.574  0.00  0.00    -0.276 OA
ATOM      6  N   UNL     1      14.404  11.059  16.063  0.00  0.00    -0.298 N 
ATOM      8  N   UNL     1      13.292   9.390  18.047  0.00  0.00    -0.324 N 
ATOM     18  C   UNL     1      14.436  12.174  15.230  0.00  0.00    +0.218 C 
ATOM     19  C   UNL     1      13.925   9.727  15.691  0.00  0.00    +0.126 C 
ATOM     20  C   UNL     1      14.901  11.150  17.434  0.00  0.00    +0.126 C 
ATOM     21  C   UNL     1      12.837   9.256  16.657  0.00  0.00    +0.124 C 
ATOM     22  C   UNL     1      13.827  10.707  18.427  0.00  0.00    +0.124 C 
BRANCH   8  24
ATOM     24  C   UNL     1      12.689   8.621  19.049  0.00  0.00    +0.072 A 
ATOM     26  C   UNL     1      13.329   7.492  19.559  0.00  0.00    +0.141 A 
ATOM     28  C   UNL     1      11.437   8.995  19.539  0.00  0.00    +0.027 A 
ATOM     29  C   UNL     1      12.716   6.734  20.557  0.00  0.00    +0.047 A 
ATOM     30  C   UNL     1      10.825   8.237  20.538  0.00  0.00    +0.002 A 
ATOM     31  C   UNL     1      11.465   7.107  21.047  0.00  0.00    +0.004 A 
BRANCH  26   5
ATOM      5  O   UNL     1      14.552   7.109  19.094  0.00  0.00    -0.493 OA
ATOM     35  C   UNL     1      15.434   6.488  20.026  0.00  0.00    +0.277 C 
ENDBRANCH  26   5
ENDBRANCH   8  24
ENDBRANCH  16  18
ENDBRANCH  12  16
BRANCH  15  17
ATOM     17  C   UNL     1      11.434  12.752  10.564  0.00  0.00    +0.179 C 
BRANCH  17   7
ATOM      7  N   UNL     1      10.880  11.707   9.632  0.00  0.00    -0.249 N 
ATOM      9  N   UNL     1       9.666  11.174   9.843  0.00  0.00    -0.065 NA
ATOM     10  N   UNL     1       9.450  10.289   8.876  0.00  0.00    -0.133 NA
ATOM     23  C   UNL     1      11.474  11.180   8.527  0.00  0.00    +0.135 A 
ATOM     25  C   UNL     1      10.549  10.281   8.062  0.00  0.00    +0.097 A 
BRANCH  25  27
ATOM     27  C   UNL     1      10.621   9.400   6.890  0.00  0.00    +0.143 C 
BRANCH  27  11
ATOM     11  N   UNL     1       9.349   8.720   6.594  0.00  0.00    -0.295 NA
ATOM     33  C   UNL     1       8.551   9.526   5.678  0.00  0.00    +0.105 C 
BRANCH  11  32
ATOM     32  C   UNL     1       9.606   7.397   6.034  0.00  0.00    +0.119 C 
BRANCH  32  34
ATOM     34  C   UNL     1       9.547   6.322   7.086  0.00  0.00    -0.033 A 
ATOM     36  C   UNL     1       9.882   5.008   6.759  0.00  0.00    +0.005 A 
ATOM     37  C   UNL     1       9.157   6.640   8.387  0.00  0.00    +0.005 A 
ATOM     38  C   UNL     1       9.828   4.012   7.734  0.00  0.00    +0.000 A 
ATOM     39  C   UNL     1       9.103   5.643   9.362  0.00  0.00    +0.000 A 
ATOM     40  C   UNL     1       9.438   4.330   9.035  0.00  0.00    +0.000 A 
ENDBRANCH  32  34
ENDBRANCH  11  32
ENDBRANCH  27  11
ENDBRANCH  25  27
ENDBRANCH  17   7
ENDBRANCH  15  17
TORSDOF 12
ENDMDL
MODEL 4
REMARK VINA RESULT:      -7.1      2.056      3.227
REMARK  Name = 40778224
REMARK  14 active torsions:
REMARK  status: ('A' for Active; 'I' for Inactive)
REMARK    1  A    between atoms: O_2  and  C_13
REMARK    2  A    between atoms: O_3  and  C_14
REMARK    3  A    between atoms: O_5  and  C_26
REMARK    4  A    between atoms: O_5  and  C_35
REMARK    5  A    between atoms: N_7  and  C_17
REMARK    6  A    between atoms: N_8  and  C_24
REMARK    7  A    between atoms: N_11  and  C_27
REMARK    8  A    between atoms: N_11  and  C_32
REMARK    9  A    between atoms: N_11  and  C_33
REMARK   10  A    between atoms: C_12  and  C_16
REMARK   11  A    between atoms: C_15  and  C_17
REMARK   12  A    between atoms: C_16  and  C_18
REMARK   13  A    between atoms: C_25  and  C_27
REMARK   14  A    between atoms: C_32  and  C_34
REMARK                            x       y       z     vdW  Elec       q    Type
REMARK                         _______ _______ _______ _____ _____    ______ ____
ROOT
ATOM      1  O   UNL     1      -9.288 -10.231  17.261  0.00  0.00    -0.366 OA
ATOM     12  C   UNL     1      -9.194 -10.954  18.501  0.00  0.00    +0.159 C 
ATOM     13  C   UNL     1     -10.137 -10.248  19.461  0.00  0.00    +0.175 C 
ATOM     14  C   UNL     1     -11.258  -9.828  18.533  0.00  0.00    +0.176 C 
ATOM     15  C   UNL     1     -10.496  -9.435  17.272  0.00  0.00    +0.171 C 
ENDROOT
BRANCH  13   2
ATOM      2  O   UNL     1     -10.562 -11.095  20.505  0.00  0.00    -0.387 OA
ATOM     41  H   UNL     1     -11.426 -10.769  20.811  0.00  0.00    +0.210 HD
ENDBRANCH  13   2
BRANCH  14   3
ATOM      3  O   UNL     1     -12.086 -10.947  18.219  0.00  0.00    -0.387 OA
ATOM     42  H   UNL     1     -11.713 -11.722  18.674  0.00  0.00    +0.210 HD
ENDBRANCH  14   3
BRANCH  12  16
ATOM     16  C   UNL     1      -7.752 -10.971  18.975  0.00  0.00    +0.130 C 
BRANCH  16  18
ATOM      4  O   UNL     1      -7.398 -13.252  18.442  0.00  0.00    -0.276 OA
ATOM      6  N   UNL     1      -5.890 -11.731  17.547  0.00  0.00    -0.298 N 
ATOM      8  N   UNL     1      -4.527 -11.080  15.164  0.00  0.00    -0.324 N 
ATOM     18  C   UNL     1      -7.003 -12.092  18.301  0.00  0.00    +0.218 C 
ATOM     19  C   UNL     1      -5.390 -10.368  17.357  0.00  0.00    +0.126 C 
ATOM     20  C   UNL     1      -5.089 -12.754  16.879  0.00  0.00    +0.126 C 
ATOM     21  C   UNL     1      -5.281 -10.036  15.869  0.00  0.00    +0.124 C 
ATOM     22  C   UNL     1      -4.980 -12.463  15.383  0.00  0.00    +0.124 C 
BRANCH   8  24
ATOM     24  C   UNL     1      -3.914 -10.785  13.941  0.00  0.00    +0.072 A 
ATOM     26  C   UNL     1      -2.526 -10.829  13.813  0.00  0.00    +0.141 A 
ATOM     28  C   UNL     1      -4.705 -10.443  12.843  0.00  0.00    +0.027 A 
ATOM     29  C   UNL     1      -1.928 -10.531  12.588  0.00  0.00    +0.047 A 
ATOM     30  C   UNL     1      -4.107 -10.146  11.618  0.00  0.00    +0.002 A 
ATOM     31  C   UNL     1      -2.719 -10.190  11.491  0.00  0.00    +0.004 A 
BRANCH  26   5
ATOM      5  O   UNL     1      -1.735 -11.159  14.872  0.00  0.00    -0.493 OA
ATOM     35  C   UNL     1      -1.178 -10.085  15.625  0.00  0.00    +0.277 C 
ENDBRANCH  26   5
ENDBRANCH   8  24
ENDBRANCH  16  18
ENDBRANCH  12  16
BRANCH  15  17
ATOM     17  C   UNL     1     -10.089  -7.968  17.254  0.00  0.00    +0.179 C 
BRANCH  17   7
ATOM      7  N   UNL     1     -10.947  -7.160  16.317  0.00  0.00    -0.249 N 
ATOM      9  N   UNL     1     -10.421  -6.157  15.598  0.00  0.00    -0.065 NA
ATOM     10  N   UNL     1     -11.404  -5.630  14.876  0.00  0.00    -0.133 NA
ATOM     23  C   UNL     1     -12.279  -7.305  16.077  0.00  0.00    +0.135 A 
ATOM     25  C   UNL     1     -12.549  -6.323  15.159  0.00  0.00    +0.097 A 
BRANCH  25  27
ATOM     27  C   UNL     1     -13.824  -5.980  14.518  0.00  0.00    +0.143 C 
BRANCH  27  11
ATOM     11  N   UNL     1     -13.779  -6.072  13.048  0.00  0.00    -0.295 NA
ATOM     33  C   UNL     1     -14.444  -7.290  12.601  0.00  0.00    +0.105 C 
BRANCH  11  32
ATOM     32  C   UNL     1     -14.399  -4.893  12.453  0.00  0.00    +0.119 C 
BRANCH  32  34
ATOM     34  C   UNL     1     -13.629  -4.396  11.259  0.00  0.00    -0.033 A 
ATOM     36  C   UNL     1     -14.245  -4.329  10.010  0.00  0.00    +0.005 A 
ATOM     37  C   UNL     1     -12.298  -4.004  11.402  0.00  0.00    +0.005 A 
ATOM     38  C   UNL     1     -13.531  -3.869   8.904  0.00  0.00    +0.000 A 
ATOM     39  C   UNL     1     -11.583  -3.544  10.296  0.00  0.00    +0.000 A 
ATOM     40  C   UNL     1     -12.201  -3.477   9.047  0.00  0.00    +0.000 A 
ENDBRANCH  32  34
ENDBRANCH  11  32
ENDBRANCH  27  11
ENDBRANCH  25  27
ENDBRANCH  17   7
ENDBRANCH  15  17
TORSDOF 12
ENDMDL
MODEL 5
REMARK VINA RESULT:      -7.0      3.250      7.811
REMARK  Name = 40778224
REMARK  14 active torsions:
REMARK  status: ('A' for Active; 'I' for Inactive)
REMARK    1  A    between atoms: O_2  and  C_13
REMARK    2  A    between atoms: O_3  and  C_14
REMARK    3  A    between atoms: O_5  and  C_26
REMARK    4  A    between atoms: O_5  and  C_35
REMARK    5  A    between atoms: N_7  and  C_17
REMARK    6  A    between atoms: N_8  and  C_24
REMARK    7  A    between atoms: N_11  and  C_27
REMARK    8  A    between atoms: N_11  and  C_32
REMARK    9  A    between atoms: N_11  and  C_33
REMARK   10  A    between atoms: C_12  and  C_16
REMARK   11  A    between atoms: C_15  and  C_17
REMARK   12  A    between atoms: C_16  and  C_18
REMARK   13  A    between atoms: C_25  and  C_27
REMARK   14  A    between atoms: C_32  and  C_34
REMARK                            x       y       z     vdW  Elec       q    Type
REMARK                         _______ _______ _______ _____ _____    ______ ____
ROOT
ATOM      1  O   UNL     1      -3.644 -10.477  13.874  0.00  0.00    -0.366 OA
ATOM     12  C   UNL     1      -3.530 -10.764  15.279  0.00  0.00    +0.159 C 
ATOM     13  C   UNL     1      -2.125 -11.309  15.474  0.00  0.00    +0.175 C 
ATOM     14  C   UNL     1      -1.341 -10.494  14.467  0.00  0.00    +0.176 C 
ATOM     15  C   UNL     1      -2.319 -10.403  13.300  0.00  0.00    +0.171 C 
ENDROOT
BRANCH  13   2
ATOM      2  O   UNL     1      -1.673 -11.146  16.800  0.00  0.00    -0.387 OA
ATOM     41  H   UNL     1      -2.145 -10.385  17.177  0.00  0.00    +0.210 HD
ENDBRANCH  13   2
BRANCH  14   3
ATOM      3  O   UNL     1      -1.119  -9.175  14.963  0.00  0.00    -0.387 OA
ATOM     42  H   UNL     1      -1.816  -8.988  15.615  0.00  0.00    +0.210 HD
ENDBRANCH  14   3
BRANCH  12  16
ATOM     16  C   UNL     1      -4.618 -11.740  15.692  0.00  0.00    +0.130 C 
BRANCH  16  18
ATOM      4  O   UNL     1      -4.637 -11.084  17.968  0.00  0.00    -0.276 OA
ATOM      6  N   UNL     1      -6.670 -11.008  16.850  0.00  0.00    -0.298 N 
ATOM      8  N   UNL     1      -8.956  -9.394  16.485  0.00  0.00    -0.324 N 
ATOM     18  C   UNL     1      -5.302 -11.249  16.942  0.00  0.00    +0.218 C 
ATOM     19  C   UNL     1      -7.492 -11.191  15.652  0.00  0.00    +0.126 C 
ATOM     20  C   UNL     1      -7.418 -10.554  18.019  0.00  0.00    +0.126 C 
ATOM     21  C   UNL     1      -8.239  -9.902  15.308  0.00  0.00    +0.124 C 
ATOM     22  C   UNL     1      -8.159  -9.253  17.714  0.00  0.00    +0.124 C 
BRANCH   8  24
ATOM     24  C   UNL     1     -10.043  -8.530  16.313  0.00  0.00    +0.072 A 
ATOM     26  C   UNL     1     -11.336  -8.943  16.632  0.00  0.00    +0.141 A 
ATOM     28  C   UNL     1      -9.823  -7.245  15.817  0.00  0.00    +0.027 A 
ATOM     29  C   UNL     1     -12.411  -8.071  16.455  0.00  0.00    +0.047 A 
ATOM     30  C   UNL     1     -10.898  -6.372  15.641  0.00  0.00    +0.002 A 
ATOM     31  C   UNL     1     -12.191  -6.786  15.959  0.00  0.00    +0.004 A 
BRANCH  26   5
ATOM      5  O   UNL     1     -11.572 -10.195  17.117  0.00  0.00    -0.493 OA
ATOM     35  C   UNL     1     -12.919 -10.660  17.082  0.00  0.00    +0.277 C 
ENDBRANCH  26   5
ENDBRANCH   8  24
ENDBRANCH  16  18
ENDBRANCH  12  16
BRANCH  15  17
ATOM     17  C   UNL     1      -2.175 -11.550  12.310  0.00  0.00    +0.179 C 
BRANCH  17   7
ATOM      7  N   UNL     1      -3.030 -11.344  11.088  0.00  0.00    -0.249 N 
ATOM      9  N   UNL     1      -3.160 -10.127  10.538  0.00  0.00    -0.065 NA
ATOM     10  N   UNL     1      -3.968 -10.251   9.490  0.00  0.00    -0.133 NA
ATOM     23  C   UNL     1      -3.749 -12.281  10.410  0.00  0.00    +0.135 A 
ATOM     25  C   UNL     1      -4.337 -11.565   9.399  0.00  0.00    +0.097 A 
BRANCH  25  27
ATOM     27  C   UNL     1      -5.236 -12.030   8.336  0.00  0.00    +0.143 C 
BRANCH  27  11
ATOM     11  N   UNL     1      -5.351 -11.082   7.215  0.00  0.00    -0.295 NA
ATOM     33  C   UNL     1      -4.568 -11.552   6.078  0.00  0.00    +0.105 C 
BRANCH  11  32
ATOM     32  C   UNL     1      -6.752 -10.910   6.845  0.00  0.00    +0.119 C 
BRANCH  32  34
ATOM     34  C   UNL     1      -7.225  -9.500   7.081  0.00  0.00    -0.033 A 
ATOM     36  C   UNL     1      -7.680  -8.730   6.011  0.00  0.00    +0.005 A 
ATOM     37  C   UNL     1      -7.207  -8.965   8.368  0.00  0.00    +0.005 A 
ATOM     38  C   UNL     1      -8.118  -7.424   6.229  0.00  0.00    +0.000 A 
ATOM     39  C   UNL     1      -7.645  -7.658   8.587  0.00  0.00    +0.000 A 
ATOM     40  C   UNL     1      -8.100  -6.888   7.517  0.00  0.00    +0.000 A 
ENDBRANCH  32  34
ENDBRANCH  11  32
ENDBRANCH  27  11
ENDBRANCH  25  27
ENDBRANCH  17   7
ENDBRANCH  15  17
TORSDOF 12
ENDMDL
MODEL 6
REMARK VINA RESULT:      -7.0      1.815      3.695
REMARK  Name = 40778224
REMARK  14 active torsions:
REMARK  status: ('A' for Active; 'I' for Inactive)
REMARK    1  A    between atoms: O_2  and  C_13
REMARK    2  A    between atoms: O_3  and  C_14
REMARK    3  A    between atoms: O_5  and  C_26
REMARK    4  A    between atoms: O_5  and  C_35
REMARK    5  A    between atoms: N_7  and  C_17
REMARK    6  A    between atoms: N_8  and  C_24
REMARK    7  A    between atoms: N_11  and  C_27
REMARK    8  A    between atoms: N_11  and  C_32
REMARK    9  A    between atoms: N_11  and  C_33
REMARK   10  A    between atoms: C_12  and  C_16
REMARK   11  A    between atoms: C_15  and  C_17
REMARK   12  A    between atoms: C_16  and  C_18
REMARK   13  A    between atoms: C_25  and  C_27
REMARK   14  A    between atoms: C_32  and  C_34
REMARK                            x       y       z     vdW  Elec       q    Type
REMARK                         _______ _______ _______ _____ _____    ______ ____
ROOT
ATOM      1  O   UNL     1      -6.965 -12.051  17.522  0.00  0.00    -0.366 OA
ATOM     12  C   UNL     1      -6.153 -12.376  18.664  0.00  0.00    +0.159 C 
ATOM     13  C   UNL     1      -6.146 -11.129  19.531  0.00  0.00    +0.175 C 
ATOM     14  C   UNL     1      -7.548 -10.599  19.313  0.00  0.00    +0.176 C 
ATOM     15  C   UNL     1      -7.773 -10.892  17.833  0.00  0.00    +0.171 C 
ENDROOT
BRANCH  13   2
ATOM      2  O   UNL     1      -5.863 -11.424  20.881  0.00  0.00    -0.387 OA
ATOM     41  H   UNL     1      -5.139 -12.073  20.892  0.00  0.00    +0.210 HD
ENDBRANCH  13   2
BRANCH  14   3
ATOM      3  O   UNL     1      -8.489 -11.365  20.064  0.00  0.00    -0.387 OA
ATOM     42  H   UNL     1      -7.994 -11.839  20.755  0.00  0.00    +0.210 HD
ENDBRANCH  14   3
BRANCH  12  16
ATOM     16  C   UNL     1      -4.769 -12.799  18.204  0.00  0.00    +0.130 C 
BRANCH  16  18
ATOM      4  O   UNL     1      -5.367 -14.599  16.785  0.00  0.00    -0.276 OA
ATOM      6  N   UNL     1      -4.349 -12.774  15.773  0.00  0.00    -0.298 N 
ATOM      8  N   UNL     1      -4.527 -11.088  13.518  0.00  0.00    -0.324 N 
ATOM     18  C   UNL     1      -4.859 -13.478  16.861  0.00  0.00    +0.218 C 
ATOM     19  C   UNL     1      -3.738 -11.444  15.823  0.00  0.00    +0.126 C 
ATOM     20  C   UNL     1      -4.372 -13.366  14.437  0.00  0.00    +0.126 C 
ATOM     21  C   UNL     1      -4.442 -10.490  14.857  0.00  0.00    +0.124 C 
ATOM     22  C   UNL     1      -5.089 -12.446  13.451  0.00  0.00    +0.124 C 
BRANCH   8  24
ATOM     24  C   UNL     1      -4.694 -10.260  12.402  0.00  0.00    +0.072 A 
ATOM     26  C   UNL     1      -3.674 -10.121  11.461  0.00  0.00    +0.141 A 
ATOM     28  C   UNL     1      -5.896  -9.571  12.234  0.00  0.00    +0.027 A 
ATOM     29  C   UNL     1      -3.854  -9.292  10.354  0.00  0.00    +0.047 A 
ATOM     30  C   UNL     1      -6.076  -8.744  11.125  0.00  0.00    +0.002 A 
ATOM     31  C   UNL     1      -5.055  -8.604  10.186  0.00  0.00    +0.004 A 
BRANCH  26   5
ATOM      5  O   UNL     1      -2.492 -10.784  11.607  0.00  0.00    -0.493 OA
ATOM     35  C   UNL     1      -1.356 -10.010  11.984  0.00  0.00    +0.277 C 
ENDBRANCH  26   5
ENDBRANCH   8  24
ENDBRANCH  16  18
ENDBRANCH  12  16
BRANCH  15  17
ATOM     17  C   UNL     1      -7.327  -9.755  16.926  0.00  0.00    +0.179 C 
BRANCH  17   7
ATOM      7  N   UNL     1      -8.453  -9.255  16.061  0.00  0.00    -0.249 N 
ATOM      9  N   UNL     1      -8.627  -9.730  14.818  0.00  0.00    -0.065 NA
ATOM     10  N   UNL     1      -9.681  -9.109  14.301  0.00  0.00    -0.133 NA
ATOM     23  C   UNL     1      -9.389  -8.318  16.376  0.00  0.00    +0.135 A 
ATOM     25  C   UNL     1     -10.160  -8.240  15.243  0.00  0.00    +0.097 A 
BRANCH  25  27
ATOM     27  C   UNL     1     -11.330  -7.396  14.976  0.00  0.00    +0.143 C 
BRANCH  27  11
ATOM     11  N   UNL     1     -12.352  -7.466  16.034  0.00  0.00    -0.295 NA
ATOM     33  C   UNL     1     -13.434  -6.532  15.749  0.00  0.00    +0.105 C 
BRANCH  11  32
ATOM     32  C   UNL     1     -12.859  -8.829  16.152  0.00  0.00    +0.119 C 
BRANCH  32  34
ATOM     34  C   UNL     1     -13.101  -9.216  17.587  0.00  0.00    -0.033 A 
ATOM     36  C   UNL     1     -12.023  -9.508  18.421  0.00  0.00    +0.005 A 
ATOM     37  C   UNL     1     -14.404  -9.282  18.080  0.00  0.00    +0.005 A 
ATOM     38  C   UNL     1     -12.248  -9.866  19.751  0.00  0.00    +0.000 A 
ATOM     39  C   UNL     1     -14.629  -9.641  19.410  0.00  0.00    +0.000 A 
ATOM     40  C   UNL     1     -13.551  -9.933  20.244  0.00  0.00    +0.000 A 
ENDBRANCH  32  34
ENDBRANCH  11  32
ENDBRANCH  27  11
ENDBRANCH  25  27
ENDBRANCH  17   7
ENDBRANCH  15  17
TORSDOF 12
ENDMDL
MODEL 7
REMARK VINA RESULT:      -6.9      3.677      8.545
REMARK  Name = 40778224
REMARK  14 active torsions:
REMARK  status: ('A' for Active; 'I' for Inactive)
REMARK    1  A    between atoms: O_2  and  C_13
REMARK    2  A    between atoms: O_3  and  C_14
REMARK    3  A    between atoms: O_5  and  C_26
REMARK    4  A    between atoms: O_5  and  C_35
REMARK    5  A    between atoms: N_7  and  C_17
REMARK    6  A    between atoms: N_8  and  C_24
REMARK    7  A    between atoms: N_11  and  C_27
REMARK    8  A    between atoms: N_11  and  C_32
REMARK    9  A    between atoms: N_11  and  C_33
REMARK   10  A    between atoms: C_12  and  C_16
REMARK   11  A    between atoms: C_15  and  C_17
REMARK   12  A    between atoms: C_16  and  C_18
REMARK   13  A    between atoms: C_25  and  C_27
REMARK   14  A    between atoms: C_32  and  C_34
REMARK                            x       y       z     vdW  Elec       q    Type
REMARK                         _______ _______ _______ _____ _____    ______ ____
ROOT
ATOM      1  O   UNL     1      -3.712 -10.488  13.897  0.00  0.00    -0.366 OA
ATOM     12  C   UNL     1      -3.649 -10.779  15.305  0.00  0.00    +0.159 C 
ATOM     13  C   UNL     1      -2.257 -11.336  15.547  0.00  0.00    +0.175 C 
ATOM     14  C   UNL     1      -1.431 -10.527  14.569  0.00  0.00    +0.176 C 
ATOM     15  C   UNL     1      -2.367 -10.426  13.370  0.00  0.00    +0.171 C 
ENDROOT
BRANCH  13   2
ATOM      2  O   UNL     1      -1.849 -11.179  16.889  0.00  0.00    -0.387 OA
ATOM     41  H   UNL     1      -2.327 -10.413  17.250  0.00  0.00    +0.210 HD
ENDBRANCH  13   2
BRANCH  14   3
ATOM      3  O   UNL     1      -1.215  -9.210  15.075  0.00  0.00    -0.387 OA
ATOM     42  H   UNL     1      -1.932  -9.018  15.703  0.00  0.00    +0.210 HD
ENDBRANCH  14   3
BRANCH  12  16
ATOM     16  C   UNL     1      -4.759 -11.745  15.678  0.00  0.00    +0.130 C 
BRANCH  16  18
ATOM      4  O   UNL     1      -4.795 -11.129  17.965  0.00  0.00    -0.276 OA
ATOM      6  N   UNL     1      -6.819 -11.027  16.831  0.00  0.00    -0.298 N 
ATOM      8  N   UNL     1      -9.097  -9.402  16.476  0.00  0.00    -0.324 N 
ATOM     18  C   UNL     1      -5.452 -11.274  16.931  0.00  0.00    +0.218 C 
ATOM     19  C   UNL     1      -7.632 -11.188  15.624  0.00  0.00    +0.126 C 
ATOM     20  C   UNL     1      -7.575 -10.591  18.002  0.00  0.00    +0.126 C 
ATOM     21  C   UNL     1      -8.372  -9.892  15.296  0.00  0.00    +0.124 C 
ATOM     22  C   UNL     1      -8.310  -9.283  17.713  0.00  0.00    +0.124 C 
BRANCH   8  24
ATOM     24  C   UNL     1     -10.180  -8.531  16.309  0.00  0.00    +0.072 A 
ATOM     26  C   UNL     1     -11.489  -8.990  16.457  0.00  0.00    +0.141 A 
ATOM     28  C   UNL     1      -9.941  -7.194  15.993  0.00  0.00    +0.027 A 
ATOM     29  C   UNL     1     -12.560  -8.112  16.288  0.00  0.00    +0.047 A 
ATOM     30  C   UNL     1     -11.012  -6.315  15.825  0.00  0.00    +0.002 A 
ATOM     31  C   UNL     1     -12.321  -6.775  15.972  0.00  0.00    +0.004 A 
BRANCH  26   5
ATOM      5  O   UNL     1     -11.744 -10.293  16.765  0.00  0.00    -0.493 OA
ATOM     35  C   UNL     1     -12.547 -11.031  15.847  0.00  0.00    +0.277 C 
ENDBRANCH  26   5
ENDBRANCH   8  24
ENDBRANCH  16  18
ENDBRANCH  12  16
BRANCH  15  17
ATOM     17  C   UNL     1      -2.199 -11.572  12.383  0.00  0.00    +0.179 C 
BRANCH  17   7
ATOM      7  N   UNL     1      -3.042 -11.379  11.151  0.00  0.00    -0.249 N 
ATOM      9  N   UNL     1      -3.485 -12.434  10.450  0.00  0.00    -0.065 NA
ATOM     10  N   UNL     1      -4.188 -11.961   9.426  0.00  0.00    -0.133 NA
ATOM     23  C   UNL     1      -3.447 -10.203  10.598  0.00  0.00    +0.135 A 
ATOM     25  C   UNL     1      -4.174 -10.596   9.503  0.00  0.00    +0.097 A 
BRANCH  25  27
ATOM     27  C   UNL     1      -4.867  -9.770   8.507  0.00  0.00    +0.143 C 
BRANCH  27  11
ATOM     11  N   UNL     1      -5.839 -10.527   7.699  0.00  0.00    -0.295 NA
ATOM     33  C   UNL     1      -7.144 -10.519   8.348  0.00  0.00    +0.105 C 
BRANCH  11  32
ATOM     32  C   UNL     1      -5.922  -9.962   6.356  0.00  0.00    +0.119 C 
BRANCH  32  34
ATOM     34  C   UNL     1      -5.635 -10.992   5.296  0.00  0.00    -0.033 A 
ATOM     36  C   UNL     1      -6.535 -11.184   4.249  0.00  0.00    +0.005 A 
ATOM     37  C   UNL     1      -4.468 -11.753   5.362  0.00  0.00    +0.005 A 
ATOM     38  C   UNL     1      -6.269 -12.138   3.267  0.00  0.00    +0.000 A 
ATOM     39  C   UNL     1      -4.202 -12.708   4.380  0.00  0.00    +0.000 A 
ATOM     40  C   UNL     1      -5.103 -12.900   3.333  0.00  0.00    +0.000 A 
ENDBRANCH  32  34
ENDBRANCH  11  32
ENDBRANCH  27  11
ENDBRANCH  25  27
ENDBRANCH  17   7
ENDBRANCH  15  17
TORSDOF 12
ENDMDL
MODEL 8
REMARK VINA RESULT:      -6.9      3.955      9.407
REMARK  Name = 40778224
REMARK  14 active torsions:
REMARK  status: ('A' for Active; 'I' for Inactive)
REMARK    1  A    between atoms: O_2  and  C_13
REMARK    2  A    between atoms: O_3  and  C_14
REMARK    3  A    between atoms: O_5  and  C_26
REMARK    4  A    between atoms: O_5  and  C_35
REMARK    5  A    between atoms: N_7  and  C_17
REMARK    6  A    between atoms: N_8  and  C_24
REMARK    7  A    between atoms: N_11  and  C_27
REMARK    8  A    between atoms: N_11  and  C_32
REMARK    9  A    between atoms: N_11  and  C_33
REMARK   10  A    between atoms: C_12  and  C_16
REMARK   11  A    between atoms: C_15  and  C_17
REMARK   12  A    between atoms: C_16  and  C_18
REMARK   13  A    between atoms: C_25  and  C_27
REMARK   14  A    between atoms: C_32  and  C_34
REMARK                            x       y       z     vdW  Elec       q    Type
REMARK                         _______ _______ _______ _____ _____    ______ ____
ROOT
ATOM      1  O   UNL     1      -3.908 -10.281  13.687  0.00  0.00    -0.366 OA
ATOM     12  C   UNL     1      -3.742 -10.732  15.043  0.00  0.00    +0.159 C 
ATOM     13  C   UNL     1      -2.404 -11.451  15.076  0.00  0.00    +0.175 C 
ATOM     14  C   UNL     1      -1.591 -10.625  14.100  0.00  0.00    +0.176 C 
ATOM     15  C   UNL     1      -2.622 -10.297  13.025  0.00  0.00    +0.171 C 
ENDROOT
BRANCH  13   2
ATOM      2  O   UNL     1      -1.852 -11.486  16.374  0.00  0.00    -0.387 OA
ATOM     41  H   UNL     1      -0.975 -11.900  16.307  0.00  0.00    +0.210 HD
ENDBRANCH  13   2
BRANCH  14   3
ATOM      3  O   UNL     1      -1.180  -9.401  14.709  0.00  0.00    -0.387 OA
ATOM     42  H   UNL     1      -0.388  -9.093  14.237  0.00  0.00    +0.210 HD
ENDBRANCH  14   3
BRANCH  12  16
ATOM     16  C   UNL     1      -4.911 -11.616  15.436  0.00  0.00    +0.130 C 
BRANCH  16  18
ATOM      4  O   UNL     1      -4.840 -10.929  17.702  0.00  0.00    -0.276 OA
ATOM      6  N   UNL     1      -6.912 -10.843  16.656  0.00  0.00    -0.298 N 
ATOM      8  N   UNL     1      -9.190  -9.208  16.351  0.00  0.00    -0.324 N 
ATOM     18  C   UNL     1      -5.544 -11.099  16.703  0.00  0.00    +0.218 C 
ATOM     19  C   UNL     1      -7.779 -11.033  15.492  0.00  0.00    +0.126 C 
ATOM     20  C   UNL     1      -7.612 -10.364  17.845  0.00  0.00    +0.126 C 
ATOM     21  C   UNL     1      -8.523  -9.741  15.156  0.00  0.00    +0.124 C 
ATOM     22  C   UNL     1      -8.348  -9.059  17.548  0.00  0.00    +0.124 C 
BRANCH   8  24
ATOM     24  C   UNL     1     -10.273  -8.333  16.206  0.00  0.00    +0.072 A 
ATOM     26  C   UNL     1     -11.574  -8.764  16.463  0.00  0.00    +0.141 A 
ATOM     28  C   UNL     1     -10.041  -7.018  15.799  0.00  0.00    +0.027 A 
ATOM     29  C   UNL     1     -12.644  -7.881  16.313  0.00  0.00    +0.047 A 
ATOM     30  C   UNL     1     -11.111  -6.135  15.651  0.00  0.00    +0.002 A 
ATOM     31  C   UNL     1     -12.412  -6.567  15.908  0.00  0.00    +0.004 A 
BRANCH  26   5
ATOM      5  O   UNL     1     -11.822 -10.043  16.860  0.00  0.00    -0.493 OA
ATOM     35  C   UNL     1     -12.515 -10.885  15.940  0.00  0.00    +0.277 C 
ENDBRANCH  26   5
ENDBRANCH   8  24
ENDBRANCH  16  18
ENDBRANCH  12  16
BRANCH  15  17
ATOM     17  C   UNL     1      -2.680 -11.338  11.917  0.00  0.00    +0.179 C 
BRANCH  17   7
ATOM      7  N   UNL     1      -3.301 -10.784  10.661  0.00  0.00    -0.249 N 
ATOM      9  N   UNL     1      -3.206  -9.478  10.368  0.00  0.00    -0.065 NA
ATOM     10  N   UNL     1      -3.844  -9.284   9.218  0.00  0.00    -0.133 NA
ATOM     23  C   UNL     1      -3.999 -11.463   9.711  0.00  0.00    +0.135 A 
ATOM     25  C   UNL     1      -4.336 -10.491   8.803  0.00  0.00    +0.097 A 
BRANCH  25  27
ATOM     27  C   UNL     1      -5.098 -10.613   7.555  0.00  0.00    +0.143 C 
BRANCH  27  11
ATOM     11  N   UNL     1      -4.853 -11.881   6.846  0.00  0.00    -0.295 NA
ATOM     33  C   UNL     1      -5.991 -12.776   7.011  0.00  0.00    +0.105 C 
BRANCH  11  32
ATOM     32  C   UNL     1      -4.595 -11.623   5.433  0.00  0.00    +0.119 C 
BRANCH  32  34
ATOM     34  C   UNL     1      -3.465 -12.467   4.906  0.00  0.00    -0.033 A 
ATOM     36  C   UNL     1      -3.181 -12.478   3.541  0.00  0.00    +0.005 A 
ATOM     37  C   UNL     1      -2.704 -13.239   5.783  0.00  0.00    +0.005 A 
ATOM     38  C   UNL     1      -2.135 -13.260   3.052  0.00  0.00    +0.000 A 
ATOM     39  C   UNL     1      -1.658 -14.022   5.294  0.00  0.00    +0.000 A 
ATOM     40  C   UNL     1      -1.374 -14.032   3.929  0.00  0.00    +0.000 A 
ENDBRANCH  32  34
ENDBRANCH  11  32
ENDBRANCH  27  11
ENDBRANCH  25  27
ENDBRANCH  17   7
ENDBRANCH  15  17
TORSDOF 12
ENDMDL
MODEL 9
REMARK VINA RESULT:      -6.9      3.381      7.929
REMARK  Name = 40778224
REMARK  14 active torsions:
REMARK  status: ('A' for Active; 'I' for Inactive)
REMARK    1  A    between atoms: O_2  and  C_13
REMARK    2  A    between atoms: O_3  and  C_14
REMARK    3  A    between atoms: O_5  and  C_26
REMARK    4  A    between atoms: O_5  and  C_35
REMARK    5  A    between atoms: N_7  and  C_17
REMARK    6  A    between atoms: N_8  and  C_24
REMARK    7  A    between atoms: N_11  and  C_27
REMARK    8  A    between atoms: N_11  and  C_32
REMARK    9  A    between atoms: N_11  and  C_33
REMARK   10  A    between atoms: C_12  and  C_16
REMARK   11  A    between atoms: C_15  and  C_17
REMARK   12  A    between atoms: C_16  and  C_18
REMARK   13  A    between atoms: C_25  and  C_27
REMARK   14  A    between atoms: C_32  and  C_34
REMARK                            x       y       z     vdW  Elec       q    Type
REMARK                         _______ _______ _______ _____ _____    ______ ____
ROOT
ATOM      1  O   UNL     1      -3.893 -10.631  14.099  0.00  0.00    -0.366 OA
ATOM     12  C   UNL     1      -3.398 -10.998  15.399  0.00  0.00    +0.159 C 
ATOM     13  C   UNL     1      -1.947 -11.396  15.189  0.00  0.00    +0.175 C 
ATOM     14  C   UNL     1      -1.523 -10.432  14.100  0.00  0.00    +0.176 C 
ATOM     15  C   UNL     1      -2.770 -10.372  13.224  0.00  0.00    +0.171 C 
ENDROOT
BRANCH  13   2
ATOM      2  O   UNL     1      -1.188 -11.273  16.371  0.00  0.00    -0.387 OA
ATOM     41  H   UNL     1      -1.100 -10.324  16.564  0.00  0.00    +0.210 HD
ENDBRANCH  13   2
BRANCH  14   3
ATOM      3  O   UNL     1      -1.302  -9.133  14.647  0.00  0.00    -0.387 OA
ATOM     42  H   UNL     1      -0.566  -8.730  14.154  0.00  0.00    +0.210 HD
ENDBRANCH  14   3
BRANCH  12  16
ATOM     16  C   UNL     1      -4.252 -12.113  15.974  0.00  0.00    +0.130 C 
BRANCH  16  18
ATOM      4  O   UNL     1      -3.658 -11.447  18.168  0.00  0.00    -0.276 OA
ATOM      6  N   UNL     1      -5.882 -12.020  17.824  0.00  0.00    -0.298 N 
ATOM      8  N   UNL     1      -8.515 -11.193  18.409  0.00  0.00    -0.324 N 
ATOM     18  C   UNL     1      -4.563 -11.829  17.422  0.00  0.00    +0.218 C 
ATOM     19  C   UNL     1      -6.981 -12.473  16.969  0.00  0.00    +0.126 C 
ATOM     20  C   UNL     1      -6.267 -11.792  19.215  0.00  0.00    +0.126 C 
ATOM     21  C   UNL     1      -8.144 -11.482  17.018  0.00  0.00    +0.124 C 
ATOM     22  C   UNL     1      -7.415 -10.788  19.299  0.00  0.00    +0.124 C 
BRANCH   8  24
ATOM     24  C   UNL     1      -9.795 -10.707  18.697  0.00  0.00    +0.072 A 
ATOM     26  C   UNL     1     -10.566 -11.288  19.703  0.00  0.00    +0.141 A 
ATOM     28  C   UNL     1     -10.299  -9.630  17.966  0.00  0.00    +0.027 A 
ATOM     29  C   UNL     1     -11.841 -10.794  19.979  0.00  0.00    +0.047 A 
ATOM     30  C   UNL     1     -11.574  -9.135  18.243  0.00  0.00    +0.002 A 
ATOM     31  C   UNL     1     -12.344  -9.717  19.249  0.00  0.00    +0.004 A 
BRANCH  26   5
ATOM      5  O   UNL     1     -10.093 -12.341  20.428  0.00  0.00    -0.493 OA
ATOM     35  C   UNL     1     -10.637 -13.626  20.135  0.00  0.00    +0.277 C 
ENDBRANCH  26   5
ENDBRANCH   8  24
ENDBRANCH  16  18
ENDBRANCH  12  16
BRANCH  15  17
ATOM     17  C   UNL     1      -2.780 -11.426  12.127  0.00  0.00    +0.179 C 
BRANCH  17   7
ATOM      7  N   UNL     1      -3.359 -10.893  10.844  0.00  0.00    -0.249 N 
ATOM      9  N   UNL     1      -3.252  -9.592  10.531  0.00  0.00    -0.065 NA
ATOM     10  N   UNL     1      -3.853  -9.416   9.359  0.00  0.00    -0.133 NA
ATOM     23  C   UNL     1      -4.030 -11.586   9.883  0.00  0.00    +0.135 A 
ATOM     25  C   UNL     1      -4.335 -10.629   8.949  0.00  0.00    +0.097 A 
BRANCH  25  27
ATOM     27  C   UNL     1      -5.058 -10.770   7.680  0.00  0.00    +0.143 C 
BRANCH  27  11
ATOM     11  N   UNL     1      -5.969  -9.648   7.401  0.00  0.00    -0.295 NA
ATOM     33  C   UNL     1      -6.300  -9.611   5.981  0.00  0.00    +0.105 C 
BRANCH  11  32
ATOM     32  C   UNL     1      -7.175  -9.768   8.213  0.00  0.00    +0.119 C 
BRANCH  32  34
ATOM     34  C   UNL     1      -8.082  -8.577   8.050  0.00  0.00    -0.033 A 
ATOM     36  C   UNL     1      -7.622  -7.301   8.372  0.00  0.00    +0.005 A 
ATOM     37  C   UNL     1      -9.383  -8.751   7.578  0.00  0.00    +0.005 A 
ATOM     38  C   UNL     1      -8.462  -6.198   8.221  0.00  0.00    +0.000 A 
ATOM     39  C   UNL     1     -10.224  -7.648   7.428  0.00  0.00    +0.000 A 
ATOM     40  C   UNL     1      -9.763  -6.372   7.749  0.00  0.00    +0.000 A 
ENDBRANCH  32  34
ENDBRANCH  11  32
ENDBRANCH  27  11
ENDBRANCH  25  27
ENDBRANCH  17   7
ENDBRANCH  15  17
TORSDOF 12
ENDMDL
MODEL 10
REMARK VINA RESULT:      -6.7      2.530      8.617
REMARK  Name = 40778224
REMARK  14 active torsions:
REMARK  status: ('A' for Active; 'I' for Inactive)
REMARK    1  A    between atoms: O_2  and  C_13
REMARK    2  A    between atoms: O_3  and  C_14
REMARK    3  A    between atoms: O_5  and  C_26
REMARK    4  A    between atoms: O_5  and  C_35
REMARK    5  A    between atoms: N_7  and  C_17
REMARK    6  A    between atoms: N_8  and  C_24
REMARK    7  A    between atoms: N_11  and  C_27
REMARK    8  A    between atoms: N_11  and  C_32
REMARK    9  A    between atoms: N_11  and  C_33
REMARK   10  A    between atoms: C_12  and  C_16
REMARK   11  A    between atoms: C_15  and  C_17
REMARK   12  A    between atoms: C_16  and  C_18
REMARK   13  A    between atoms: C_25  and  C_27
REMARK   14  A    between atoms: C_32  and  C_34
REMARK                            x       y       z     vdW  Elec       q    Type
REMARK                         _______ _______ _______ _____ _____    ______ ____
ROOT
ATOM      1  O   UNL     1      -8.557  -9.502  17.283  0.00  0.00    -0.366 OA
ATOM     12  C   UNL     1      -9.977  -9.350  17.454  0.00  0.00    +0.159 C 
ATOM     13  C   UNL     1     -10.465 -10.671  18.025  0.00  0.00    +0.175 C 
ATOM     14  C   UNL     1      -9.303 -11.066  18.912  0.00  0.00    +0.176 C 
ATOM     15  C   UNL     1      -8.104 -10.618  18.083  0.00  0.00    +0.171 C 
ENDROOT
BRANCH  13   2
ATOM      2  O   UNL     1     -11.681 -10.527  18.727  0.00  0.00    -0.387 OA
ATOM     41  H   UNL     1     -12.206 -11.330  18.568  0.00  0.00    +0.210 HD
ENDBRANCH  13   2
BRANCH  14   3
ATOM      3  O   UNL     1      -9.318 -10.303  20.118  0.00  0.00    -0.387 OA
ATOM     42  H   UNL     1      -9.285 -10.931  20.860  0.00  0.00    +0.210 HD
ENDBRANCH  14   3
BRANCH  12  16
ATOM     16  C   UNL     1     -10.617  -8.995  16.124  0.00  0.00    +0.130 C 
BRANCH  16  18
ATOM      4  O   UNL     1     -10.816  -6.843  17.094  0.00  0.00    -0.276 OA
ATOM      6  N   UNL     1     -12.023  -7.218  15.146  0.00  0.00    -0.298 N 
ATOM      8  N   UNL     1     -12.687  -6.038  12.671  0.00  0.00    -0.324 N 
ATOM     18  C   UNL     1     -11.157  -7.588  16.172  0.00  0.00    +0.218 C 
ATOM     19  C   UNL     1     -12.451  -8.074  14.038  0.00  0.00    +0.126 C 
ATOM     20  C   UNL     1     -12.613  -5.882  15.127  0.00  0.00    +0.126 C 
ATOM     21  C   UNL     1     -12.152  -7.406  12.695  0.00  0.00    +0.124 C 
ATOM     22  C   UNL     1     -12.312  -5.179  13.805  0.00  0.00    +0.124 C 
BRANCH   8  24
ATOM     24  C   UNL     1     -12.945  -5.418  11.443  0.00  0.00    +0.072 A 
ATOM     26  C   UNL     1     -14.193  -5.542  10.834  0.00  0.00    +0.141 A 
ATOM     28  C   UNL     1     -11.939  -4.671  10.830  0.00  0.00    +0.027 A 
ATOM     29  C   UNL     1     -14.436  -4.919   9.609  0.00  0.00    +0.047 A 
ATOM     30  C   UNL     1     -12.183  -4.047   9.606  0.00  0.00    +0.002 A 
ATOM     31  C   UNL     1     -13.431  -4.171   8.996  0.00  0.00    +0.004 A 
BRANCH  26   5
ATOM      5  O   UNL     1     -15.189  -6.268  11.416  0.00  0.00    -0.493 OA
ATOM     35  C   UNL     1     -16.493  -6.146  10.854  0.00  0.00    +0.277 C 
ENDBRANCH  26   5
ENDBRANCH   8  24
ENDBRANCH  16  18
ENDBRANCH  12  16
BRANCH  15  17
ATOM     17  C   UNL     1      -7.598 -11.696  17.135  0.00  0.00    +0.179 C 
BRANCH  17   7
ATOM      7  N   UNL     1      -6.138 -11.516  16.811  0.00  0.00    -0.249 N 
ATOM      9  N   UNL     1      -5.353 -10.753  17.586  0.00  0.00    -0.065 NA
ATOM     10  N   UNL     1      -4.133 -10.776  17.059  0.00  0.00    -0.133 NA
ATOM     23  C   UNL     1      -5.447 -12.050  15.767  0.00  0.00    +0.135 A 
ATOM     25  C   UNL     1      -4.175 -11.567  15.943  0.00  0.00    +0.097 A 
BRANCH  25  27
ATOM     27  C   UNL     1      -2.976 -11.796  15.128  0.00  0.00    +0.143 C 
BRANCH  27  11
ATOM     11  N   UNL     1      -2.652 -10.666  14.240  0.00  0.00    -0.295 NA
ATOM     33  C   UNL     1      -1.427 -10.013  14.686  0.00  0.00    +0.105 C 
BRANCH  11  32
ATOM     32  C   UNL     1      -2.523 -11.131  12.863  0.00  0.00    +0.119 C 
BRANCH  32  34
ATOM     34  C   UNL     1      -3.327 -10.290  11.909  0.00  0.00    -0.033 A 
ATOM     36  C   UNL     1      -2.736  -9.793  10.748  0.00  0.00    +0.005 A 
ATOM     37  C   UNL     1      -4.665 -10.007  12.186  0.00  0.00    +0.005 A 
ATOM     38  C   UNL     1      -3.481  -9.014   9.863  0.00  0.00    +0.000 A 
ATOM     39  C   UNL     1      -5.411  -9.227  11.302  0.00  0.00    +0.000 A 
ATOM     40  C   UNL     1      -4.818  -8.731  10.141  0.00  0.00    +0.000 A 
ENDBRANCH  32  34
ENDBRANCH  11  32
ENDBRANCH  27  11
ENDBRANCH  25  27
ENDBRANCH  17   7
ENDBRANCH  15  17
TORSDOF 12
ENDMDL
