MODEL 1
REMARK VINA RESULT:      -6.6      0.000      0.000
REMARK  Name = 11912476
REMARK  8 active torsions:
REMARK  status: ('A' for Active; 'I' for Inactive)
REMARK    1  A    between atoms: O_3  and  C_12
REMARK    2  A    between atoms: O_3  and  C_21
REMARK    3  A    between atoms: N_5  and  C_11
REMARK    4  A    between atoms: N_6  and  C_15
REMARK    5  A    between atoms: C_23  and  C_24
REMARK    6  A    between atoms: C_23  and  C_27
REMARK    7  A    between atoms: C_23  and  C_28
REMARK    8  A    between atoms: C_23  and  C_29
REMARK                            x       y       z     vdW  Elec       q    Type
REMARK                         _______ _______ _______ _____ _____    ______ ____
ROOT
ATOM      1  O   UNL     1      -6.356 -11.326  14.845  0.00  0.00    -0.368 OA
ATOM      2  O   UNL     1      -4.544 -10.292  17.095  0.00  0.00    -0.368 OA
ATOM      9  C   UNL     1      -5.498  -9.617  16.248  0.00  0.00    +0.173 C 
ATOM     10  C   UNL     1      -5.397 -10.256  14.877  0.00  0.00    +0.192 C 
ATOM     11  C   UNL     1      -6.905  -9.936  16.697  0.00  0.00    +0.130 C 
ATOM     12  C   UNL     1      -3.979 -10.775  14.862  0.00  0.00    +0.235 C 
ATOM     13  C   UNL     1      -7.160 -11.279  16.034  0.00  0.00    +0.185 C 
ATOM     14  C   UNL     1      -3.784 -11.211  16.297  0.00  0.00    +0.207 C 
ENDROOT
BRANCH  11   5
ATOM      5  N   UNL     1      -7.830  -8.943  16.195  0.00  0.00    -0.306 N 
ATOM      7  N   UNL     1      -9.544  -9.652  17.631  0.00  0.00    -0.219 NA
ATOM      8  N   UNL     1      -9.891  -7.826  16.097  0.00  0.00    -0.223 NA
ATOM     22  C   UNL     1      -9.127  -8.802  16.655  0.00  0.00    +0.216 A 
ATOM     24  C   UNL     1     -10.813  -9.487  18.056  0.00  0.00    +0.052 A 
ATOM     25  C   UNL     1     -11.670  -8.527  17.558  0.00  0.00    +0.043 A 
ATOM     26  C   UNL     1     -11.150  -7.717  16.569  0.00  0.00    +0.116 A 
ATOM     30  H   UNL     1      -7.513  -8.272  15.504  0.00  0.00    +0.149 HD
BRANCH  24  23
ATOM     23  C   UNL     1     -11.288 -10.409  19.128  0.00  0.00    +0.005 C 
ATOM     27  C   UNL     1     -12.396  -9.832  20.069  0.00  0.00    +0.017 C 
ATOM     28  C   UNL     1     -11.894 -11.714  18.523  0.00  0.00    +0.017 C 
ATOM     29  C   UNL     1     -10.119 -10.828  20.072  0.00  0.00    +0.017 C 
ENDBRANCH  24  23
ENDBRANCH  11   5
BRANCH  12   3
ATOM      3  O   UNL     1      -3.777 -11.835  13.953  0.00  0.00    -0.442 OA
BRANCH   3  21
ATOM      4  O   UNL     1      -1.790 -11.602  12.824  0.00  0.00    -0.226 OA
ATOM      6  N   UNL     1      -3.824 -11.230  11.773  0.00  0.00    -0.278 N 
ATOM     21  C   UNL     1      -3.016 -11.558  12.841  0.00  0.00    +0.401 C 
ATOM     31  H   UNL     1      -4.824 -11.188  11.939  0.00  0.00    +0.152 HD
BRANCH   6  15
ATOM     15  C   UNL     1      -3.321 -10.888  10.461  0.00  0.00    +0.076 C 
ATOM     16  C   UNL     1      -3.123  -9.374  10.324  0.00  0.00    +0.022 C 
ATOM     17  C   UNL     1      -4.238 -11.431   9.359  0.00  0.00    +0.022 C 
ATOM     18  C   UNL     1      -4.450  -8.618  10.236  0.00  0.00    +0.002 C 
ATOM     19  C   UNL     1      -5.562 -10.671   9.274  0.00  0.00    +0.002 C 
ATOM     20  C   UNL     1      -5.339  -9.169   9.126  0.00  0.00    +0.000 C 
ENDBRANCH   6  15
ENDBRANCH   3  21
ENDBRANCH  12   3
TORSDOF 5
ENDMDL
MODEL 2
REMARK VINA RESULT:      -6.5      2.675      3.978
REMARK  Name = 11912476
REMARK  8 active torsions:
REMARK  status: ('A' for Active; 'I' for Inactive)
REMARK    1  A    between atoms: O_3  and  C_12
REMARK    2  A    between atoms: O_3  and  C_21
REMARK    3  A    between atoms: N_5  and  C_11
REMARK    4  A    between atoms: N_6  and  C_15
REMARK    5  A    between atoms: C_23  and  C_24
REMARK    6  A    between atoms: C_23  and  C_27
REMARK    7  A    between atoms: C_23  and  C_28
REMARK    8  A    between atoms: C_23  and  C_29
REMARK                            x       y       z     vdW  Elec       q    Type
REMARK                         _______ _______ _______ _____ _____    ______ ____
ROOT
ATOM      1  O   UNL     1      -4.888 -10.982  18.921  0.00  0.00    -0.368 OA
ATOM      2  O   UNL     1      -6.505 -10.476  16.364  0.00  0.00    -0.368 OA
ATOM      9  C   UNL     1      -6.547 -11.551  17.325  0.00  0.00    +0.173 C 
ATOM     10  C   UNL     1      -5.118 -11.803  17.765  0.00  0.00    +0.192 C 
ATOM     11  C   UNL     1      -7.241 -11.092  18.586  0.00  0.00    +0.130 C 
ATOM     12  C   UNL     1      -4.321 -11.328  16.574  0.00  0.00    +0.235 C 
ATOM     13  C   UNL     1      -6.126 -10.377  19.328  0.00  0.00    +0.185 C 
ATOM     14  C   UNL     1      -5.135 -10.145  16.098  0.00  0.00    +0.207 C 
ENDROOT
BRANCH  11   5
ATOM      5  N   UNL     1      -7.704 -12.231  19.349  0.00  0.00    -0.306 N 
ATOM      7  N   UNL     1      -9.904 -11.422  19.433  0.00  0.00    -0.219 NA
ATOM      8  N   UNL     1      -9.314 -13.514  20.474  0.00  0.00    -0.223 NA
ATOM     22  C   UNL     1      -9.014 -12.395  19.764  0.00  0.00    +0.216 A 
ATOM     24  C   UNL     1     -11.172 -11.613  19.854  0.00  0.00    +0.052 A 
ATOM     25  C   UNL     1     -11.581 -12.713  20.578  0.00  0.00    +0.043 A 
ATOM     26  C   UNL     1     -10.600 -13.641  20.863  0.00  0.00    +0.116 A 
ATOM     30  H   UNL     1      -7.060 -12.986  19.556  0.00  0.00    +0.149 HD
BRANCH  24  23
ATOM     23  C   UNL     1     -12.163 -10.556  19.499  0.00  0.00    +0.005 C 
ATOM     27  C   UNL     1     -11.649  -9.459  18.509  0.00  0.00    +0.017 C 
ATOM     28  C   UNL     1     -13.425 -11.171  18.819  0.00  0.00    +0.017 C 
ATOM     29  C   UNL     1     -12.641  -9.781  20.766  0.00  0.00    +0.017 C 
ENDBRANCH  24  23
ENDBRANCH  11   5
BRANCH  12   3
ATOM      3  O   UNL     1      -2.995 -10.966  16.892  0.00  0.00    -0.442 OA
BRANCH   3  21
ATOM      4  O   UNL     1      -1.194 -10.181  15.701  0.00  0.00    -0.226 OA
ATOM      6  N   UNL     1      -2.308 -12.113  15.065  0.00  0.00    -0.278 N 
ATOM     21  C   UNL     1      -2.080 -11.012  15.864  0.00  0.00    +0.401 C 
ATOM     31  H   UNL     1      -3.107 -12.697  15.290  0.00  0.00    +0.152 HD
BRANCH   6  15
ATOM     15  C   UNL     1      -1.512 -12.439  13.903  0.00  0.00    +0.076 C 
ATOM     16  C   UNL     1      -1.966 -11.635  12.681  0.00  0.00    +0.022 C 
ATOM     17  C   UNL     1      -1.542 -13.946  13.619  0.00  0.00    +0.022 C 
ATOM     18  C   UNL     1      -3.318 -12.105  12.140  0.00  0.00    +0.002 C 
ATOM     19  C   UNL     1      -2.894 -14.411  13.078  0.00  0.00    +0.002 C 
ATOM     20  C   UNL     1      -3.319 -13.603  11.855  0.00  0.00    +0.000 C 
ENDBRANCH   6  15
ENDBRANCH   3  21
ENDBRANCH  12   3
TORSDOF 5
ENDMDL
MODEL 3
REMARK VINA RESULT:      -6.5      4.593      8.222
REMARK  Name = 11912476
REMARK  8 active torsions:
REMARK  status: ('A' for Active; 'I' for Inactive)
REMARK    1  A    between atoms: O_3  and  C_12
REMARK    2  A    between atoms: O_3  and  C_21
REMARK    3  A    between atoms: N_5  and  C_11
REMARK    4  A    between atoms: N_6  and  C_15
REMARK    5  A    between atoms: C_23  and  C_24
REMARK    6  A    between atoms: C_23  and  C_27
REMARK    7  A    between atoms: C_23  and  C_28
REMARK    8  A    between atoms: C_23  and  C_29
REMARK                            x       y       z     vdW  Elec       q    Type
REMARK                         _______ _______ _______ _____ _____    ______ ____
ROOT
ATOM      1  O   UNL     1     -10.544  -7.051  16.086  0.00  0.00    -0.368 OA
ATOM      2  O   UNL     1     -11.934  -9.766  16.418  0.00  0.00    -0.368 OA
ATOM      9  C   UNL     1     -10.867  -9.338  15.546  0.00  0.00    +0.173 C 
ATOM     10  C   UNL     1     -11.183  -7.914  15.132  0.00  0.00    +0.192 C 
ATOM     11  C   UNL     1      -9.579  -9.213  16.325  0.00  0.00    +0.130 C 
ATOM     12  C   UNL     1     -12.688  -7.865  15.254  0.00  0.00    +0.235 C 
ATOM     13  C   UNL     1      -9.713  -7.838  16.954  0.00  0.00    +0.185 C 
ATOM     14  C   UNL     1     -12.938  -8.743  16.460  0.00  0.00    +0.207 C 
ENDROOT
BRANCH  11   5
ATOM      5  N   UNL     1      -8.444  -9.249  15.429  0.00  0.00    -0.306 N 
ATOM      7  N   UNL     1      -7.083 -10.317  17.015  0.00  0.00    -0.219 NA
ATOM      8  N   UNL     1      -6.234  -9.762  14.829  0.00  0.00    -0.223 NA
ATOM     22  C   UNL     1      -7.217  -9.793  15.767  0.00  0.00    +0.216 A 
ATOM     24  C   UNL     1      -5.875 -10.838  17.311  0.00  0.00    +0.052 A 
ATOM     25  C   UNL     1      -4.813 -10.858  16.432  0.00  0.00    +0.043 A 
ATOM     26  C   UNL     1      -5.052 -10.301  15.192  0.00  0.00    +0.116 A 
ATOM     30  H   UNL     1      -8.548  -8.908  14.480  0.00  0.00    +0.149 HD
BRANCH  24  23
ATOM     23  C   UNL     1      -5.711 -11.418  18.676  0.00  0.00    +0.005 C 
ATOM     27  C   UNL     1      -6.548 -12.708  18.962  0.00  0.00    +0.017 C 
ATOM     28  C   UNL     1      -4.227 -11.817  18.946  0.00  0.00    +0.017 C 
ATOM     29  C   UNL     1      -6.133 -10.398  19.778  0.00  0.00    +0.017 C 
ENDBRANCH  24  23
ENDBRANCH  11   5
BRANCH  12   3
ATOM      3  O   UNL     1     -13.196  -6.561  15.432  0.00  0.00    -0.442 OA
BRANCH   3  21
ATOM      4  O   UNL     1     -15.280  -6.175  14.545  0.00  0.00    -0.226 OA
ATOM      6  N   UNL     1     -13.354  -5.547  13.415  0.00  0.00    -0.278 N 
ATOM     21  C   UNL     1     -14.059  -6.098  14.464  0.00  0.00    +0.401 C 
ATOM     31  H   UNL     1     -12.342  -5.590  13.457  0.00  0.00    +0.152 HD
BRANCH   6  15
ATOM     15  C   UNL     1     -13.979  -4.972  12.243  0.00  0.00    +0.076 C 
ATOM     16  C   UNL     1     -13.628  -5.771  10.984  0.00  0.00    +0.022 C 
ATOM     17  C   UNL     1     -13.603  -3.494  12.087  0.00  0.00    +0.022 C 
ATOM     18  C   UNL     1     -12.172  -5.576  10.555  0.00  0.00    +0.002 C 
ATOM     19  C   UNL     1     -12.148  -3.304  11.657  0.00  0.00    +0.002 C 
ATOM     20  C   UNL     1     -11.826  -4.099  10.395  0.00  0.00    +0.000 C 
ENDBRANCH   6  15
ENDBRANCH   3  21
ENDBRANCH  12   3
TORSDOF 5
ENDMDL
MODEL 4
REMARK VINA RESULT:      -6.4      2.084      3.119
REMARK  Name = 11912476
REMARK  8 active torsions:
REMARK  status: ('A' for Active; 'I' for Inactive)
REMARK    1  A    between atoms: O_3  and  C_12
REMARK    2  A    between atoms: O_3  and  C_21
REMARK    3  A    between atoms: N_5  and  C_11
REMARK    4  A    between atoms: N_6  and  C_15
REMARK    5  A    between atoms: C_23  and  C_24
REMARK    6  A    between atoms: C_23  and  C_27
REMARK    7  A    between atoms: C_23  and  C_28
REMARK    8  A    between atoms: C_23  and  C_29
REMARK                            x       y       z     vdW  Elec       q    Type
REMARK                         _______ _______ _______ _____ _____    ______ ____
ROOT
ATOM      1  O   UNL     1      -7.034 -10.558  15.547  0.00  0.00    -0.368 OA
ATOM      2  O   UNL     1      -7.401 -10.671  18.590  0.00  0.00    -0.368 OA
ATOM      9  C   UNL     1      -7.402  -9.562  17.668  0.00  0.00    +0.173 C 
ATOM     10  C   UNL     1      -6.358  -9.870  16.611  0.00  0.00    +0.192 C 
ATOM     11  C   UNL     1      -8.701  -9.529  16.898  0.00  0.00    +0.130 C 
ATOM     12  C   UNL     1      -5.405 -10.779  17.349  0.00  0.00    +0.235 C 
ATOM     13  C   UNL     1      -8.449 -10.540  15.793  0.00  0.00    +0.185 C 
ATOM     14  C   UNL     1      -6.341 -11.571  18.235  0.00  0.00    +0.207 C 
ENDROOT
BRANCH  11   5
ATOM      5  N   UNL     1      -8.919  -8.214  16.336  0.00  0.00    -0.306 N 
ATOM      7  N   UNL     1     -11.252  -8.429  16.451  0.00  0.00    -0.219 NA
ATOM      8  N   UNL     1     -10.236  -6.423  15.584  0.00  0.00    -0.223 NA
ATOM     22  C   UNL     1     -10.174  -7.672  16.118  0.00  0.00    +0.216 A 
ATOM     24  C   UNL     1     -12.459  -7.871  16.225  0.00  0.00    +0.052 A 
ATOM     25  C   UNL     1     -12.633  -6.611  15.690  0.00  0.00    +0.043 A 
ATOM     26  C   UNL     1     -11.475  -5.926  15.385  0.00  0.00    +0.116 A 
ATOM     30  H   UNL     1      -8.122  -7.621  16.133  0.00  0.00    +0.149 HD
BRANCH  24  23
ATOM     23  C   UNL     1     -13.655  -8.687  16.586  0.00  0.00    +0.005 C 
ATOM     27  C   UNL     1     -14.036  -9.808  15.562  0.00  0.00    +0.017 C 
ATOM     28  C   UNL     1     -13.448  -9.421  17.947  0.00  0.00    +0.017 C 
ATOM     29  C   UNL     1     -14.929  -7.797  16.719  0.00  0.00    +0.017 C 
ENDBRANCH  24  23
ENDBRANCH  11   5
BRANCH  12   3
ATOM      3  O   UNL     1      -4.650 -11.613  16.498  0.00  0.00    -0.442 OA
BRANCH   3  21
ATOM      4  O   UNL     1      -2.717 -10.414  16.171  0.00  0.00    -0.226 OA
ATOM      6  N   UNL     1      -4.005 -11.134  14.381  0.00  0.00    -0.278 N 
ATOM     21  C   UNL     1      -3.697 -10.998  15.718  0.00  0.00    +0.401 C 
ATOM     31  H   UNL     1      -4.874 -11.604  14.147  0.00  0.00    +0.152 HD
BRANCH   6  15
ATOM     15  C   UNL     1      -3.195 -10.596  13.311  0.00  0.00    +0.076 C 
ATOM     16  C   UNL     1      -4.063 -10.160  12.127  0.00  0.00    +0.022 C 
ATOM     17  C   UNL     1      -2.121 -11.599  12.874  0.00  0.00    +0.022 C 
ATOM     18  C   UNL     1      -4.647 -11.349  11.361  0.00  0.00    +0.002 C 
ATOM     19  C   UNL     1      -2.708 -12.786  12.108  0.00  0.00    +0.002 C 
ATOM     20  C   UNL     1      -3.559 -12.327  10.928  0.00  0.00    +0.000 C 
ENDBRANCH   6  15
ENDBRANCH   3  21
ENDBRANCH  12   3
TORSDOF 5
ENDMDL
MODEL 5
REMARK VINA RESULT:      -6.4      5.312      7.897
REMARK  Name = 11912476
REMARK  8 active torsions:
REMARK  status: ('A' for Active; 'I' for Inactive)
REMARK    1  A    between atoms: O_3  and  C_12
REMARK    2  A    between atoms: O_3  and  C_21
REMARK    3  A    between atoms: N_5  and  C_11
REMARK    4  A    between atoms: N_6  and  C_15
REMARK    5  A    between atoms: C_23  and  C_24
REMARK    6  A    between atoms: C_23  and  C_27
REMARK    7  A    between atoms: C_23  and  C_28
REMARK    8  A    between atoms: C_23  and  C_29
REMARK                            x       y       z     vdW  Elec       q    Type
REMARK                         _______ _______ _______ _____ _____    ______ ____
ROOT
ATOM      1  O   UNL     1     -11.089  -5.870  15.966  0.00  0.00    -0.368 OA
ATOM      2  O   UNL     1     -12.544  -8.210  14.619  0.00  0.00    -0.368 OA
ATOM      9  C   UNL     1     -11.144  -7.868  14.689  0.00  0.00    +0.173 C 
ATOM     10  C   UNL     1     -11.058  -6.356  14.614  0.00  0.00    +0.192 C 
ATOM     11  C   UNL     1     -10.599  -8.196  16.059  0.00  0.00    +0.130 C 
ATOM     12  C   UNL     1     -12.316  -5.994  13.862  0.00  0.00    +0.235 C 
ATOM     13  C   UNL     1     -11.010  -6.981  16.872  0.00  0.00    +0.185 C 
ATOM     14  C   UNL     1     -13.303  -7.016  14.380  0.00  0.00    +0.207 C 
ENDROOT
BRANCH  11   5
ATOM      5  N   UNL     1      -9.157  -8.306  16.013  0.00  0.00    -0.306 N 
ATOM      7  N   UNL     1      -9.134 -10.105  17.519  0.00  0.00    -0.219 NA
ATOM      8  N   UNL     1      -7.084  -9.240  16.593  0.00  0.00    -0.223 NA
ATOM     22  C   UNL     1      -8.436  -9.246  16.729  0.00  0.00    +0.216 A 
ATOM     24  C   UNL     1      -8.401 -11.007  18.203  0.00  0.00    +0.052 A 
ATOM     25  C   UNL     1      -7.025 -11.087  18.135  0.00  0.00    +0.043 A 
ATOM     26  C   UNL     1      -6.414 -10.169  17.306  0.00  0.00    +0.116 A 
ATOM     30  H   UNL     1      -8.632  -7.705  15.388  0.00  0.00    +0.149 HD
BRANCH  24  23
ATOM     23  C   UNL     1      -9.150 -11.958  19.074  0.00  0.00    +0.005 C 
ATOM     27  C   UNL     1     -10.127 -11.299  20.104  0.00  0.00    +0.017 C 
ATOM     28  C   UNL     1     -10.032 -12.927  18.226  0.00  0.00    +0.017 C 
ATOM     29  C   UNL     1      -8.177 -12.831  19.926  0.00  0.00    +0.017 C 
ENDBRANCH  24  23
ENDBRANCH  11   5
BRANCH  12   3
ATOM      3  O   UNL     1     -12.751  -4.672  14.094  0.00  0.00    -0.442 OA
BRANCH   3  21
ATOM      4  O   UNL     1     -14.207  -3.243  13.039  0.00  0.00    -0.226 OA
ATOM      6  N   UNL     1     -12.450  -4.234  11.893  0.00  0.00    -0.278 N 
ATOM     21  C   UNL     1     -13.227  -3.979  13.004  0.00  0.00    +0.401 C 
ATOM     31  H   UNL     1     -11.693  -4.902  11.996  0.00  0.00    +0.152 HD
BRANCH   6  15
ATOM     15  C   UNL     1     -12.694  -3.652  10.592  0.00  0.00    +0.076 C 
ATOM     16  C   UNL     1     -13.712  -4.479   9.801  0.00  0.00    +0.022 C 
ATOM     17  C   UNL     1     -11.387  -3.482   9.810  0.00  0.00    +0.022 C 
ATOM     18  C   UNL     1     -13.136  -5.813   9.322  0.00  0.00    +0.002 C 
ATOM     19  C   UNL     1     -10.815  -4.817   9.332  0.00  0.00    +0.002 C 
ATOM     20  C   UNL     1     -11.843  -5.617   8.537  0.00  0.00    +0.000 C 
ENDBRANCH   6  15
ENDBRANCH   3  21
ENDBRANCH  12   3
TORSDOF 5
ENDMDL
MODEL 6
REMARK VINA RESULT:      -6.4      2.933      9.340
REMARK  Name = 11912476
REMARK  8 active torsions:
REMARK  status: ('A' for Active; 'I' for Inactive)
REMARK    1  A    between atoms: O_3  and  C_12
REMARK    2  A    between atoms: O_3  and  C_21
REMARK    3  A    between atoms: N_5  and  C_11
REMARK    4  A    between atoms: N_6  and  C_15
REMARK    5  A    between atoms: C_23  and  C_24
REMARK    6  A    between atoms: C_23  and  C_27
REMARK    7  A    between atoms: C_23  and  C_28
REMARK    8  A    between atoms: C_23  and  C_29
REMARK                            x       y       z     vdW  Elec       q    Type
REMARK                         _______ _______ _______ _____ _____    ______ ____
ROOT
ATOM      1  O   UNL     1      -6.212 -12.339  19.039  0.00  0.00    -0.368 OA
ATOM      2  O   UNL     1      -7.674 -11.096  16.646  0.00  0.00    -0.368 OA
ATOM      9  C   UNL     1      -6.388 -10.809  17.235  0.00  0.00    +0.173 C 
ATOM     10  C   UNL     1      -6.546 -10.975  18.734  0.00  0.00    +0.192 C 
ATOM     11  C   UNL     1      -5.394 -11.880  16.853  0.00  0.00    +0.130 C 
ATOM     12  C   UNL     1      -8.016 -10.701  18.940  0.00  0.00    +0.235 C 
ATOM     13  C   UNL     1      -5.691 -12.975  17.861  0.00  0.00    +0.185 C 
ATOM     14  C   UNL     1      -8.630 -11.301  17.696  0.00  0.00    +0.207 C 
ENDROOT
BRANCH  11   5
ATOM      5  N   UNL     1      -4.041 -11.393  17.023  0.00  0.00    -0.306 N 
ATOM      7  N   UNL     1      -3.754 -11.055  14.719  0.00  0.00    -0.219 NA
ATOM      8  N   UNL     1      -1.984 -10.549  16.274  0.00  0.00    -0.223 NA
ATOM     22  C   UNL     1      -3.235 -10.986  15.974  0.00  0.00    +0.216 A 
ATOM     24  C   UNL     1      -2.942 -10.652  13.720  0.00  0.00    +0.052 A 
ATOM     25  C   UNL     1      -1.657 -10.190  13.917  0.00  0.00    +0.043 A 
ATOM     26  C   UNL     1      -1.226 -10.160  15.228  0.00  0.00    +0.116 A 
ATOM     30  H   UNL     1      -3.664 -11.288  17.958  0.00  0.00    +0.149 HD
BRANCH  24  23
ATOM     23  C   UNL     1      -3.494 -10.721  12.337  0.00  0.00    +0.005 C 
ATOM     27  C   UNL     1      -4.897 -10.056  12.140  0.00  0.00    +0.017 C 
ATOM     28  C   UNL     1      -2.552 -10.010  11.316  0.00  0.00    +0.017 C 
ATOM     29  C   UNL     1      -3.666 -12.199  11.869  0.00  0.00    +0.017 C 
ENDBRANCH  24  23
ENDBRANCH  11   5
BRANCH  12   3
ATOM      3  O   UNL     1      -8.537 -11.276  20.119  0.00  0.00    -0.442 OA
BRANCH   3  21
ATOM      4  O   UNL     1      -9.661 -13.236  19.706  0.00  0.00    -0.226 OA
ATOM      6  N   UNL     1     -10.799 -11.276  20.198  0.00  0.00    -0.278 N 
ATOM     21  C   UNL     1      -9.672 -12.042  19.982  0.00  0.00    +0.401 C 
ATOM     31  H   UNL     1     -10.665 -10.286  20.374  0.00  0.00    +0.152 HD
BRANCH   6  15
ATOM     15  C   UNL     1     -12.147 -11.794  20.126  0.00  0.00    +0.076 C 
ATOM     16  C   UNL     1     -12.681 -11.747  18.690  0.00  0.00    +0.022 C 
ATOM     17  C   UNL     1     -13.077 -11.048  21.090  0.00  0.00    +0.022 C 
ATOM     18  C   UNL     1     -12.986 -10.321  18.227  0.00  0.00    +0.002 C 
ATOM     19  C   UNL     1     -13.381  -9.624  20.623  0.00  0.00    +0.002 C 
ATOM     20  C   UNL     1     -13.921  -9.604  19.196  0.00  0.00    +0.000 C 
ENDBRANCH   6  15
ENDBRANCH   3  21
ENDBRANCH  12   3
TORSDOF 5
ENDMDL
MODEL 7
REMARK VINA RESULT:      -6.3      4.239      7.017
REMARK  Name = 11912476
REMARK  8 active torsions:
REMARK  status: ('A' for Active; 'I' for Inactive)
REMARK    1  A    between atoms: O_3  and  C_12
REMARK    2  A    between atoms: O_3  and  C_21
REMARK    3  A    between atoms: N_5  and  C_11
REMARK    4  A    between atoms: N_6  and  C_15
REMARK    5  A    between atoms: C_23  and  C_24
REMARK    6  A    between atoms: C_23  and  C_27
REMARK    7  A    between atoms: C_23  and  C_28
REMARK    8  A    between atoms: C_23  and  C_29
REMARK                            x       y       z     vdW  Elec       q    Type
REMARK                         _______ _______ _______ _____ _____    ______ ____
ROOT
ATOM      1  O   UNL     1      -4.777  -9.112  10.070  0.00  0.00    -0.368 OA
ATOM      2  O   UNL     1      -5.833 -11.963  10.476  0.00  0.00    -0.368 OA
ATOM      9  C   UNL     1      -4.536 -11.380  10.720  0.00  0.00    +0.173 C 
ATOM     10  C   UNL     1      -4.288 -10.381   9.606  0.00  0.00    +0.192 C 
ATOM     11  C   UNL     1      -4.576 -10.531  11.969  0.00  0.00    +0.130 C 
ATOM     12  C   UNL     1      -5.134 -10.929   8.482  0.00  0.00    +0.235 C 
ATOM     13  C   UNL     1      -5.146  -9.222  11.453  0.00  0.00    +0.185 C 
ATOM     14  C   UNL     1      -6.333 -11.476   9.223  0.00  0.00    +0.207 C 
ENDROOT
BRANCH  11   5
ATOM      5  N   UNL     1      -3.238 -10.330  12.482  0.00  0.00    -0.306 N 
ATOM      7  N   UNL     1      -3.886 -10.828  14.681  0.00  0.00    -0.219 NA
ATOM      8  N   UNL     1      -1.603 -10.259  14.164  0.00  0.00    -0.223 NA
ATOM     22  C   UNL     1      -2.898 -10.477  13.816  0.00  0.00    +0.216 A 
ATOM     24  C   UNL     1      -3.521 -10.963  15.972  0.00  0.00    +0.052 A 
ATOM     25  C   UNL     1      -2.234 -10.766  16.430  0.00  0.00    +0.043 A 
ATOM     26  C   UNL     1      -1.307 -10.412  15.471  0.00  0.00    +0.116 A 
ATOM     30  H   UNL     1      -2.484 -10.119  11.838  0.00  0.00    +0.149 HD
BRANCH  24  23
ATOM     23  C   UNL     1      -4.592 -11.349  16.936  0.00  0.00    +0.005 C 
ATOM     27  C   UNL     1      -5.731 -10.294  17.131  0.00  0.00    +0.017 C 
ATOM     28  C   UNL     1      -5.311 -12.659  16.488  0.00  0.00    +0.017 C 
ATOM     29  C   UNL     1      -4.008 -11.596  18.362  0.00  0.00    +0.017 C 
ENDBRANCH  24  23
ENDBRANCH  11   5
BRANCH  12   3
ATOM      3  O   UNL     1      -5.499  -9.957   7.527  0.00  0.00    -0.442 OA
BRANCH   3  21
ATOM      4  O   UNL     1      -6.370  -9.900   5.402  0.00  0.00    -0.226 OA
ATOM      6  N   UNL     1      -4.702 -11.405   5.980  0.00  0.00    -0.278 N 
ATOM     21  C   UNL     1      -5.594 -10.380   6.221  0.00  0.00    +0.401 C 
ATOM     31  H   UNL     1      -4.149 -11.736   6.763  0.00  0.00    +0.152 HD
BRANCH   6  15
ATOM     15  C   UNL     1      -4.561 -12.062   4.700  0.00  0.00    +0.076 C 
ATOM     16  C   UNL     1      -5.386 -13.352   4.648  0.00  0.00    +0.022 C 
ATOM     17  C   UNL     1      -3.087 -12.332   4.377  0.00  0.00    +0.022 C 
ATOM     18  C   UNL     1      -4.789 -14.463   5.514  0.00  0.00    +0.002 C 
ATOM     19  C   UNL     1      -2.494 -13.443   5.243  0.00  0.00    +0.002 C 
ATOM     20  C   UNL     1      -3.326 -14.720   5.167  0.00  0.00    +0.000 C 
ENDBRANCH   6  15
ENDBRANCH   3  21
ENDBRANCH  12   3
TORSDOF 5
ENDMDL
MODEL 8
REMARK VINA RESULT:      -6.3      2.579      8.404
REMARK  Name = 11912476
REMARK  8 active torsions:
REMARK  status: ('A' for Active; 'I' for Inactive)
REMARK    1  A    between atoms: O_3  and  C_12
REMARK    2  A    between atoms: O_3  and  C_21
REMARK    3  A    between atoms: N_5  and  C_11
REMARK    4  A    between atoms: N_6  and  C_15
REMARK    5  A    between atoms: C_23  and  C_24
REMARK    6  A    between atoms: C_23  and  C_27
REMARK    7  A    between atoms: C_23  and  C_28
REMARK    8  A    between atoms: C_23  and  C_29
REMARK                            x       y       z     vdW  Elec       q    Type
REMARK                         _______ _______ _______ _____ _____    ______ ____
ROOT
ATOM      1  O   UNL     1      -5.899 -12.252  18.712  0.00  0.00    -0.368 OA
ATOM      2  O   UNL     1      -6.934 -12.399  15.828  0.00  0.00    -0.368 OA
ATOM      9  C   UNL     1      -5.859 -11.640  16.421  0.00  0.00    +0.173 C 
ATOM     10  C   UNL     1      -6.326 -11.225  17.803  0.00  0.00    +0.192 C 
ATOM     11  C   UNL     1      -4.677 -12.541  16.691  0.00  0.00    +0.130 C 
ATOM     12  C   UNL     1      -7.828 -11.204  17.648  0.00  0.00    +0.235 C 
ATOM     13  C   UNL     1      -5.052 -13.180  18.016  0.00  0.00    +0.185 C 
ATOM     14  C   UNL     1      -8.067 -12.364  16.708  0.00  0.00    +0.207 C 
ENDROOT
BRANCH  11   5
ATOM      5  N   UNL     1      -3.470 -11.756  16.834  0.00  0.00    -0.306 N 
ATOM      7  N   UNL     1      -3.354 -11.308  14.534  0.00  0.00    -0.219 NA
ATOM      8  N   UNL     1      -1.694 -10.438  16.049  0.00  0.00    -0.223 NA
ATOM     22  C   UNL     1      -2.820 -11.149  15.774  0.00  0.00    +0.216 A 
ATOM     24  C   UNL     1      -2.695 -10.704  13.524  0.00  0.00    +0.052 A 
ATOM     25  C   UNL     1      -1.546  -9.959  13.695  0.00  0.00    +0.043 A 
ATOM     26  C   UNL     1      -1.087  -9.860  14.993  0.00  0.00    +0.116 A 
ATOM     30  H   UNL     1      -3.093 -11.587  17.760  0.00  0.00    +0.149 HD
BRANCH  24  23
ATOM     23  C   UNL     1      -3.267 -10.868  12.156  0.00  0.00    +0.005 C 
ATOM     27  C   UNL     1      -4.785 -10.516  12.017  0.00  0.00    +0.017 C 
ATOM     28  C   UNL     1      -2.533  -9.958  11.123  0.00  0.00    +0.017 C 
ATOM     29  C   UNL     1      -3.136 -12.342  11.662  0.00  0.00    +0.017 C 
ENDBRANCH  24  23
ENDBRANCH  11   5
BRANCH  12   3
ATOM      3  O   UNL     1      -8.521 -11.358  18.867  0.00  0.00    -0.442 OA
BRANCH   3  21
ATOM      4  O   UNL     1     -10.398 -10.677  20.003  0.00  0.00    -0.226 OA
ATOM      6  N   UNL     1      -9.804  -9.719  17.975  0.00  0.00    -0.278 N 
ATOM     21  C   UNL     1      -9.649 -10.587  19.036  0.00  0.00    +0.401 C 
ATOM     31  H   UNL     1      -9.132  -9.783  17.217  0.00  0.00    +0.152 HD
BRANCH   6  15
ATOM     15  C   UNL     1     -10.895  -8.778  17.861  0.00  0.00    +0.076 C 
ATOM     16  C   UNL     1     -12.117  -9.426  17.202  0.00  0.00    +0.022 C 
ATOM     17  C   UNL     1     -10.459  -7.517  17.106  0.00  0.00    +0.022 C 
ATOM     18  C   UNL     1     -11.909  -9.678  15.707  0.00  0.00    +0.002 C 
ATOM     19  C   UNL     1     -10.254  -7.772  15.613  0.00  0.00    +0.002 C 
ATOM     20  C   UNL     1     -11.487  -8.408  14.976  0.00  0.00    +0.000 C 
ENDBRANCH   6  15
ENDBRANCH   3  21
ENDBRANCH  12   3
TORSDOF 5
ENDMDL
MODEL 9
REMARK VINA RESULT:      -6.2      4.165      7.090
REMARK  Name = 11912476
REMARK  8 active torsions:
REMARK  status: ('A' for Active; 'I' for Inactive)
REMARK    1  A    between atoms: O_3  and  C_12
REMARK    2  A    between atoms: O_3  and  C_21
REMARK    3  A    between atoms: N_5  and  C_11
REMARK    4  A    between atoms: N_6  and  C_15
REMARK    5  A    between atoms: C_23  and  C_24
REMARK    6  A    between atoms: C_23  and  C_27
REMARK    7  A    between atoms: C_23  and  C_28
REMARK    8  A    between atoms: C_23  and  C_29
REMARK                            x       y       z     vdW  Elec       q    Type
REMARK                         _______ _______ _______ _____ _____    ______ ____
ROOT
ATOM      1  O   UNL     1      -4.564  -8.939   9.926  0.00  0.00    -0.368 OA
ATOM      2  O   UNL     1      -5.798 -11.742  10.093  0.00  0.00    -0.368 OA
ATOM      9  C   UNL     1      -4.489 -11.251  10.448  0.00  0.00    +0.173 C 
ATOM     10  C   UNL     1      -4.118 -10.205   9.415  0.00  0.00    +0.192 C 
ATOM     11  C   UNL     1      -4.560 -10.476  11.742  0.00  0.00    +0.130 C 
ATOM     12  C   UNL     1      -4.920 -10.636   8.210  0.00  0.00    +0.235 C 
ATOM     13  C   UNL     1      -5.025  -9.108  11.275  0.00  0.00    +0.185 C 
ATOM     14  C   UNL     1      -6.191 -11.155   8.844  0.00  0.00    +0.207 C 
ENDROOT
BRANCH  11   5
ATOM      5  N   UNL     1      -3.248 -10.383  12.346  0.00  0.00    -0.306 N 
ATOM      7  N   UNL     1      -4.100 -10.685  14.511  0.00  0.00    -0.219 NA
ATOM      8  N   UNL     1      -1.738 -10.383  14.141  0.00  0.00    -0.223 NA
ATOM     22  C   UNL     1      -3.021 -10.487  13.707  0.00  0.00    +0.216 A 
ATOM     24  C   UNL     1      -3.843 -10.782  15.831  0.00  0.00    +0.052 A 
ATOM     25  C   UNL     1      -2.578 -10.691  16.375  0.00  0.00    +0.043 A 
ATOM     26  C   UNL     1      -1.553 -10.489  15.473  0.00  0.00    +0.116 A 
ATOM     30  H   UNL     1      -2.433 -10.288  11.751  0.00  0.00    +0.149 HD
BRANCH  24  23
ATOM     23  C   UNL     1      -5.015 -10.999  16.729  0.00  0.00    +0.005 C 
ATOM     27  C   UNL     1      -4.683 -11.092  18.255  0.00  0.00    +0.017 C 
ATOM     28  C   UNL     1      -6.050  -9.839  16.598  0.00  0.00    +0.017 C 
ATOM     29  C   UNL     1      -5.752 -12.330  16.383  0.00  0.00    +0.017 C 
ENDBRANCH  24  23
ENDBRANCH  11   5
BRANCH  12   3
ATOM      3  O   UNL     1      -5.171  -9.591   7.297  0.00  0.00    -0.442 OA
BRANCH   3  21
ATOM      4  O   UNL     1      -5.665 -10.867   5.452  0.00  0.00    -0.226 OA
ATOM      6  N   UNL     1      -6.941  -9.012   6.011  0.00  0.00    -0.278 N 
ATOM     21  C   UNL     1      -5.909  -9.911   6.181  0.00  0.00    +0.401 C 
ATOM     31  H   UNL     1      -7.000  -8.239   6.665  0.00  0.00    +0.152 HD
BRANCH   6  15
ATOM     15  C   UNL     1      -7.895  -9.081   4.926  0.00  0.00    +0.076 C 
ATOM     16  C   UNL     1      -8.484  -7.699   4.622  0.00  0.00    +0.022 C 
ATOM     17  C   UNL     1      -8.998 -10.102   5.226  0.00  0.00    +0.022 C 
ATOM     18  C   UNL     1      -9.448  -7.222   5.710  0.00  0.00    +0.002 C 
ATOM     19  C   UNL     1      -9.960  -9.621   6.313  0.00  0.00    +0.002 C 
ATOM     20  C   UNL     1     -10.542  -8.249   5.982  0.00  0.00    +0.000 C 
ENDBRANCH   6  15
ENDBRANCH   3  21
ENDBRANCH  12   3
TORSDOF 5
ENDMDL
MODEL 10
REMARK VINA RESULT:      -6.2      1.634      2.134
REMARK  Name = 11912476
REMARK  8 active torsions:
REMARK  status: ('A' for Active; 'I' for Inactive)
REMARK    1  A    between atoms: O_3  and  C_12
REMARK    2  A    between atoms: O_3  and  C_21
REMARK    3  A    between atoms: N_5  and  C_11
REMARK    4  A    between atoms: N_6  and  C_15
REMARK    5  A    between atoms: C_23  and  C_24
REMARK    6  A    between atoms: C_23  and  C_27
REMARK    7  A    between atoms: C_23  and  C_28
REMARK    8  A    between atoms: C_23  and  C_29
REMARK                            x       y       z     vdW  Elec       q    Type
REMARK                         _______ _______ _______ _____ _____    ______ ____
ROOT
ATOM      1  O   UNL     1      -4.784 -11.325  13.603  0.00  0.00    -0.368 OA
ATOM      2  O   UNL     1      -2.960 -11.455  16.066  0.00  0.00    -0.368 OA
ATOM      9  C   UNL     1      -3.940 -10.480  15.652  0.00  0.00    +0.173 C 
ATOM     10  C   UNL     1      -3.847 -10.379  14.142  0.00  0.00    +0.192 C 
ATOM     11  C   UNL     1      -5.333 -11.011  15.897  0.00  0.00    +0.130 C 
ATOM     12  C   UNL     1      -2.420 -10.790  13.874  0.00  0.00    +0.235 C 
ATOM     13  C   UNL     1      -5.571 -11.875  14.671  0.00  0.00    +0.185 C 
ATOM     14  C   UNL     1      -2.194 -11.858  14.922  0.00  0.00    +0.207 C 
ENDROOT
BRANCH  11   5
ATOM      5  N   UNL     1      -6.285  -9.922  15.938  0.00  0.00    -0.306 N 
ATOM      7  N   UNL     1      -7.676 -11.047  17.456  0.00  0.00    -0.219 NA
ATOM      8  N   UNL     1      -8.245  -8.848  16.652  0.00  0.00    -0.223 NA
ATOM     22  C   UNL     1      -7.437  -9.939  16.705  0.00  0.00    +0.216 A 
ATOM     24  C   UNL     1      -8.806 -11.031  18.192  0.00  0.00    +0.052 A 
ATOM     25  C   UNL     1      -9.693  -9.974  18.210  0.00  0.00    +0.043 A 
ATOM     26  C   UNL     1      -9.358  -8.899  17.412  0.00  0.00    +0.116 A 
ATOM     30  H   UNL     1      -6.091  -9.071  15.422  0.00  0.00    +0.149 HD
BRANCH  24  23
ATOM     23  C   UNL     1      -9.084 -12.238  19.022  0.00  0.00    +0.005 C 
ATOM     27  C   UNL     1     -10.184 -12.058  20.120  0.00  0.00    +0.017 C 
ATOM     28  C   UNL     1      -9.568 -13.431  18.141  0.00  0.00    +0.017 C 
ATOM     29  C   UNL     1      -7.807 -12.705  19.787  0.00  0.00    +0.017 C 
ENDBRANCH  24  23
ENDBRANCH  11   5
BRANCH  12   3
ATOM      3  O   UNL     1      -2.210 -11.278  12.567  0.00  0.00    -0.442 OA
BRANCH   3  21
ATOM      4  O   UNL     1      -1.429  -9.502  11.337  0.00  0.00    -0.226 OA
ATOM      6  N   UNL     1      -3.435 -10.540  10.812  0.00  0.00    -0.278 N 
ATOM     21  C   UNL     1      -2.282 -10.357  11.546  0.00  0.00    +0.401 C 
ATOM     31  H   UNL     1      -4.079 -11.260  11.125  0.00  0.00    +0.152 HD
BRANCH   6  15
ATOM     15  C   UNL     1      -3.798  -9.728   9.672  0.00  0.00    +0.076 C 
ATOM     16  C   UNL     1      -4.614  -8.505  10.102  0.00  0.00    +0.022 C 
ATOM     17  C   UNL     1      -4.548 -10.556   8.622  0.00  0.00    +0.022 C 
ATOM     18  C   UNL     1      -6.030  -8.875  10.547  0.00  0.00    +0.002 C 
ATOM     19  C   UNL     1      -5.964 -10.922   9.070  0.00  0.00    +0.002 C 
ATOM     20  C   UNL     1      -6.760  -9.688   9.483  0.00  0.00    +0.000 C 
ENDBRANCH   6  15
ENDBRANCH   3  21
ENDBRANCH  12   3
TORSDOF 5
ENDMDL
