MODEL 1
REMARK VINA RESULT:      -6.5      0.000      0.000
REMARK  Name = 51137914
REMARK  5 active torsions:
REMARK  status: ('A' for Active; 'I' for Inactive)
REMARK    1  A    between atoms: S_1  and  N_4
REMARK    2  A    between atoms: S_1  and  C_12
REMARK    3  A    between atoms: N_5  and  C_15
REMARK    4  A    between atoms: C_7  and  C_11
REMARK    5  A    between atoms: C_12  and  C_16
REMARK                            x       y       z     vdW  Elec       q    Type
REMARK                         _______ _______ _______ _____ _____    ______ ____
ROOT
ATOM      4  N   UNL     1      10.896   6.383   1.897  0.00  0.00    -0.180 NA
ATOM      7  C   UNL     1       9.798   7.512   3.732  0.00  0.00    +0.072 C 
ATOM      8  C   UNL     1       9.548   6.696   2.453  0.00  0.00    +0.120 C 
ATOM      9  C   UNL     1      11.193   8.096   3.498  0.00  0.00    +0.029 C 
ATOM     10  C   UNL     1      11.934   6.984   2.769  0.00  0.00    +0.110 C 
ENDROOT
BRANCH   7  11
ATOM      5  N   UNL     1       9.320   7.372   6.210  0.00  0.00    -0.330 N 
ATOM      6  N   UNL     1      10.001   5.494   5.235  0.00  0.00    -0.232 NA
ATOM     11  C   UNL     1       9.715   6.764   5.052  0.00  0.00    +0.115 A 
ATOM     13  C   UNL     1       9.353   6.433   7.208  0.00  0.00    +0.069 A 
ATOM     14  C   UNL     1       9.780   5.270   6.574  0.00  0.00    +0.089 A 
ATOM     15  C   UNL     1       8.935   8.758   6.360  0.00  0.00    +0.150 C 
ATOM     17  C   UNL     1       9.053   6.499   8.569  0.00  0.00    +0.028 A 
ATOM     18  C   UNL     1       9.924   4.092   7.328  0.00  0.00    +0.030 A 
ATOM     21  C   UNL     1       9.201   5.318   9.305  0.00  0.00    +0.002 A 
ATOM     22  C   UNL     1       9.629   4.135   8.697  0.00  0.00    +0.002 A 
ENDBRANCH   7  11
BRANCH   4   1
ATOM      1  S   UNL     1      11.178   4.845   1.245  0.00  0.00    +0.036 S 
ATOM      2  O   UNL     1       9.907   4.214   0.938  0.00  0.00    -0.158 OA
ATOM      3  O   UNL     1      12.180   4.162   2.041  0.00  0.00    -0.158 OA
BRANCH   1  12
ATOM     12  C   UNL     1      11.935   5.309  -0.294  0.00  0.00    +0.220 C 
BRANCH  12  16
ATOM     16  C   UNL     1      11.573   4.272  -1.312  0.00  0.00    -0.025 A 
ATOM     19  C   UNL     1      12.268   3.063  -1.355  0.00  0.00    +0.005 A 
ATOM     20  C   UNL     1      10.541   4.516  -2.218  0.00  0.00    +0.005 A 
ATOM     23  C   UNL     1      11.930   2.099  -2.304  0.00  0.00    +0.000 A 
ATOM     24  C   UNL     1      10.202   3.551  -3.167  0.00  0.00    +0.000 A 
ATOM     25  C   UNL     1      10.898   2.341  -3.210  0.00  0.00    +0.000 A 
ENDBRANCH  12  16
ENDBRANCH   1  12
ENDBRANCH   4   1
TORSDOF 4
ENDMDL
MODEL 2
REMARK VINA RESULT:      -6.4     23.364     26.782
REMARK  Name = 51137914
REMARK  5 active torsions:
REMARK  status: ('A' for Active; 'I' for Inactive)
REMARK    1  A    between atoms: S_1  and  N_4
REMARK    2  A    between atoms: S_1  and  C_12
REMARK    3  A    between atoms: N_5  and  C_15
REMARK    4  A    between atoms: C_7  and  C_11
REMARK    5  A    between atoms: C_12  and  C_16
REMARK                            x       y       z     vdW  Elec       q    Type
REMARK                         _______ _______ _______ _____ _____    ______ ____
ROOT
ATOM      4  N   UNL     1      -5.512 -11.584  16.582  0.00  0.00    -0.180 NA
ATOM      7  C   UNL     1      -3.789 -11.632  14.885  0.00  0.00    +0.072 C 
ATOM      8  C   UNL     1      -4.958 -12.431  15.486  0.00  0.00    +0.120 C 
ATOM      9  C   UNL     1      -3.395 -10.692  16.026  0.00  0.00    +0.029 C 
ATOM     10  C   UNL     1      -4.724 -10.331  16.675  0.00  0.00    +0.110 C 
ENDROOT
BRANCH   7  11
ATOM      5  N   UNL     1      -3.156 -10.805  12.583  0.00  0.00    -0.330 N 
ATOM      6  N   UNL     1      -5.168 -10.212  13.318  0.00  0.00    -0.232 NA
ATOM     11  C   UNL     1      -4.067 -10.871  13.600  0.00  0.00    +0.115 A 
ATOM     13  C   UNL     1      -3.706 -10.052  11.577  0.00  0.00    +0.069 A 
ATOM     14  C   UNL     1      -4.961  -9.694  12.060  0.00  0.00    +0.089 A 
ATOM     15  C   UNL     1      -1.846 -11.417  12.566  0.00  0.00    +0.150 C 
ATOM     17  C   UNL     1      -3.227  -9.666  10.325  0.00  0.00    +0.028 A 
ATOM     18  C   UNL     1      -5.803  -8.904  11.260  0.00  0.00    +0.030 A 
ATOM     21  C   UNL     1      -4.079  -8.879   9.541  0.00  0.00    +0.002 A 
ATOM     22  C   UNL     1      -5.344  -8.504   9.999  0.00  0.00    +0.002 A 
ENDBRANCH   7  11
BRANCH   4   1
ATOM      1  S   UNL     1      -7.192 -11.501  16.785  0.00  0.00    +0.036 S 
ATOM      2  O   UNL     1      -7.633 -12.622  17.595  0.00  0.00    -0.158 OA
ATOM      3  O   UNL     1      -7.816 -11.208  15.509  0.00  0.00    -0.158 OA
BRANCH   1  12
ATOM     12  C   UNL     1      -7.299 -10.037  17.787  0.00  0.00    +0.220 C 
BRANCH  12  16
ATOM     16  C   UNL     1      -8.697  -9.512  17.679  0.00  0.00    -0.025 A 
ATOM     19  C   UNL     1      -9.739 -10.163  18.338  0.00  0.00    +0.005 A 
ATOM     20  C   UNL     1      -8.955  -8.371  16.919  0.00  0.00    +0.005 A 
ATOM     23  C   UNL     1     -11.041  -9.673  18.237  0.00  0.00    +0.000 A 
ATOM     24  C   UNL     1     -10.258  -7.881  16.818  0.00  0.00    +0.000 A 
ATOM     25  C   UNL     1     -11.301  -8.532  17.477  0.00  0.00    +0.000 A 
ENDBRANCH  12  16
ENDBRANCH   1  12
ENDBRANCH   4   1
TORSDOF 4
ENDMDL
MODEL 3
REMARK VINA RESULT:      -6.2     22.587     24.000
REMARK  Name = 51137914
REMARK  5 active torsions:
REMARK  status: ('A' for Active; 'I' for Inactive)
REMARK    1  A    between atoms: S_1  and  N_4
REMARK    2  A    between atoms: S_1  and  C_12
REMARK    3  A    between atoms: N_5  and  C_15
REMARK    4  A    between atoms: C_7  and  C_11
REMARK    5  A    between atoms: C_12  and  C_16
REMARK                            x       y       z     vdW  Elec       q    Type
REMARK                         _______ _______ _______ _____ _____    ______ ____
ROOT
ATOM      4  N   UNL     1      -3.017 -11.544  10.955  0.00  0.00    -0.180 NA
ATOM      7  C   UNL     1      -2.333 -10.848  13.167  0.00  0.00    +0.072 C 
ATOM      8  C   UNL     1      -2.646 -10.338  11.750  0.00  0.00    +0.120 C 
ATOM      9  C   UNL     1      -1.978 -12.318  12.932  0.00  0.00    +0.029 C 
ATOM     10  C   UNL     1      -2.924 -12.746  11.819  0.00  0.00    +0.110 C 
ENDROOT
BRANCH   7  11
ATOM      5  N   UNL     1      -3.161 -10.694  15.550  0.00  0.00    -0.330 N 
ATOM      6  N   UNL     1      -4.710 -10.546  13.963  0.00  0.00    -0.232 NA
ATOM     11  C   UNL     1      -3.428 -10.693  14.210  0.00  0.00    +0.115 A 
ATOM     13  C   UNL     1      -4.350 -10.537  16.214  0.00  0.00    +0.069 A 
ATOM     14  C   UNL     1      -5.301 -10.447  15.201  0.00  0.00    +0.089 A 
ATOM     15  C   UNL     1      -1.859 -10.835  16.163  0.00  0.00    +0.150 C 
ATOM     17  C   UNL     1      -4.666 -10.468  17.571  0.00  0.00    +0.028 A 
ATOM     18  C   UNL     1      -6.653 -10.277  15.545  0.00  0.00    +0.030 A 
ATOM     21  C   UNL     1      -6.017 -10.299  17.895  0.00  0.00    +0.002 A 
ATOM     22  C   UNL     1      -6.994 -10.205  16.901  0.00  0.00    +0.002 A 
ENDBRANCH   7  11
BRANCH   4   1
ATOM      1  S   UNL     1      -4.298 -11.437   9.850  0.00  0.00    +0.036 S 
ATOM      2  O   UNL     1      -5.555 -11.442  10.574  0.00  0.00    -0.158 OA
ATOM      3  O   UNL     1      -4.061 -12.354   8.752  0.00  0.00    -0.158 OA
BRANCH   1  12
ATOM     12  C   UNL     1      -4.030  -9.789   9.244  0.00  0.00    +0.220 C 
BRANCH  12  16
ATOM     16  C   UNL     1      -5.310  -9.316   8.627  0.00  0.00    -0.025 A 
ATOM     19  C   UNL     1      -5.689  -9.776   7.366  0.00  0.00    +0.005 A 
ATOM     20  C   UNL     1      -6.123  -8.415   9.314  0.00  0.00    +0.005 A 
ATOM     23  C   UNL     1      -6.881  -9.335   6.793  0.00  0.00    +0.000 A 
ATOM     24  C   UNL     1      -7.316  -7.973   8.741  0.00  0.00    +0.000 A 
ATOM     25  C   UNL     1      -7.695  -8.434   7.479  0.00  0.00    +0.000 A 
ENDBRANCH  12  16
ENDBRANCH   1  12
ENDBRANCH   4   1
TORSDOF 4
ENDMDL
MODEL 4
REMARK VINA RESULT:      -6.2     23.588     26.889
REMARK  Name = 51137914
REMARK  5 active torsions:
REMARK  status: ('A' for Active; 'I' for Inactive)
REMARK    1  A    between atoms: S_1  and  N_4
REMARK    2  A    between atoms: S_1  and  C_12
REMARK    3  A    between atoms: N_5  and  C_15
REMARK    4  A    between atoms: C_7  and  C_11
REMARK    5  A    between atoms: C_12  and  C_16
REMARK                            x       y       z     vdW  Elec       q    Type
REMARK                         _______ _______ _______ _____ _____    ______ ____
ROOT
ATOM      4  N   UNL     1      -7.594 -10.471  16.267  0.00  0.00    -0.180 NA
ATOM      7  C   UNL     1      -5.497 -11.158  15.277  0.00  0.00    +0.072 C 
ATOM      8  C   UNL     1      -6.956 -11.587  15.511  0.00  0.00    +0.120 C 
ATOM      9  C   UNL     1      -5.257 -10.139  16.393  0.00  0.00    +0.029 C 
ATOM     10  C   UNL     1      -6.588  -9.409  16.510  0.00  0.00    +0.110 C 
ENDROOT
BRANCH   7  11
ATOM      5  N   UNL     1      -3.936 -10.766  13.329  0.00  0.00    -0.330 N 
ATOM      6  N   UNL     1      -5.967  -9.879  13.152  0.00  0.00    -0.232 NA
ATOM     11  C   UNL     1      -5.160 -10.586  13.911  0.00  0.00    +0.115 A 
ATOM     13  C   UNL     1      -3.954 -10.132  12.114  0.00  0.00    +0.069 A 
ATOM     14  C   UNL     1      -5.232  -9.587  12.026  0.00  0.00    +0.089 A 
ATOM     15  C   UNL     1      -2.820 -11.492  13.891  0.00  0.00    +0.150 C 
ATOM     17  C   UNL     1      -2.991  -9.993  11.113  0.00  0.00    +0.028 A 
ATOM     18  C   UNL     1      -5.588  -8.857  10.880  0.00  0.00    +0.030 A 
ATOM     21  C   UNL     1      -3.363  -9.263   9.978  0.00  0.00    +0.002 A 
ATOM     22  C   UNL     1      -4.638  -8.704   9.863  0.00  0.00    +0.002 A 
ENDBRANCH   7  11
BRANCH   4   1
ATOM      1  S   UNL     1      -9.177 -10.012  15.872  0.00  0.00    +0.036 S 
ATOM      2  O   UNL     1     -10.095 -11.058  16.281  0.00  0.00    -0.158 OA
ATOM      3  O   UNL     1      -9.199  -9.479  14.523  0.00  0.00    -0.158 OA
BRANCH   1  12
ATOM     12  C   UNL     1      -9.379  -8.649  16.994  0.00  0.00    +0.220 C 
BRANCH  12  16
ATOM     16  C   UNL     1     -10.576  -7.866  16.550  0.00  0.00    -0.025 A 
ATOM     19  C   UNL     1     -10.410  -6.624  15.938  0.00  0.00    +0.005 A 
ATOM     20  C   UNL     1     -11.857  -8.380  16.751  0.00  0.00    +0.005 A 
ATOM     23  C   UNL     1     -11.526  -5.896  15.526  0.00  0.00    +0.000 A 
ATOM     24  C   UNL     1     -12.974  -7.652  16.338  0.00  0.00    +0.000 A 
ATOM     25  C   UNL     1     -12.808  -6.409  15.726  0.00  0.00    +0.000 A 
ENDBRANCH  12  16
ENDBRANCH   1  12
ENDBRANCH   4   1
TORSDOF 4
ENDMDL
MODEL 5
REMARK VINA RESULT:      -6.2     23.679     27.187
REMARK  Name = 51137914
REMARK  5 active torsions:
REMARK  status: ('A' for Active; 'I' for Inactive)
REMARK    1  A    between atoms: S_1  and  N_4
REMARK    2  A    between atoms: S_1  and  C_12
REMARK    3  A    between atoms: N_5  and  C_15
REMARK    4  A    between atoms: C_7  and  C_11
REMARK    5  A    between atoms: C_12  and  C_16
REMARK                            x       y       z     vdW  Elec       q    Type
REMARK                         _______ _______ _______ _____ _____    ______ ____
ROOT
ATOM      4  N   UNL     1      -5.169 -11.208  16.840  0.00  0.00    -0.180 NA
ATOM      7  C   UNL     1      -4.152 -11.998  14.794  0.00  0.00    +0.072 C 
ATOM      8  C   UNL     1      -5.386 -12.146  15.701  0.00  0.00    +0.120 C 
ATOM      9  C   UNL     1      -3.087 -11.456  15.748  0.00  0.00    +0.029 C 
ATOM     10  C   UNL     1      -3.865 -10.524  16.667  0.00  0.00    +0.110 C 
ENDROOT
BRANCH   7  11
ATOM      5  N   UNL     1      -3.392 -11.124  12.547  0.00  0.00    -0.330 N 
ATOM      6  N   UNL     1      -5.293 -10.283  13.334  0.00  0.00    -0.232 NA
ATOM     11  C   UNL     1      -4.306 -11.119  13.564  0.00  0.00    +0.115 A 
ATOM     13  C   UNL     1      -3.817 -10.230  11.599  0.00  0.00    +0.069 A 
ATOM     14  C   UNL     1      -5.005  -9.719  12.113  0.00  0.00    +0.089 A 
ATOM     15  C   UNL     1      -2.191 -11.925  12.481  0.00  0.00    +0.150 C 
ATOM     17  C   UNL     1      -3.281  -9.838  10.372  0.00  0.00    +0.028 A 
ATOM     18  C   UNL     1      -5.714  -8.758  11.373  0.00  0.00    +0.030 A 
ATOM     21  C   UNL     1      -4.000  -8.880   9.648  0.00  0.00    +0.002 A 
ATOM     22  C   UNL     1      -5.195  -8.348  10.138  0.00  0.00    +0.002 A 
ENDBRANCH   7  11
BRANCH   4   1
ATOM      1  S   UNL     1      -6.482 -10.312  17.427  0.00  0.00    +0.036 S 
ATOM      2  O   UNL     1      -6.748  -9.206  16.526  0.00  0.00    -0.158 OA
ATOM      3  O   UNL     1      -6.316 -10.095  18.852  0.00  0.00    -0.158 OA
BRANCH   1  12
ATOM     12  C   UNL     1      -7.778 -11.508  17.211  0.00  0.00    +0.220 C 
BRANCH  12  16
ATOM     16  C   UNL     1      -8.908 -11.125  18.116  0.00  0.00    -0.025 A 
ATOM     19  C   UNL     1      -9.709 -10.026  17.806  0.00  0.00    +0.005 A 
ATOM     20  C   UNL     1      -9.158 -11.868  19.270  0.00  0.00    +0.005 A 
ATOM     23  C   UNL     1     -10.760  -9.670  18.650  0.00  0.00    +0.000 A 
ATOM     24  C   UNL     1     -10.210 -11.512  20.115  0.00  0.00    +0.000 A 
ATOM     25  C   UNL     1     -11.012 -10.412  19.804  0.00  0.00    +0.000 A 
ENDBRANCH  12  16
ENDBRANCH   1  12
ENDBRANCH   4   1
TORSDOF 4
ENDMDL
MODEL 6
REMARK VINA RESULT:      -6.2     24.052     26.830
REMARK  Name = 51137914
REMARK  5 active torsions:
REMARK  status: ('A' for Active; 'I' for Inactive)
REMARK    1  A    between atoms: S_1  and  N_4
REMARK    2  A    between atoms: S_1  and  C_12
REMARK    3  A    between atoms: N_5  and  C_15
REMARK    4  A    between atoms: C_7  and  C_11
REMARK    5  A    between atoms: C_12  and  C_16
REMARK                            x       y       z     vdW  Elec       q    Type
REMARK                         _______ _______ _______ _____ _____    ______ ____
ROOT
ATOM      4  N   UNL     1      -4.204 -12.048  16.838  0.00  0.00    -0.180 NA
ATOM      7  C   UNL     1      -5.926 -12.113  18.534  0.00  0.00    +0.072 C 
ATOM      8  C   UNL     1      -4.556 -11.508  18.183  0.00  0.00    +0.120 C 
ATOM      9  C   UNL     1      -5.977 -13.373  17.668  0.00  0.00    +0.029 C 
ATOM     10  C   UNL     1      -5.284 -12.955  16.379  0.00  0.00    +0.110 C 
ENDROOT
BRANCH   7  11
ATOM      5  N   UNL     1      -8.348 -11.493  18.904  0.00  0.00    -0.330 N 
ATOM      6  N   UNL     1      -7.186 -10.151  17.566  0.00  0.00    -0.232 NA
ATOM     11  C   UNL     1      -7.143 -11.230  18.315  0.00  0.00    +0.115 A 
ATOM     13  C   UNL     1      -9.229 -10.520  18.508  0.00  0.00    +0.069 A 
ATOM     14  C   UNL     1      -8.479  -9.695  17.674  0.00  0.00    +0.089 A 
ATOM     15  C   UNL     1      -8.646 -12.600  19.785  0.00  0.00    +0.150 C 
ATOM     17  C   UNL     1     -10.575 -10.297  18.799  0.00  0.00    +0.028 A 
ATOM     18  C   UNL     1      -9.094  -8.575  17.087  0.00  0.00    +0.030 A 
ATOM     21  C   UNL     1     -11.170  -9.178  18.206  0.00  0.00    +0.002 A 
ATOM     22  C   UNL     1     -10.444  -8.332  17.365  0.00  0.00    +0.002 A 
ENDBRANCH   7  11
BRANCH   4   1
ATOM      1  S   UNL     1      -3.474 -11.020  15.706  0.00  0.00    +0.036 S 
ATOM      2  O   UNL     1      -2.220 -10.528  16.245  0.00  0.00    -0.158 OA
ATOM      3  O   UNL     1      -4.470 -10.109  15.174  0.00  0.00    -0.158 OA
BRANCH   1  12
ATOM     12  C   UNL     1      -3.090 -12.201  14.435  0.00  0.00    +0.220 C 
BRANCH  12  16
ATOM     16  C   UNL     1      -3.060 -11.472  13.128  0.00  0.00    -0.025 A 
ATOM     19  C   UNL     1      -4.116 -11.612  12.227  0.00  0.00    +0.005 A 
ATOM     20  C   UNL     1      -1.976 -10.654  12.811  0.00  0.00    +0.005 A 
ATOM     23  C   UNL     1      -4.086 -10.933  11.009  0.00  0.00    +0.000 A 
ATOM     24  C   UNL     1      -1.947  -9.974  11.593  0.00  0.00    +0.000 A 
ATOM     25  C   UNL     1      -3.003 -10.114  10.691  0.00  0.00    +0.000 A 
ENDBRANCH  12  16
ENDBRANCH   1  12
ENDBRANCH   4   1
TORSDOF 4
ENDMDL
MODEL 7
REMARK VINA RESULT:      -6.1     22.819     25.501
REMARK  Name = 51137914
REMARK  5 active torsions:
REMARK  status: ('A' for Active; 'I' for Inactive)
REMARK    1  A    between atoms: S_1  and  N_4
REMARK    2  A    between atoms: S_1  and  C_12
REMARK    3  A    between atoms: N_5  and  C_15
REMARK    4  A    between atoms: C_7  and  C_11
REMARK    5  A    between atoms: C_12  and  C_16
REMARK                            x       y       z     vdW  Elec       q    Type
REMARK                         _______ _______ _______ _____ _____    ______ ____
ROOT
ATOM      4  N   UNL     1      -3.184 -12.205  15.091  0.00  0.00    -0.180 NA
ATOM      7  C   UNL     1      -4.721 -11.686  16.884  0.00  0.00    +0.072 C 
ATOM      8  C   UNL     1      -3.416 -11.240  16.204  0.00  0.00    +0.120 C 
ATOM      9  C   UNL     1      -4.816 -13.166  16.506  0.00  0.00    +0.029 C 
ATOM     10  C   UNL     1      -4.272 -13.212  15.085  0.00  0.00    +0.110 C 
ENDROOT
BRANCH   7  11
ATOM      5  N   UNL     1      -6.767 -10.312  17.447  0.00  0.00    -0.330 N 
ATOM      6  N   UNL     1      -6.460 -10.776  15.295  0.00  0.00    -0.232 NA
ATOM     11  C   UNL     1      -5.984 -10.928  16.511  0.00  0.00    +0.115 A 
ATOM     13  C   UNL     1      -7.818  -9.725  16.793  0.00  0.00    +0.069 A 
ATOM     14  C   UNL     1      -7.603 -10.028  15.451  0.00  0.00    +0.089 A 
ATOM     15  C   UNL     1      -6.532 -10.284  18.873  0.00  0.00    +0.150 C 
ATOM     17  C   UNL     1      -8.905  -8.976  17.245  0.00  0.00    +0.028 A 
ATOM     18  C   UNL     1      -8.518  -9.565  14.490  0.00  0.00    +0.030 A 
ATOM     21  C   UNL     1      -9.805  -8.523  16.274  0.00  0.00    +0.002 A 
ATOM     22  C   UNL     1      -9.617  -8.812  14.920  0.00  0.00    +0.002 A 
ENDBRANCH   7  11
BRANCH   4   1
ATOM      1  S   UNL     1      -2.608 -11.625  13.607  0.00  0.00    +0.036 S 
ATOM      2  O   UNL     1      -1.558 -12.502  13.124  0.00  0.00    -0.158 OA
ATOM      3  O   UNL     1      -2.403 -10.192  13.700  0.00  0.00    -0.158 OA
BRANCH   1  12
ATOM     12  C   UNL     1      -4.047 -11.900  12.602  0.00  0.00    +0.220 C 
BRANCH  12  16
ATOM     16  C   UNL     1      -4.229 -10.699  11.727  0.00  0.00    -0.025 A 
ATOM     19  C   UNL     1      -3.356 -10.472  10.663  0.00  0.00    +0.005 A 
ATOM     20  C   UNL     1      -5.271  -9.806  11.978  0.00  0.00    +0.005 A 
ATOM     23  C   UNL     1      -3.526  -9.352   9.849  0.00  0.00    +0.000 A 
ATOM     24  C   UNL     1      -5.441  -8.686  11.163  0.00  0.00    +0.000 A 
ATOM     25  C   UNL     1      -4.568  -8.459  10.098  0.00  0.00    +0.000 A 
ENDBRANCH  12  16
ENDBRANCH   1  12
ENDBRANCH   4   1
TORSDOF 4
ENDMDL
MODEL 8
REMARK VINA RESULT:      -6.1     24.896     27.903
REMARK  Name = 51137914
REMARK  5 active torsions:
REMARK  status: ('A' for Active; 'I' for Inactive)
REMARK    1  A    between atoms: S_1  and  N_4
REMARK    2  A    between atoms: S_1  and  C_12
REMARK    3  A    between atoms: N_5  and  C_15
REMARK    4  A    between atoms: C_7  and  C_11
REMARK    5  A    between atoms: C_12  and  C_16
REMARK                            x       y       z     vdW  Elec       q    Type
REMARK                         _______ _______ _______ _____ _____    ______ ____
ROOT
ATOM      4  N   UNL     1      -6.117 -11.955  19.225  0.00  0.00    -0.180 NA
ATOM      7  C   UNL     1      -8.248 -10.813  19.242  0.00  0.00    +0.072 C 
ATOM      8  C   UNL     1      -6.736 -10.615  19.440  0.00  0.00    +0.120 C 
ATOM      9  C   UNL     1      -8.436 -12.307  19.512  0.00  0.00    +0.029 C 
ATOM     10  C   UNL     1      -7.183 -12.942  18.927  0.00  0.00    +0.110 C 
ENDROOT
BRANCH   7  11
ATOM      5  N   UNL     1     -10.102  -9.943  17.761  0.00  0.00    -0.330 N 
ATOM      6  N   UNL     1      -8.192 -10.450  16.744  0.00  0.00    -0.232 NA
ATOM     11  C   UNL     1      -8.824 -10.407  17.895  0.00  0.00    +0.115 A 
ATOM     13  C   UNL     1     -10.310  -9.668  16.434  0.00  0.00    +0.069 A 
ATOM     14  C   UNL     1      -9.103  -9.992  15.821  0.00  0.00    +0.089 A 
ATOM     15  C   UNL     1     -11.067  -9.772  18.824  0.00  0.00    +0.150 C 
ATOM     17  C   UNL     1     -11.416  -9.178  15.738  0.00  0.00    +0.028 A 
ATOM     18  C   UNL     1      -8.974  -9.824  14.431  0.00  0.00    +0.030 A 
ATOM     21  C   UNL     1     -11.270  -9.017  14.356  0.00  0.00    +0.002 A 
ATOM     22  C   UNL     1     -10.071  -9.334  13.713  0.00  0.00    +0.002 A 
ENDBRANCH   7  11
BRANCH   4   1
ATOM      1  S   UNL     1      -4.657 -12.057  18.371  0.00  0.00    +0.036 S 
ATOM      2  O   UNL     1      -4.767 -13.087  17.354  0.00  0.00    -0.158 OA
ATOM      3  O   UNL     1      -3.551 -12.046  19.310  0.00  0.00    -0.158 OA
BRANCH   1  12
ATOM     12  C   UNL     1      -4.682 -10.482  17.549  0.00  0.00    +0.220 C 
BRANCH  12  16
ATOM     16  C   UNL     1      -3.852 -10.602  16.308  0.00  0.00    -0.025 A 
ATOM     19  C   UNL     1      -2.464 -10.699  16.404  0.00  0.00    +0.005 A 
ATOM     20  C   UNL     1      -4.468 -10.616  15.057  0.00  0.00    +0.005 A 
ATOM     23  C   UNL     1      -1.692 -10.809  15.248  0.00  0.00    +0.000 A 
ATOM     24  C   UNL     1      -3.695 -10.727  13.900  0.00  0.00    +0.000 A 
ATOM     25  C   UNL     1      -2.306 -10.823  13.996  0.00  0.00    +0.000 A 
ENDBRANCH  12  16
ENDBRANCH   1  12
ENDBRANCH   4   1
TORSDOF 4
ENDMDL
MODEL 9
REMARK VINA RESULT:      -6.1     30.220     33.875
REMARK  Name = 51137914
REMARK  5 active torsions:
REMARK  status: ('A' for Active; 'I' for Inactive)
REMARK    1  A    between atoms: S_1  and  N_4
REMARK    2  A    between atoms: S_1  and  C_12
REMARK    3  A    between atoms: N_5  and  C_15
REMARK    4  A    between atoms: C_7  and  C_11
REMARK    5  A    between atoms: C_12  and  C_16
REMARK                            x       y       z     vdW  Elec       q    Type
REMARK                         _______ _______ _______ _____ _____    ______ ____
ROOT
ATOM      4  N   UNL     1     -16.386   5.003  23.327  0.00  0.00    -0.180 NA
ATOM      7  C   UNL     1     -17.484   3.268  24.603  0.00  0.00    +0.072 C 
ATOM      8  C   UNL     1     -16.450   3.522  23.493  0.00  0.00    +0.120 C 
ATOM      9  C   UNL     1     -18.339   4.535  24.572  0.00  0.00    +0.029 C 
ATOM     10  C   UNL     1     -17.339   5.641  24.267  0.00  0.00    +0.110 C 
ENDROOT
BRANCH   7  11
ATOM      5  N   UNL     1     -17.076   1.768  26.597  0.00  0.00    -0.330 N 
ATOM      6  N   UNL     1     -16.305   3.847  26.760  0.00  0.00    -0.232 NA
ATOM     11  C   UNL     1     -16.942   2.988  25.995  0.00  0.00    +0.115 A 
ATOM     13  C   UNL     1     -16.487   1.844  27.832  0.00  0.00    +0.069 A 
ATOM     14  C   UNL     1     -16.013   3.151  27.910  0.00  0.00    +0.089 A 
ATOM     15  C   UNL     1     -17.723   0.604  26.035  0.00  0.00    +0.150 C 
ATOM     17  C   UNL     1     -16.332   0.910  28.857  0.00  0.00    +0.028 A 
ATOM     18  C   UNL     1     -15.343   3.568  29.072  0.00  0.00    +0.030 A 
ATOM     21  C   UNL     1     -15.662   1.343  30.007  0.00  0.00    +0.002 A 
ATOM     22  C   UNL     1     -15.175   2.648  30.114  0.00  0.00    +0.002 A 
ENDBRANCH   7  11
BRANCH   4   1
ATOM      1  S   UNL     1     -14.878   5.737  23.079  0.00  0.00    +0.036 S 
ATOM      2  O   UNL     1     -13.840   4.903  23.657  0.00  0.00    -0.158 OA
ATOM      3  O   UNL     1     -14.973   7.147  23.402  0.00  0.00    -0.158 OA
BRANCH   1  12
ATOM     12  C   UNL     1     -14.765   5.594  21.312  0.00  0.00    +0.220 C 
BRANCH  12  16
ATOM     16  C   UNL     1     -13.727   6.565  20.841  0.00  0.00    -0.025 A 
ATOM     19  C   UNL     1     -14.104   7.677  20.087  0.00  0.00    +0.005 A 
ATOM     20  C   UNL     1     -12.385   6.357  21.156  0.00  0.00    +0.005 A 
ATOM     23  C   UNL     1     -13.136   8.581  19.648  0.00  0.00    +0.000 A 
ATOM     24  C   UNL     1     -11.417   7.262  20.718  0.00  0.00    +0.000 A 
ATOM     25  C   UNL     1     -11.793   8.374  19.963  0.00  0.00    +0.000 A 
ENDBRANCH  12  16
ENDBRANCH   1  12
ENDBRANCH   4   1
TORSDOF 4
ENDMDL
MODEL 10
REMARK VINA RESULT:      -6.0     40.601     43.067
REMARK  Name = 51137914
REMARK  5 active torsions:
REMARK  status: ('A' for Active; 'I' for Inactive)
REMARK    1  A    between atoms: S_1  and  N_4
REMARK    2  A    between atoms: S_1  and  C_12
REMARK    3  A    between atoms: N_5  and  C_15
REMARK    4  A    between atoms: C_7  and  C_11
REMARK    5  A    between atoms: C_12  and  C_16
REMARK                            x       y       z     vdW  Elec       q    Type
REMARK                         _______ _______ _______ _____ _____    ______ ____
ROOT
ATOM      4  N   UNL     1      -6.840  -7.324  40.562  0.00  0.00    -0.180 NA
ATOM      7  C   UNL     1      -4.507  -7.013  40.007  0.00  0.00    +0.072 C 
ATOM      8  C   UNL     1      -5.941  -6.659  39.576  0.00  0.00    +0.120 C 
ATOM      9  C   UNL     1      -4.701  -8.296  40.818  0.00  0.00    +0.029 C 
ATOM     10  C   UNL     1      -6.018  -8.069  41.546  0.00  0.00    +0.110 C 
ENDROOT
BRANCH   7  11
ATOM      5  N   UNL     1      -2.654  -5.317  40.281  0.00  0.00    -0.330 N 
ATOM      6  N   UNL     1      -4.031  -5.552  42.010  0.00  0.00    -0.232 NA
ATOM     11  C   UNL     1      -3.746  -5.959  40.793  0.00  0.00    +0.115 A 
ATOM     13  C   UNL     1      -2.203  -4.436  41.230  0.00  0.00    +0.069 A 
ATOM     14  C   UNL     1      -3.080  -4.602  42.299  0.00  0.00    +0.089 A 
ATOM     15  C   UNL     1      -2.074  -5.525  38.974  0.00  0.00    +0.150 C 
ATOM     17  C   UNL     1      -1.137  -3.536  41.245  0.00  0.00    +0.028 A 
ATOM     18  C   UNL     1      -2.896  -3.832  43.461  0.00  0.00    +0.030 A 
ATOM     21  C   UNL     1      -0.969  -2.778  42.409  0.00  0.00    +0.002 A 
ATOM     22  C   UNL     1      -1.832  -2.922  43.498  0.00  0.00    +0.002 A 
ENDBRANCH   7  11
BRANCH   4   1
ATOM      1  S   UNL     1      -8.210  -6.494  41.114  0.00  0.00    +0.036 S 
ATOM      2  O   UNL     1      -7.794  -5.409  41.985  0.00  0.00    -0.158 OA
ATOM      3  O   UNL     1      -9.213  -7.452  41.538  0.00  0.00    -0.158 OA
BRANCH   1  12
ATOM     12  C   UNL     1      -8.760  -5.777  39.584  0.00  0.00    +0.220 C 
BRANCH  12  16
ATOM     16  C   UNL     1      -9.451  -4.488  39.907  0.00  0.00    -0.025 A 
ATOM     19  C   UNL     1      -8.790  -3.275  39.716  0.00  0.00    +0.005 A 
ATOM     20  C   UNL     1     -10.756  -4.502  40.399  0.00  0.00    +0.005 A 
ATOM     23  C   UNL     1      -9.435  -2.075  40.017  0.00  0.00    +0.000 A 
ATOM     24  C   UNL     1     -11.401  -3.302  40.700  0.00  0.00    +0.000 A 
ATOM     25  C   UNL     1     -10.740  -2.088  40.509  0.00  0.00    +0.000 A 
ENDBRANCH  12  16
ENDBRANCH   1  12
ENDBRANCH   4   1
TORSDOF 4
ENDMDL
