MODEL 1
REMARK VINA RESULT:      -8.6      0.000      0.000
REMARK  Name = 26762194
REMARK  8 active torsions:
REMARK  status: ('A' for Active; 'I' for Inactive)
REMARK    1  A    between atoms: N_6  and  C_11
REMARK    2  A    between atoms: N_8  and  C_33
REMARK    3  A    between atoms: N_8  and  C_34
REMARK    4  A    between atoms: N_8  and  C_35
REMARK    5  A    between atoms: C_10  and  C_15
REMARK    6  A    between atoms: C_15  and  C_17
REMARK    7  A    between atoms: C_17  and  C_18
REMARK    8  A    between atoms: C_19  and  C_23
REMARK                            x       y       z     vdW  Elec       q    Type
REMARK                         _______ _______ _______ _____ _____    ______ ____
ROOT
ATOM      1  O   UNL     1     -17.659   2.955  21.256  0.00  0.00    -0.274 OA
ATOM      4  N   UNL     1     -17.427   4.846  24.352  0.00  0.00    -0.285 NA
ATOM      5  N   UNL     1     -16.805   2.334  23.272  0.00  0.00    -0.313 N 
ATOM      9  C   UNL     1     -18.057   4.472  23.082  0.00  0.00    +0.145 C 
ATOM     10  C   UNL     1     -17.245   3.719  25.262  0.00  0.00    +0.075 C 
ATOM     11  C   UNL     1     -16.789   6.545  22.917  0.00  0.00    +0.089 C 
ATOM     12  C   UNL     1     -17.846   5.704  22.195  0.00  0.00    +0.052 C 
ATOM     13  C   UNL     1     -16.248   5.637  24.013  0.00  0.00    +0.107 C 
ATOM     14  C   UNL     1     -16.395   2.627  24.628  0.00  0.00    +0.123 C 
ATOM     16  C   UNL     1     -17.469   3.214  22.448  0.00  0.00    +0.230 C 
ATOM     36  H   UNL     1     -16.453   1.479  22.853  0.00  0.00    +0.149 HD
ENDROOT
BRANCH  11   6
ATOM      3  O   UNL     1     -14.630   5.005  21.824  0.00  0.00    -0.270 OA
ATOM      6  N   UNL     1     -15.756   7.022  22.040  0.00  0.00    -0.307 N 
ATOM     19  C   UNL     1     -14.746   6.199  21.560  0.00  0.00    +0.244 C 
ATOM     37  H   UNL     1     -15.723   8.021  21.868  0.00  0.00    +0.149 HD
BRANCH  19  23
ATOM     23  C   UNL     1     -13.738   6.850  20.684  0.00  0.00    +0.037 A 
ATOM     27  C   UNL     1     -14.152   7.626  19.601  0.00  0.00    +0.015 A 
ATOM     28  C   UNL     1     -12.378   6.681  20.942  0.00  0.00    +0.015 A 
ATOM     31  C   UNL     1     -13.206   8.235  18.777  0.00  0.00    +0.024 A 
ATOM     32  C   UNL     1     -11.431   7.290  20.118  0.00  0.00    +0.024 A 
ATOM     33  C   UNL     1     -11.845   8.067  19.036  0.00  0.00    +0.029 A 
BRANCH  33   8
ATOM      8  N   UNL     1     -10.887   8.682  18.204  0.00  0.00    -0.336 N 
ATOM     34  C   UNL     1     -10.547   8.099  16.921  0.00  0.00    +0.129 C 
ATOM     35  C   UNL     1     -10.236   9.910  18.617  0.00  0.00    +0.129 C 
ENDBRANCH  33   8
ENDBRANCH  19  23
ENDBRANCH  11   6
BRANCH  10  15
ATOM     15  C   UNL     1     -16.672   4.146  26.614  0.00  0.00    +0.029 C 
BRANCH  15  17
ATOM     17  C   UNL     1     -16.160   2.965  27.425  0.00  0.00    +0.098 C 
BRANCH  17  18
ATOM      2  O   UNL     1     -15.903   4.563  29.157  0.00  0.00    -0.275 OA
ATOM      7  N   UNL     1     -15.582   2.319  29.709  0.00  0.00    -0.271 N 
ATOM     18  C   UNL     1     -15.869   3.372  28.851  0.00  0.00    +0.220 C 
ATOM     20  C   UNL     1     -15.543   0.888  29.340  0.00  0.00    +0.118 C 
ATOM     21  C   UNL     1     -15.278   2.431  31.082  0.00  0.00    +0.039 A 
ATOM     22  C   UNL     1     -15.194   0.089  30.600  0.00  0.00    +0.056 C 
ATOM     24  C   UNL     1     -15.047   1.165  31.626  0.00  0.00    -0.024 A 
ATOM     25  C   UNL     1     -15.191   3.566  31.875  0.00  0.00    +0.024 A 
ATOM     26  C   UNL     1     -14.728   1.002  32.965  0.00  0.00    +0.005 A 
ATOM     29  C   UNL     1     -14.869   3.411  33.227  0.00  0.00    +0.002 A 
ATOM     30  C   UNL     1     -14.639   2.139  33.769  0.00  0.00    +0.000 A 
ENDBRANCH  17  18
ENDBRANCH  15  17
ENDBRANCH  10  15
TORSDOF 6
ENDMDL
MODEL 2
REMARK VINA RESULT:      -8.1     26.980     30.872
REMARK  Name = 26762194
REMARK  8 active torsions:
REMARK  status: ('A' for Active; 'I' for Inactive)
REMARK    1  A    between atoms: N_6  and  C_11
REMARK    2  A    between atoms: N_8  and  C_33
REMARK    3  A    between atoms: N_8  and  C_34
REMARK    4  A    between atoms: N_8  and  C_35
REMARK    5  A    between atoms: C_10  and  C_15
REMARK    6  A    between atoms: C_15  and  C_17
REMARK    7  A    between atoms: C_17  and  C_18
REMARK    8  A    between atoms: C_19  and  C_23
REMARK                            x       y       z     vdW  Elec       q    Type
REMARK                         _______ _______ _______ _____ _____    ______ ____
ROOT
ATOM      1  O   UNL     1      12.023   7.087  18.471  0.00  0.00    -0.274 OA
ATOM      4  N   UNL     1      12.058   9.641  21.056  0.00  0.00    -0.285 NA
ATOM      5  N   UNL     1      11.062   7.073  20.533  0.00  0.00    -0.313 N 
ATOM      9  C   UNL     1      12.062   9.176  19.666  0.00  0.00    +0.145 C 
ATOM     10  C   UNL     1      10.909   9.168  21.821  0.00  0.00    +0.075 C 
ATOM     11  C   UNL     1      14.283   9.808  20.442  0.00  0.00    +0.089 C 
ATOM     12  C   UNL     1      13.476   9.508  19.176  0.00  0.00    +0.052 C 
ATOM     13  C   UNL     1      13.387   9.363  21.591  0.00  0.00    +0.107 C 
ATOM     14  C   UNL     1      10.848   7.647  21.844  0.00  0.00    +0.123 C 
ATOM     16  C   UNL     1      11.748   7.690  19.512  0.00  0.00    +0.230 C 
ATOM     36  H   UNL     1      10.819   6.095  20.408  0.00  0.00    +0.149 HD
ENDROOT
BRANCH  11   6
ATOM      3  O   UNL     1      14.759   6.982  20.561  0.00  0.00    -0.270 OA
ATOM      6  N   UNL     1      15.563   9.156  20.460  0.00  0.00    -0.307 N 
ATOM     19  C   UNL     1      15.696   7.775  20.520  0.00  0.00    +0.244 C 
ATOM     37  H   UNL     1      16.381   9.750  20.542  0.00  0.00    +0.149 HD
BRANCH  19  23
ATOM     23  C   UNL     1      17.087   7.257  20.558  0.00  0.00    +0.037 A 
ATOM     27  C   UNL     1      18.043   7.880  21.361  0.00  0.00    +0.015 A 
ATOM     28  C   UNL     1      17.439   6.147  19.790  0.00  0.00    +0.015 A 
ATOM     31  C   UNL     1      19.349   7.395  21.395  0.00  0.00    +0.024 A 
ATOM     32  C   UNL     1      18.747   5.662  19.824  0.00  0.00    +0.024 A 
ATOM     33  C   UNL     1      19.701   6.285  20.627  0.00  0.00    +0.029 A 
BRANCH  33   8
ATOM      8  N   UNL     1      21.022   5.793  20.661  0.00  0.00    -0.336 N 
ATOM     34  C   UNL     1      21.274   4.380  20.867  0.00  0.00    +0.129 C 
ATOM     35  C   UNL     1      22.145   6.692  20.481  0.00  0.00    +0.129 C 
ENDBRANCH  33   8
ENDBRANCH  19  23
ENDBRANCH  11   6
BRANCH  10  15
ATOM     15  C   UNL     1      10.876   9.740  23.240  0.00  0.00    +0.029 C 
BRANCH  15  17
ATOM     17  C   UNL     1      10.836  11.260  23.251  0.00  0.00    +0.098 C 
BRANCH  17  18
ATOM      2  O   UNL     1      11.164  11.570  25.578  0.00  0.00    -0.275 OA
ATOM      7  N   UNL     1      12.699  12.571  24.134  0.00  0.00    -0.271 N 
ATOM     18  C   UNL     1      11.578  11.813  24.446  0.00  0.00    +0.220 C 
ATOM     20  C   UNL     1      13.195  12.862  22.772  0.00  0.00    +0.118 C 
ATOM     21  C   UNL     1      13.558  13.197  25.062  0.00  0.00    +0.039 A 
ATOM     22  C   UNL     1      14.455  13.724  22.908  0.00  0.00    +0.056 C 
ATOM     24  C   UNL     1      14.580  13.870  24.389  0.00  0.00    -0.024 A 
ATOM     25  C   UNL     1      13.497  13.209  26.448  0.00  0.00    +0.024 A 
ATOM     26  C   UNL     1      15.560  14.568  25.079  0.00  0.00    +0.005 A 
ATOM     29  C   UNL     1      14.481  13.911  27.152  0.00  0.00    +0.002 A 
ATOM     30  C   UNL     1      15.506  14.586  26.472  0.00  0.00    +0.000 A 
ENDBRANCH  17  18
ENDBRANCH  15  17
ENDBRANCH  10  15
TORSDOF 6
ENDMDL
MODEL 3
REMARK VINA RESULT:      -7.9      1.382      1.973
REMARK  Name = 26762194
REMARK  8 active torsions:
REMARK  status: ('A' for Active; 'I' for Inactive)
REMARK    1  A    between atoms: N_6  and  C_11
REMARK    2  A    between atoms: N_8  and  C_33
REMARK    3  A    between atoms: N_8  and  C_34
REMARK    4  A    between atoms: N_8  and  C_35
REMARK    5  A    between atoms: C_10  and  C_15
REMARK    6  A    between atoms: C_15  and  C_17
REMARK    7  A    between atoms: C_17  and  C_18
REMARK    8  A    between atoms: C_19  and  C_23
REMARK                            x       y       z     vdW  Elec       q    Type
REMARK                         _______ _______ _______ _____ _____    ______ ____
ROOT
ATOM      1  O   UNL     1     -18.868   3.934  20.335  0.00  0.00    -0.274 OA
ATOM      4  N   UNL     1     -17.284   4.071  23.603  0.00  0.00    -0.285 NA
ATOM      5  N   UNL     1     -18.055   2.243  21.622  0.00  0.00    -0.313 N 
ATOM      9  C   UNL     1     -18.222   4.531  22.576  0.00  0.00    +0.145 C 
ATOM     10  C   UNL     1     -17.476   2.673  23.978  0.00  0.00    +0.075 C 
ATOM     11  C   UNL     1     -16.205   5.894  22.674  0.00  0.00    +0.089 C 
ATOM     12  C   UNL     1     -17.633   5.872  22.122  0.00  0.00    +0.052 C 
ATOM     13  C   UNL     1     -15.953   4.474  23.162  0.00  0.00    +0.107 C 
ATOM     14  C   UNL     1     -17.331   1.752  22.775  0.00  0.00    +0.123 C 
ATOM     16  C   UNL     1     -18.381   3.562  21.407  0.00  0.00    +0.230 C 
ATOM     36  H   UNL     1     -18.203   1.594  20.855  0.00  0.00    +0.149 HD
ENDROOT
BRANCH  11   6
ATOM      3  O   UNL     1     -14.350   8.063  22.955  0.00  0.00    -0.270 OA
ATOM      6  N   UNL     1     -15.235   6.322  21.704  0.00  0.00    -0.307 N 
ATOM     19  C   UNL     1     -14.376   7.388  21.929  0.00  0.00    +0.244 C 
ATOM     37  H   UNL     1     -15.274   5.884  20.790  0.00  0.00    +0.149 HD
BRANCH  19  23
ATOM     23  C   UNL     1     -13.449   7.723  20.817  0.00  0.00    +0.037 A 
ATOM     27  C   UNL     1     -13.933   8.350  19.670  0.00  0.00    +0.015 A 
ATOM     28  C   UNL     1     -12.094   7.406  20.920  0.00  0.00    +0.015 A 
ATOM     31  C   UNL     1     -13.064   8.663  18.625  0.00  0.00    +0.024 A 
ATOM     32  C   UNL     1     -11.224   7.718  19.875  0.00  0.00    +0.024 A 
ATOM     33  C   UNL     1     -11.708   8.346  18.728  0.00  0.00    +0.029 A 
BRANCH  33   8
ATOM      8  N   UNL     1     -10.828   8.662  17.673  0.00  0.00    -0.336 N 
ATOM     34  C   UNL     1     -10.741   7.802  16.508  0.00  0.00    +0.129 C 
ATOM     35  C   UNL     1     -10.004   9.853  17.735  0.00  0.00    +0.129 C 
ENDBRANCH  33   8
ENDBRANCH  19  23
ENDBRANCH  11   6
BRANCH  10  15
ATOM     15  C   UNL     1     -16.550   2.240  25.116  0.00  0.00    +0.029 C 
BRANCH  15  17
ATOM     17  C   UNL     1     -17.014   2.755  26.470  0.00  0.00    +0.098 C 
BRANCH  17  18
ATOM      2  O   UNL     1     -16.627   0.615  27.412  0.00  0.00    -0.275 OA
ATOM      7  N   UNL     1     -16.133   2.476  28.731  0.00  0.00    -0.271 N 
ATOM     18  C   UNL     1     -16.573   1.833  27.582  0.00  0.00    +0.220 C 
ATOM     20  C   UNL     1     -16.069   3.939  28.933  0.00  0.00    +0.118 C 
ATOM     21  C   UNL     1     -15.672   1.846  29.906  0.00  0.00    +0.039 A 
ATOM     22  C   UNL     1     -15.517   4.193  30.340  0.00  0.00    +0.056 C 
ATOM     24  C   UNL     1     -15.310   2.806  30.854  0.00  0.00    -0.024 A 
ATOM     25  C   UNL     1     -15.552   0.493  30.191  0.00  0.00    +0.024 A 
ATOM     26  C   UNL     1     -14.822   2.442  32.099  0.00  0.00    +0.005 A 
ATOM     29  C   UNL     1     -15.061   0.117  31.445  0.00  0.00    +0.002 A 
ATOM     30  C   UNL     1     -14.699   1.084  32.393  0.00  0.00    +0.000 A 
ENDBRANCH  17  18
ENDBRANCH  15  17
ENDBRANCH  10  15
TORSDOF 6
ENDMDL
MODEL 4
REMARK VINA RESULT:      -7.9      3.745      7.150
REMARK  Name = 26762194
REMARK  8 active torsions:
REMARK  status: ('A' for Active; 'I' for Inactive)
REMARK    1  A    between atoms: N_6  and  C_11
REMARK    2  A    between atoms: N_8  and  C_33
REMARK    3  A    between atoms: N_8  and  C_34
REMARK    4  A    between atoms: N_8  and  C_35
REMARK    5  A    between atoms: C_10  and  C_15
REMARK    6  A    between atoms: C_15  and  C_17
REMARK    7  A    between atoms: C_17  and  C_18
REMARK    8  A    between atoms: C_19  and  C_23
REMARK                            x       y       z     vdW  Elec       q    Type
REMARK                         _______ _______ _______ _____ _____    ______ ____
ROOT
ATOM      1  O   UNL     1     -13.611   0.327  29.466  0.00  0.00    -0.274 OA
ATOM      4  N   UNL     1     -15.929   2.658  31.016  0.00  0.00    -0.285 NA
ATOM      5  N   UNL     1     -13.273   1.777  31.186  0.00  0.00    -0.313 N 
ATOM      9  C   UNL     1     -15.578   1.408  30.336  0.00  0.00    +0.145 C 
ATOM     10  C   UNL     1     -15.205   2.859  32.267  0.00  0.00    +0.075 C 
ATOM     11  C   UNL     1     -16.530   3.059  28.818  0.00  0.00    +0.089 C 
ATOM     12  C   UNL     1     -16.190   1.571  28.939  0.00  0.00    +0.052 C 
ATOM     13  C   UNL     1     -15.849   3.714  30.012  0.00  0.00    +0.107 C 
ATOM     14  C   UNL     1     -13.699   2.864  32.040  0.00  0.00    +0.123 C 
ATOM     16  C   UNL     1     -14.076   1.145  30.265  0.00  0.00    +0.230 C 
ATOM     36  H   UNL     1     -12.280   1.566  31.162  0.00  0.00    +0.149 HD
ENDROOT
BRANCH  11   6
ATOM      3  O   UNL     1     -18.173   3.501  26.509  0.00  0.00    -0.270 OA
ATOM      6  N   UNL     1     -16.113   3.630  27.567  0.00  0.00    -0.307 N 
ATOM     19  C   UNL     1     -16.983   3.805  26.500  0.00  0.00    +0.244 C 
ATOM     37  H   UNL     1     -15.120   3.801  27.447  0.00  0.00    +0.149 HD
BRANCH  19  23
ATOM     23  C   UNL     1     -16.392   4.384  25.267  0.00  0.00    +0.037 A 
ATOM     27  C   UNL     1     -16.956   5.523  24.691  0.00  0.00    +0.015 A 
ATOM     28  C   UNL     1     -15.275   3.788  24.683  0.00  0.00    +0.015 A 
ATOM     31  C   UNL     1     -16.403   6.066  23.532  0.00  0.00    +0.024 A 
ATOM     32  C   UNL     1     -14.721   4.331  23.523  0.00  0.00    +0.024 A 
ATOM     33  C   UNL     1     -15.284   5.470  22.948  0.00  0.00    +0.029 A 
BRANCH  33   8
ATOM      8  N   UNL     1     -14.724   6.018  21.776  0.00  0.00    -0.336 N 
ATOM     34  C   UNL     1     -13.285   6.063  21.602  0.00  0.00    +0.129 C 
ATOM     35  C   UNL     1     -15.579   6.536  20.726  0.00  0.00    +0.129 C 
ENDBRANCH  33   8
ENDBRANCH  19  23
ENDBRANCH  11   6
BRANCH  10  15
ATOM     15  C   UNL     1     -15.652   4.122  33.006  0.00  0.00    +0.029 C 
BRANCH  15  17
ATOM     17  C   UNL     1     -14.756   5.315  32.711  0.00  0.00    +0.098 C 
BRANCH  17  18
ATOM      2  O   UNL     1     -14.324   5.266  35.042  0.00  0.00    -0.275 OA
ATOM      7  N   UNL     1     -13.441   7.049  33.822  0.00  0.00    -0.271 N 
ATOM     18  C   UNL     1     -14.154   5.869  33.982  0.00  0.00    +0.220 C 
ATOM     20  C   UNL     1     -13.237   7.770  32.547  0.00  0.00    +0.118 C 
ATOM     21  C   UNL     1     -12.786   7.765  34.846  0.00  0.00    +0.039 A 
ATOM     22  C   UNL     1     -12.387   9.010  32.843  0.00  0.00    +0.056 C 
ATOM     24  C   UNL     1     -12.170   8.901  34.317  0.00  0.00    -0.024 A 
ATOM     25  C   UNL     1     -12.700   7.482  36.201  0.00  0.00    +0.024 A 
ATOM     26  C   UNL     1     -11.457   9.776  35.122  0.00  0.00    +0.005 A 
ATOM     29  C   UNL     1     -11.984   8.359  37.021  0.00  0.00    +0.002 A 
ATOM     30  C   UNL     1     -11.366   9.498  36.486  0.00  0.00    +0.000 A 
ENDBRANCH  17  18
ENDBRANCH  15  17
ENDBRANCH  10  15
TORSDOF 6
ENDMDL
MODEL 5
REMARK VINA RESULT:      -7.7     20.036     24.228
REMARK  Name = 26762194
REMARK  8 active torsions:
REMARK  status: ('A' for Active; 'I' for Inactive)
REMARK    1  A    between atoms: N_6  and  C_11
REMARK    2  A    between atoms: N_8  and  C_33
REMARK    3  A    between atoms: N_8  and  C_34
REMARK    4  A    between atoms: N_8  and  C_35
REMARK    5  A    between atoms: C_10  and  C_15
REMARK    6  A    between atoms: C_15  and  C_17
REMARK    7  A    between atoms: C_17  and  C_18
REMARK    8  A    between atoms: C_19  and  C_23
REMARK                            x       y       z     vdW  Elec       q    Type
REMARK                         _______ _______ _______ _____ _____    ______ ____
ROOT
ATOM      1  O   UNL     1      -1.802 -14.224  13.895  0.00  0.00    -0.274 OA
ATOM      4  N   UNL     1      -2.602 -10.785  13.033  0.00  0.00    -0.285 NA
ATOM      5  N   UNL     1      -2.670 -13.378  11.969  0.00  0.00    -0.313 N 
ATOM      9  C   UNL     1      -1.823 -11.824  13.713  0.00  0.00    +0.145 C 
ATOM     10  C   UNL     1      -2.638 -10.945  11.583  0.00  0.00    +0.075 C 
ATOM     11  C   UNL     1      -3.437 -10.753  15.191  0.00  0.00    +0.089 C 
ATOM     12  C   UNL     1      -2.194 -11.647  15.190  0.00  0.00    +0.052 C 
ATOM     13  C   UNL     1      -3.879 -10.697  13.734  0.00  0.00    +0.107 C 
ATOM     14  C   UNL     1      -3.224 -12.294  11.189  0.00  0.00    +0.123 C 
ATOM     16  C   UNL     1      -2.122 -13.239  13.224  0.00  0.00    +0.230 C 
ATOM     36  H   UNL     1      -2.827 -14.323  11.631  0.00  0.00    +0.149 HD
ENDROOT
BRANCH  11   6
ATOM      3  O   UNL     1      -5.577  -9.209  16.315  0.00  0.00    -0.270 OA
ATOM      6  N   UNL     1      -4.475 -11.234  16.061  0.00  0.00    -0.307 N 
ATOM     19  C   UNL     1      -5.473 -10.409  16.559  0.00  0.00    +0.244 C 
ATOM     37  H   UNL     1      -4.390 -12.189  16.395  0.00  0.00    +0.149 HD
BRANCH  19  23
ATOM     23  C   UNL     1      -6.457 -11.052  17.467  0.00  0.00    +0.037 A 
ATOM     27  C   UNL     1      -6.082 -11.408  18.762  0.00  0.00    +0.015 A 
ATOM     28  C   UNL     1      -7.755 -11.303  17.022  0.00  0.00    +0.015 A 
ATOM     31  C   UNL     1      -7.005 -12.014  19.614  0.00  0.00    +0.024 A 
ATOM     32  C   UNL     1      -8.679 -11.909  17.875  0.00  0.00    +0.024 A 
ATOM     33  C   UNL     1      -8.304 -12.264  19.170  0.00  0.00    +0.029 A 
BRANCH  33   8
ATOM      8  N   UNL     1      -9.238 -12.877  20.030  0.00  0.00    -0.336 N 
ATOM     34  C   UNL     1     -10.513 -12.241  20.302  0.00  0.00    +0.129 C 
ATOM     35  C   UNL     1      -8.940 -14.154  20.648  0.00  0.00    +0.129 C 
ENDBRANCH  33   8
ENDBRANCH  19  23
ENDBRANCH  11   6
BRANCH  10  15
ATOM     15  C   UNL     1      -3.377  -9.801  10.886  0.00  0.00    +0.029 C 
BRANCH  15  17
ATOM     17  C   UNL     1      -4.224 -10.284   9.719  0.00  0.00    +0.098 C 
BRANCH  17  18
ATOM      2  O   UNL     1      -5.718  -8.539  10.305  0.00  0.00    -0.275 OA
ATOM      7  N   UNL     1      -5.864  -9.397   8.140  0.00  0.00    -0.271 N 
ATOM     18  C   UNL     1      -5.346  -9.314   9.425  0.00  0.00    +0.220 C 
ATOM     20  C   UNL     1      -5.414 -10.328   7.084  0.00  0.00    +0.118 C 
ATOM     21  C   UNL     1      -6.910  -8.608   7.618  0.00  0.00    +0.039 A 
ATOM     22  C   UNL     1      -6.259 -10.062   5.834  0.00  0.00    +0.056 C 
ATOM     24  C   UNL     1      -7.164  -8.966   6.292  0.00  0.00    -0.024 A 
ATOM     25  C   UNL     1      -7.646  -7.604   8.232  0.00  0.00    +0.024 A 
ATOM     26  C   UNL     1      -8.151  -8.334   5.551  0.00  0.00    +0.005 A 
ATOM     29  C   UNL     1      -8.644  -6.962   7.492  0.00  0.00    +0.002 A 
ATOM     30  C   UNL     1      -8.896  -7.324   6.161  0.00  0.00    +0.000 A 
ENDBRANCH  17  18
ENDBRANCH  15  17
ENDBRANCH  10  15
TORSDOF 6
ENDMDL
MODEL 6
REMARK VINA RESULT:      -7.4      2.318      4.210
REMARK  Name = 26762194
REMARK  8 active torsions:
REMARK  status: ('A' for Active; 'I' for Inactive)
REMARK    1  A    between atoms: N_6  and  C_11
REMARK    2  A    between atoms: N_8  and  C_33
REMARK    3  A    between atoms: N_8  and  C_34
REMARK    4  A    between atoms: N_8  and  C_35
REMARK    5  A    between atoms: C_10  and  C_15
REMARK    6  A    between atoms: C_15  and  C_17
REMARK    7  A    between atoms: C_17  and  C_18
REMARK    8  A    between atoms: C_19  and  C_23
REMARK                            x       y       z     vdW  Elec       q    Type
REMARK                         _______ _______ _______ _____ _____    ______ ____
ROOT
ATOM      1  O   UNL     1     -16.494   9.459  22.194  0.00  0.00    -0.274 OA
ATOM      4  N   UNL     1     -14.851   6.317  22.992  0.00  0.00    -0.285 NA
ATOM      5  N   UNL     1     -17.395   7.394  22.514  0.00  0.00    -0.313 N 
ATOM      9  C   UNL     1     -14.997   7.775  23.038  0.00  0.00    +0.145 C 
ATOM     10  C   UNL     1     -16.019   5.603  23.498  0.00  0.00    +0.075 C 
ATOM     11  C   UNL     1     -13.328   7.057  21.414  0.00  0.00    +0.089 C 
ATOM     12  C   UNL     1     -13.832   8.284  22.180  0.00  0.00    +0.052 C 
ATOM     13  C   UNL     1     -14.388   5.989  21.647  0.00  0.00    +0.107 C 
ATOM     14  C   UNL     1     -17.273   5.967  22.714  0.00  0.00    +0.123 C 
ATOM     16  C   UNL     1     -16.340   8.278  22.517  0.00  0.00    +0.230 C 
ATOM     36  H   UNL     1     -18.297   7.746  22.206  0.00  0.00    +0.149 HD
ENDROOT
BRANCH  11   6
ATOM      3  O   UNL     1     -10.893   7.975  20.209  0.00  0.00    -0.270 OA
ATOM      6  N   UNL     1     -13.110   7.318  20.018  0.00  0.00    -0.307 N 
ATOM     19  C   UNL     1     -11.891   7.763  19.525  0.00  0.00    +0.244 C 
ATOM     37  H   UNL     1     -13.920   7.272  19.409  0.00  0.00    +0.149 HD
BRANCH  19  23
ATOM     23  C   UNL     1     -11.834   8.012  18.061  0.00  0.00    +0.037 A 
ATOM     27  C   UNL     1     -13.008   8.248  17.347  0.00  0.00    +0.015 A 
ATOM     28  C   UNL     1     -10.605   8.006  17.401  0.00  0.00    +0.015 A 
ATOM     31  C   UNL     1     -12.955   8.479  15.973  0.00  0.00    +0.024 A 
ATOM     32  C   UNL     1     -10.552   8.237  16.026  0.00  0.00    +0.024 A 
ATOM     33  C   UNL     1     -11.726   8.474  15.313  0.00  0.00    +0.029 A 
BRANCH  33   8
ATOM      8  N   UNL     1     -11.670   8.708  13.923  0.00  0.00    -0.336 N 
ATOM     34  C   UNL     1     -10.768   7.942  13.085  0.00  0.00    +0.129 C 
ATOM     35  C   UNL     1     -12.521   9.711  13.313  0.00  0.00    +0.129 C 
ENDBRANCH  33   8
ENDBRANCH  19  23
ENDBRANCH  11   6
BRANCH  10  15
ATOM     15  C   UNL     1     -15.810   4.088  23.526  0.00  0.00    +0.029 C 
BRANCH  15  17
ATOM     17  C   UNL     1     -17.007   3.349  24.106  0.00  0.00    +0.098 C 
BRANCH  17  18
ATOM      2  O   UNL     1     -16.259   1.304  25.041  0.00  0.00    -0.275 OA
ATOM      7  N   UNL     1     -16.634   3.082  26.505  0.00  0.00    -0.271 N 
ATOM     18  C   UNL     1     -16.594   2.467  25.261  0.00  0.00    +0.220 C 
ATOM     20  C   UNL     1     -17.037   4.480  26.767  0.00  0.00    +0.118 C 
ATOM     21  C   UNL     1     -16.299   2.479  27.736  0.00  0.00    +0.039 A 
ATOM     22  C   UNL     1     -16.923   4.725  28.275  0.00  0.00    +0.056 C 
ATOM     24  C   UNL     1     -16.455   3.398  28.777  0.00  0.00    -0.024 A 
ATOM     25  C   UNL     1     -15.869   1.186  27.995  0.00  0.00    +0.024 A 
ATOM     26  C   UNL     1     -16.187   3.050  30.092  0.00  0.00    +0.005 A 
ATOM     29  C   UNL     1     -15.598   0.826  29.319  0.00  0.00    +0.002 A 
ATOM     30  C   UNL     1     -15.755   1.751  30.360  0.00  0.00    +0.000 A 
ENDBRANCH  17  18
ENDBRANCH  15  17
ENDBRANCH  10  15
TORSDOF 6
ENDMDL
MODEL 7
REMARK VINA RESULT:      -7.4     17.241     19.570
REMARK  Name = 26762194
REMARK  8 active torsions:
REMARK  status: ('A' for Active; 'I' for Inactive)
REMARK    1  A    between atoms: N_6  and  C_11
REMARK    2  A    between atoms: N_8  and  C_33
REMARK    3  A    between atoms: N_8  and  C_34
REMARK    4  A    between atoms: N_8  and  C_35
REMARK    5  A    between atoms: C_10  and  C_15
REMARK    6  A    between atoms: C_15  and  C_17
REMARK    7  A    between atoms: C_17  and  C_18
REMARK    8  A    between atoms: C_19  and  C_23
REMARK                            x       y       z     vdW  Elec       q    Type
REMARK                         _______ _______ _______ _____ _____    ______ ____
ROOT
ATOM      1  O   UNL     1     -12.201 -13.511  19.286  0.00  0.00    -0.274 OA
ATOM      4  N   UNL     1      -9.182 -11.563  19.832  0.00  0.00    -0.285 NA
ATOM      5  N   UNL     1     -10.053 -13.972  18.693  0.00  0.00    -0.313 N 
ATOM      9  C   UNL     1     -10.521 -12.043  20.188  0.00  0.00    +0.145 C 
ATOM     10  C   UNL     1      -8.213 -12.638  19.644  0.00  0.00    +0.075 C 
ATOM     11  C   UNL     1     -10.561  -9.809  19.216  0.00  0.00    +0.089 C 
ATOM     12  C   UNL     1     -11.409 -10.806  20.011  0.00  0.00    +0.052 C 
ATOM     13  C   UNL     1      -9.359 -10.613  18.738  0.00  0.00    +0.107 C 
ATOM     14  C   UNL     1      -8.662 -13.603  18.555  0.00  0.00    +0.123 C 
ATOM     16  C   UNL     1     -11.005 -13.211  19.332  0.00  0.00    +0.230 C 
ATOM     36  H   UNL     1     -10.378 -14.773  18.160  0.00  0.00    +0.149 HD
ENDROOT
BRANCH  11   6
ATOM      3  O   UNL     1      -9.642  -7.663  17.550  0.00  0.00    -0.270 OA
ATOM      6  N   UNL     1     -11.279  -9.200  18.131  0.00  0.00    -0.307 N 
ATOM     19  C   UNL     1     -10.752  -8.160  17.378  0.00  0.00    +0.244 C 
ATOM     37  H   UNL     1     -12.245  -9.483  18.002  0.00  0.00    +0.149 HD
BRANCH  19  23
ATOM     23  C   UNL     1     -11.631  -7.621  16.308  0.00  0.00    +0.037 A 
ATOM     27  C   UNL     1     -12.665  -8.403  15.794  0.00  0.00    +0.015 A 
ATOM     28  C   UNL     1     -11.419  -6.333  15.817  0.00  0.00    +0.015 A 
ATOM     31  C   UNL     1     -13.488  -7.898  14.789  0.00  0.00    +0.024 A 
ATOM     32  C   UNL     1     -12.243  -5.827  14.810  0.00  0.00    +0.024 A 
ATOM     33  C   UNL     1     -13.278  -6.608  14.298  0.00  0.00    +0.029 A 
BRANCH  33   8
ATOM      8  N   UNL     1     -14.110  -6.096  13.281  0.00  0.00    -0.336 N 
ATOM     34  C   UNL     1     -14.629  -6.970  12.247  0.00  0.00    +0.129 C 
ATOM     35  C   UNL     1     -14.464  -4.691  13.261  0.00  0.00    +0.129 C 
ENDBRANCH  33   8
ENDBRANCH  19  23
ENDBRANCH  11   6
BRANCH  10  15
ATOM     15  C   UNL     1      -6.804 -12.112  19.364  0.00  0.00    +0.029 C 
BRANCH  15  17
ATOM     17  C   UNL     1      -6.179 -12.754  18.135  0.00  0.00    +0.098 C 
BRANCH  17  18
ATOM      2  O   UNL     1      -4.065 -11.834  18.688  0.00  0.00    -0.275 OA
ATOM      7  N   UNL     1      -4.679 -11.842  16.436  0.00  0.00    -0.271 N 
ATOM     18  C   UNL     1      -4.863 -12.096  17.788  0.00  0.00    +0.220 C 
ATOM     20  C   UNL     1      -5.639 -12.158  15.357  0.00  0.00    +0.118 C 
ATOM     21  C   UNL     1      -3.543 -11.238  15.856  0.00  0.00    +0.039 A 
ATOM     22  C   UNL     1      -5.016 -11.711  14.031  0.00  0.00    +0.056 C 
ATOM     24  C   UNL     1      -3.705 -11.146  14.472  0.00  0.00    -0.024 A 
ATOM     25  C   UNL     1      -2.388 -10.769  16.464  0.00  0.00    +0.024 A 
ATOM     26  C   UNL     1      -2.724 -10.589  13.666  0.00  0.00    +0.005 A 
ATOM     29  C   UNL     1      -1.393 -10.204  15.660  0.00  0.00    +0.002 A 
ATOM     30  C   UNL     1      -1.560 -10.114  14.270  0.00  0.00    +0.000 A 
ENDBRANCH  17  18
ENDBRANCH  15  17
ENDBRANCH  10  15
TORSDOF 6
ENDMDL
MODEL 8
REMARK VINA RESULT:      -7.3     17.743     20.563
REMARK  Name = 26762194
REMARK  8 active torsions:
REMARK  status: ('A' for Active; 'I' for Inactive)
REMARK    1  A    between atoms: N_6  and  C_11
REMARK    2  A    between atoms: N_8  and  C_33
REMARK    3  A    between atoms: N_8  and  C_34
REMARK    4  A    between atoms: N_8  and  C_35
REMARK    5  A    between atoms: C_10  and  C_15
REMARK    6  A    between atoms: C_15  and  C_17
REMARK    7  A    between atoms: C_17  and  C_18
REMARK    8  A    between atoms: C_19  and  C_23
REMARK                            x       y       z     vdW  Elec       q    Type
REMARK                         _______ _______ _______ _____ _____    ______ ____
ROOT
ATOM      1  O   UNL     1      -9.233 -14.170  17.784  0.00  0.00    -0.274 OA
ATOM      4  N   UNL     1      -6.599 -11.975  18.989  0.00  0.00    -0.285 NA
ATOM      5  N   UNL     1      -7.080 -13.968  17.076  0.00  0.00    -0.313 N 
ATOM      9  C   UNL     1      -7.799 -12.802  19.149  0.00  0.00    +0.145 C 
ATOM     10  C   UNL     1      -5.462 -12.707  18.441  0.00  0.00    +0.075 C 
ATOM     11  C   UNL     1      -8.316 -10.424  19.020  0.00  0.00    +0.089 C 
ATOM     12  C   UNL     1      -8.911 -11.779  19.412  0.00  0.00    +0.052 C 
ATOM     13  C   UNL     1      -7.019 -10.762  18.295  0.00  0.00    +0.107 C 
ATOM     14  C   UNL     1      -5.793 -13.308  17.082  0.00  0.00    +0.123 C 
ATOM     16  C   UNL     1      -8.113 -13.675  17.937  0.00  0.00    +0.230 C 
ATOM     36  H   UNL     1      -7.284 -14.584  16.295  0.00  0.00    +0.149 HD
ENDROOT
BRANCH  11   6
ATOM      3  O   UNL     1     -11.087  -9.901  19.542  0.00  0.00    -0.270 OA
ATOM      6  N   UNL     1      -9.204  -9.633  18.214  0.00  0.00    -0.307 N 
ATOM     19  C   UNL     1     -10.537  -9.435  18.547  0.00  0.00    +0.244 C 
ATOM     37  H   UNL     1      -8.850  -9.309  17.320  0.00  0.00    +0.149 HD
BRANCH  19  23
ATOM     23  C   UNL     1     -11.331  -8.614  17.598  0.00  0.00    +0.037 A 
ATOM     27  C   UNL     1     -12.612  -9.020  17.226  0.00  0.00    +0.015 A 
ATOM     28  C   UNL     1     -10.793  -7.438  17.076  0.00  0.00    +0.015 A 
ATOM     31  C   UNL     1     -13.357  -8.250  16.333  0.00  0.00    +0.024 A 
ATOM     32  C   UNL     1     -11.538  -6.667  16.182  0.00  0.00    +0.024 A 
ATOM     33  C   UNL     1     -12.819  -7.073  15.811  0.00  0.00    +0.029 A 
BRANCH  33   8
ATOM      8  N   UNL     1     -13.571  -6.293  14.908  0.00  0.00    -0.336 N 
ATOM     34  C   UNL     1     -15.007  -6.466  14.809  0.00  0.00    +0.129 C 
ATOM     35  C   UNL     1     -12.919  -5.304  14.073  0.00  0.00    +0.129 C 
ENDBRANCH  33   8
ENDBRANCH  19  23
ENDBRANCH  11   6
BRANCH  10  15
ATOM     15  C   UNL     1      -4.195 -11.852  18.369  0.00  0.00    +0.029 C 
BRANCH  15  17
ATOM     17  C   UNL     1      -4.371 -10.630  17.480  0.00  0.00    +0.098 C 
BRANCH  17  18
ATOM      2  O   UNL     1      -2.272 -10.937  16.422  0.00  0.00    -0.275 OA
ATOM      7  N   UNL     1      -4.111 -10.500  15.054  0.00  0.00    -0.271 N 
ATOM     18  C   UNL     1      -3.471 -10.706  16.268  0.00  0.00    +0.220 C 
ATOM     20  C   UNL     1      -5.552 -10.223  14.872  0.00  0.00    +0.118 C 
ATOM     21  C   UNL     1      -3.500 -10.518  13.783  0.00  0.00    +0.039 A 
ATOM     22  C   UNL     1      -5.813 -10.073  13.369  0.00  0.00    +0.056 C 
ATOM     24  C   UNL     1      -4.451 -10.274  12.790  0.00  0.00    -0.024 A 
ATOM     25  C   UNL     1      -2.170 -10.733  13.449  0.00  0.00    +0.024 A 
ATOM     26  C   UNL     1      -4.102 -10.241  11.449  0.00  0.00    +0.005 A 
ATOM     29  C   UNL     1      -1.809 -10.701  12.099  0.00  0.00    +0.002 A 
ATOM     30  C   UNL     1      -2.767 -10.456  11.105  0.00  0.00    +0.000 A 
ENDBRANCH  17  18
ENDBRANCH  15  17
ENDBRANCH  10  15
TORSDOF 6
ENDMDL
MODEL 9
REMARK VINA RESULT:      -7.3     28.926     33.894
REMARK  Name = 26762194
REMARK  8 active torsions:
REMARK  status: ('A' for Active; 'I' for Inactive)
REMARK    1  A    between atoms: N_6  and  C_11
REMARK    2  A    between atoms: N_8  and  C_33
REMARK    3  A    between atoms: N_8  and  C_34
REMARK    4  A    between atoms: N_8  and  C_35
REMARK    5  A    between atoms: C_10  and  C_15
REMARK    6  A    between atoms: C_15  and  C_17
REMARK    7  A    between atoms: C_17  and  C_18
REMARK    8  A    between atoms: C_19  and  C_23
REMARK                            x       y       z     vdW  Elec       q    Type
REMARK                         _______ _______ _______ _____ _____    ______ ____
ROOT
ATOM      1  O   UNL     1       8.755   8.061   7.590  0.00  0.00    -0.274 OA
ATOM      4  N   UNL     1      10.258   6.993   4.458  0.00  0.00    -0.285 NA
ATOM      5  N   UNL     1       9.147   5.958   6.814  0.00  0.00    -0.313 N 
ATOM      9  C   UNL     1      10.089   7.905   5.593  0.00  0.00    +0.145 C 
ATOM     10  C   UNL     1      10.605   5.633   4.855  0.00  0.00    +0.075 C 
ATOM     11  C   UNL     1       8.937   8.685   3.593  0.00  0.00    +0.089 C 
ATOM     12  C   UNL     1       9.425   9.140   4.971  0.00  0.00    +0.052 C 
ATOM     13  C   UNL     1       9.086   7.170   3.606  0.00  0.00    +0.107 C 
ATOM     14  C   UNL     1       9.546   5.037   5.773  0.00  0.00    +0.123 C 
ATOM     16  C   UNL     1       9.250   7.327   6.730  0.00  0.00    +0.230 C 
ATOM     36  H   UNL     1       8.622   5.577   7.597  0.00  0.00    +0.149 HD
ENDROOT
BRANCH  11   6
ATOM      3  O   UNL     1       7.848   9.295   1.011  0.00  0.00    -0.270 OA
ATOM      6  N   UNL     1       7.592   9.102   3.309  0.00  0.00    -0.307 N 
ATOM     19  C   UNL     1       7.153   9.378   2.021  0.00  0.00    +0.244 C 
ATOM     37  H   UNL     1       6.993   9.300   4.103  0.00  0.00    +0.149 HD
BRANCH  19  23
ATOM     23  C   UNL     1       5.741   9.823   1.896  0.00  0.00    +0.037 A 
ATOM     27  C   UNL     1       5.140  10.534   2.934  0.00  0.00    +0.015 A 
ATOM     28  C   UNL     1       5.017   9.527   0.742  0.00  0.00    +0.015 A 
ATOM     31  C   UNL     1       3.814  10.951   2.818  0.00  0.00    +0.024 A 
ATOM     32  C   UNL     1       3.690   9.943   0.625  0.00  0.00    +0.024 A 
ATOM     33  C   UNL     1       3.089  10.655   1.662  0.00  0.00    +0.029 A 
BRANCH  33   8
ATOM      8  N   UNL     1       1.748  11.076   1.543  0.00  0.00    -0.336 N 
ATOM     34  C   UNL     1       0.753  10.635   2.502  0.00  0.00    +0.129 C 
ATOM     35  C   UNL     1       1.349  11.961   0.467  0.00  0.00    +0.129 C 
ENDBRANCH  33   8
ENDBRANCH  19  23
ENDBRANCH  11   6
BRANCH  10  15
ATOM     15  C   UNL     1      10.866   4.721   3.655  0.00  0.00    +0.029 C 
BRANCH  15  17
ATOM     17  C   UNL     1      11.944   5.271   2.733  0.00  0.00    +0.098 C 
BRANCH  17  18
ATOM      2  O   UNL     1      13.027   3.451   1.669  0.00  0.00    -0.275 OA
ATOM      7  N   UNL     1      11.402   4.598   0.448  0.00  0.00    -0.271 N 
ATOM     18  C   UNL     1      12.186   4.343   1.566  0.00  0.00    +0.220 C 
ATOM     20  C   UNL     1      10.391   5.669   0.326  0.00  0.00    +0.118 C 
ATOM     21  C   UNL     1      11.435   3.879  -0.766  0.00  0.00    +0.039 A 
ATOM     22  C   UNL     1       9.771   5.570  -1.072  0.00  0.00    +0.056 C 
ATOM     24  C   UNL     1      10.509   4.414  -1.664  0.00  0.00    -0.024 A 
ATOM     25  C   UNL     1      12.222   2.795  -1.126  0.00  0.00    +0.024 A 
ATOM     26  C   UNL     1      10.346   3.883  -2.934  0.00  0.00    +0.005 A 
ATOM     29  C   UNL     1      12.065   2.253  -2.405  0.00  0.00    +0.002 A 
ATOM     30  C   UNL     1      11.134   2.793  -3.304  0.00  0.00    +0.000 A 
ENDBRANCH  17  18
ENDBRANCH  15  17
ENDBRANCH  10  15
TORSDOF 6
ENDMDL
MODEL 10
REMARK VINA RESULT:      -7.2     17.146     18.518
REMARK  Name = 26762194
REMARK  8 active torsions:
REMARK  status: ('A' for Active; 'I' for Inactive)
REMARK    1  A    between atoms: N_6  and  C_11
REMARK    2  A    between atoms: N_8  and  C_33
REMARK    3  A    between atoms: N_8  and  C_34
REMARK    4  A    between atoms: N_8  and  C_35
REMARK    5  A    between atoms: C_10  and  C_15
REMARK    6  A    between atoms: C_15  and  C_17
REMARK    7  A    between atoms: C_17  and  C_18
REMARK    8  A    between atoms: C_19  and  C_23
REMARK                            x       y       z     vdW  Elec       q    Type
REMARK                         _______ _______ _______ _____ _____    ______ ____
ROOT
ATOM      1  O   UNL     1     -12.001  -8.731  14.320  0.00  0.00    -0.274 OA
ATOM      4  N   UNL     1     -11.282  -8.877  17.880  0.00  0.00    -0.285 NA
ATOM      5  N   UNL     1     -12.726 -10.216  15.884  0.00  0.00    -0.313 N 
ATOM      9  C   UNL     1     -11.501  -8.180  16.610  0.00  0.00    +0.145 C 
ATOM     10  C   UNL     1     -12.403  -9.723  18.277  0.00  0.00    +0.075 C 
ATOM     11  C   UNL     1      -9.137  -8.387  17.163  0.00  0.00    +0.089 C 
ATOM     12  C   UNL     1     -10.112  -7.641  16.248  0.00  0.00    +0.052 C 
ATOM     13  C   UNL     1      -9.965  -9.501  17.790  0.00  0.00    +0.107 C 
ATOM     14  C   UNL     1     -12.705 -10.775  17.218  0.00  0.00    +0.123 C 
ATOM     16  C   UNL     1     -12.063  -9.072  15.505  0.00  0.00    +0.230 C 
ATOM     36  H   UNL     1     -13.135 -10.784  15.148  0.00  0.00    +0.149 HD
ENDROOT
BRANCH  11   6
ATOM      3  O   UNL     1      -6.905  -9.764  18.323  0.00  0.00    -0.270 OA
ATOM      6  N   UNL     1      -7.984  -8.886  16.467  0.00  0.00    -0.307 N 
ATOM     19  C   UNL     1      -6.947  -9.542  17.116  0.00  0.00    +0.244 C 
ATOM     37  H   UNL     1      -7.896  -8.642  15.486  0.00  0.00    +0.149 HD
BRANCH  19  23
ATOM     23  C   UNL     1      -5.813  -9.974  16.259  0.00  0.00    +0.037 A 
ATOM     27  C   UNL     1      -4.590 -10.312  16.839  0.00  0.00    +0.015 A 
ATOM     28  C   UNL     1      -5.970 -10.039  14.875  0.00  0.00    +0.015 A 
ATOM     31  C   UNL     1      -3.525 -10.716  16.035  0.00  0.00    +0.024 A 
ATOM     32  C   UNL     1      -4.904 -10.443  14.070  0.00  0.00    +0.024 A 
ATOM     33  C   UNL     1      -3.682 -10.782  14.650  0.00  0.00    +0.029 A 
BRANCH  33   8
ATOM      8  N   UNL     1      -2.606 -11.190  13.836  0.00  0.00    -0.336 N 
ATOM     34  C   UNL     1      -1.784 -12.322  14.218  0.00  0.00    +0.129 C 
ATOM     35  C   UNL     1      -2.312 -10.489  12.602  0.00  0.00    +0.129 C 
ENDBRANCH  33   8
ENDBRANCH  19  23
ENDBRANCH  11   6
BRANCH  10  15
ATOM     15  C   UNL     1     -12.193 -10.368  19.648  0.00  0.00    +0.029 C 
BRANCH  15  17
ATOM     17  C   UNL     1     -12.207 -11.888  19.582  0.00  0.00    +0.098 C 
BRANCH  17  18
ATOM      2  O   UNL     1     -13.508 -12.191  21.539  0.00  0.00    -0.275 OA
ATOM      7  N   UNL     1     -11.487 -13.350  21.402  0.00  0.00    -0.271 N 
ATOM     18  C   UNL     1     -12.474 -12.488  20.942  0.00  0.00    +0.220 C 
ATOM     20  C   UNL     1     -10.245 -13.705  20.682  0.00  0.00    +0.118 C 
ATOM     21  C   UNL     1     -11.496 -14.035  22.635  0.00  0.00    +0.039 A 
ATOM     22  C   UNL     1      -9.461 -14.687  21.560  0.00  0.00    +0.056 C 
ATOM     24  C   UNL     1     -10.343 -14.813  22.759  0.00  0.00    -0.024 A 
ATOM     25  C   UNL     1     -12.447 -14.016  23.645  0.00  0.00    +0.024 A 
ATOM     26  C   UNL     1     -10.113 -15.588  23.885  0.00  0.00    +0.005 A 
ATOM     29  C   UNL     1     -12.222 -14.793  24.786  0.00  0.00    +0.002 A 
ATOM     30  C   UNL     1     -11.064 -15.574  24.906  0.00  0.00    +0.000 A 
ENDBRANCH  17  18
ENDBRANCH  15  17
ENDBRANCH  10  15
TORSDOF 6
ENDMDL
