MODEL 1
REMARK VINA RESULT:      -7.4      0.000      0.000
REMARK  Name = 11887504
REMARK  4 active torsions:
REMARK  status: ('A' for Active; 'I' for Inactive)
REMARK    1  A    between atoms: N_7  and  C_21
REMARK    2  A    between atoms: N_8  and  C_19
REMARK    3  A    between atoms: C_22  and  C_23
REMARK    4  A    between atoms: C_23  and  C_26
REMARK                            x       y       z     vdW  Elec       q    Type
REMARK                         _______ _______ _______ _____ _____    ______ ____
ROOT
ATOM      2  O   UNL     1      12.877   8.560   3.784  0.00  0.00    -0.266 OA
ATOM      3  O   UNL     1       8.646  10.157   6.398  0.00  0.00    -0.252 OA
ATOM      5  N   UNL     1       8.913   7.890   6.773  0.00  0.00    -0.284 N 
ATOM      6  N   UNL     1      11.601   7.206   5.195  0.00  0.00    -0.310 N 
ATOM      7  N   UNL     1       9.606   9.460   8.390  0.00  0.00    -0.269 N 
ATOM      9  C   UNL     1       9.181   6.555   4.676  0.00  0.00    +0.027 C 
ATOM     10  C   UNL     1      10.232   5.777   6.756  0.00  0.00    +0.054 C 
ATOM     11  C   UNL     1       9.479   5.317   5.511  0.00  0.00    +0.018 C 
ATOM     12  C   UNL     1       8.319   7.546   5.476  0.00  0.00    +0.114 C 
ATOM     13  C   UNL     1      10.504   7.179   4.218  0.00  0.00    +0.130 C 
ATOM     14  C   UNL     1       9.344   6.734   7.580  0.00  0.00    +0.119 C 
ATOM     15  C   UNL     1      11.527   6.475   6.385  0.00  0.00    +0.027 A 
ATOM     16  C   UNL     1      12.587   6.420   7.210  0.00  0.00    +0.024 A 
ATOM     17  C   UNL     1      12.761   7.917   4.826  0.00  0.00    +0.273 A 
ATOM     18  C   UNL     1       9.035   9.248   7.136  0.00  0.00    +0.306 C 
ATOM     19  C   UNL     1      13.909   7.852   5.786  0.00  0.00    +0.099 A 
ATOM     20  C   UNL     1      13.799   7.124   6.903  0.00  0.00    +0.030 A 
ATOM     35  H   UNL     1       9.498   8.741   9.096  0.00  0.00    +0.156 HD
ENDROOT
BRANCH   7  21
ATOM      1  F   UNL     1      12.313  13.977  10.115  0.00  0.00    -0.205 F 
ATOM     21  C   UNL     1      10.298  10.615   8.832  0.00  0.00    +0.035 A 
ATOM     24  C   UNL     1       9.659  11.530   9.664  0.00  0.00    +0.026 A 
ATOM     25  C   UNL     1      11.614  10.829   8.430  0.00  0.00    +0.026 A 
ATOM     27  C   UNL     1      10.340  12.667  10.098  0.00  0.00    +0.040 A 
ATOM     28  C   UNL     1      12.296  11.966   8.864  0.00  0.00    +0.040 A 
ATOM     29  C   UNL     1      11.658  12.885   9.698  0.00  0.00    +0.124 A 
ENDBRANCH   7  21
BRANCH  19   8
ATOM      4  O   UNL     1      16.042   6.936   4.111  0.00  0.00    -0.275 OA
ATOM      8  N   UNL     1      15.044   8.540   5.473  0.00  0.00    -0.281 N 
ATOM     22  C   UNL     1      16.048   8.039   4.652  0.00  0.00    +0.222 C 
ATOM     36  H   UNL     1      15.252   9.351   6.050  0.00  0.00    +0.155 HD
BRANCH  22  23
ATOM     23  C   UNL     1      17.180   9.037   4.495  0.00  0.00    +0.131 C 
BRANCH  23  26
ATOM     26  C   UNL     1      18.485   8.557   5.074  0.00  0.00    -0.039 A 
ATOM     30  C   UNL     1      19.364   7.843   4.272  0.00  0.00    +0.004 A 
ATOM     31  C   UNL     1      18.789   8.837   6.398  0.00  0.00    +0.004 A 
ATOM     32  C   UNL     1      20.573   7.398   4.808  0.00  0.00    +0.000 A 
ATOM     33  C   UNL     1      19.998   8.393   6.933  0.00  0.00    +0.000 A 
ATOM     34  C   UNL     1      20.890   7.673   6.138  0.00  0.00    +0.000 A 
ENDBRANCH  23  26
ENDBRANCH  22  23
ENDBRANCH  19   8
TORSDOF 4
ENDMDL
MODEL 2
REMARK VINA RESULT:      -7.4     12.570     14.388
REMARK  Name = 11887504
REMARK  4 active torsions:
REMARK  status: ('A' for Active; 'I' for Inactive)
REMARK    1  A    between atoms: N_7  and  C_21
REMARK    2  A    between atoms: N_8  and  C_19
REMARK    3  A    between atoms: C_22  and  C_23
REMARK    4  A    between atoms: C_23  and  C_26
REMARK                            x       y       z     vdW  Elec       q    Type
REMARK                         _______ _______ _______ _____ _____    ______ ____
ROOT
ATOM      2  O   UNL     1      15.913   6.179  19.952  0.00  0.00    -0.266 OA
ATOM      3  O   UNL     1      12.415   8.894  17.180  0.00  0.00    -0.252 OA
ATOM      5  N   UNL     1      12.097   9.381  19.419  0.00  0.00    -0.284 N 
ATOM      6  N   UNL     1      14.411   7.721  20.859  0.00  0.00    -0.310 N 
ATOM      7  N   UNL     1      13.274  10.875  18.024  0.00  0.00    -0.269 N 
ATOM      9  C   UNL     1      11.879   7.352  20.862  0.00  0.00    +0.027 C 
ATOM     10  C   UNL     1      12.808   9.421  21.805  0.00  0.00    +0.054 C 
ATOM     11  C   UNL     1      11.889   8.240  22.100  0.00  0.00    +0.018 C 
ATOM     12  C   UNL     1      11.357   8.135  19.646  0.00  0.00    +0.114 C 
ATOM     13  C   UNL     1      13.289   6.799  20.633  0.00  0.00    +0.130 C 
ATOM     14  C   UNL     1      12.255  10.231  20.614  0.00  0.00    +0.119 C 
ATOM     15  C   UNL     1      14.218   8.952  21.494  0.00  0.00    +0.027 A 
ATOM     16  C   UNL     1      15.273   9.729  21.794  0.00  0.00    +0.024 A 
ATOM     17  C   UNL     1      15.692   7.260  20.498  0.00  0.00    +0.273 A 
ATOM     18  C   UNL     1      12.594   9.663  18.129  0.00  0.00    +0.306 C 
ATOM     19  C   UNL     1      16.838   8.167  20.827  0.00  0.00    +0.099 A 
ATOM     20  C   UNL     1      16.607   9.327  21.452  0.00  0.00    +0.030 A 
ATOM     35  H   UNL     1      13.023  11.624  18.660  0.00  0.00    +0.156 HD
ENDROOT
BRANCH   7  21
ATOM      1  F   UNL     1      17.175  12.219  14.325  0.00  0.00    -0.205 F 
ATOM     21  C   UNL     1      14.272  11.219  17.078  0.00  0.00    +0.035 A 
ATOM     24  C   UNL     1      14.124  10.840  15.747  0.00  0.00    +0.026 A 
ATOM     25  C   UNL     1      15.395  11.934  17.486  0.00  0.00    +0.026 A 
ATOM     27  C   UNL     1      15.106  11.178  14.816  0.00  0.00    +0.040 A 
ATOM     28  C   UNL     1      16.378  12.272  16.555  0.00  0.00    +0.040 A 
ATOM     29  C   UNL     1      16.232  11.894  15.220  0.00  0.00    +0.124 A 
ENDBRANCH   7  21
BRANCH  19   8
ATOM      4  O   UNL     1      18.631   6.622  22.436  0.00  0.00    -0.275 OA
ATOM      8  N   UNL     1      18.094   7.764  20.479  0.00  0.00    -0.281 N 
ATOM     22  C   UNL     1      18.920   7.014  21.308  0.00  0.00    +0.222 C 
ATOM     36  H   UNL     1      18.510   8.229  19.676  0.00  0.00    +0.155 HD
BRANCH  22  23
ATOM     23  C   UNL     1      20.252   6.724  20.642  0.00  0.00    +0.131 C 
BRANCH  23  26
ATOM     26  C   UNL     1      20.965   5.533  21.225  0.00  0.00    -0.039 A 
ATOM     30  C   UNL     1      21.744   5.694  22.363  0.00  0.00    +0.004 A 
ATOM     31  C   UNL     1      20.833   4.293  20.617  0.00  0.00    +0.004 A 
ATOM     32  C   UNL     1      22.404   4.590  22.903  0.00  0.00    +0.000 A 
ATOM     33  C   UNL     1      21.493   3.190  21.158  0.00  0.00    +0.000 A 
ATOM     34  C   UNL     1      22.279   3.338  22.301  0.00  0.00    +0.000 A 
ENDBRANCH  23  26
ENDBRANCH  22  23
ENDBRANCH  19   8
TORSDOF 4
ENDMDL
MODEL 3
REMARK VINA RESULT:      -7.4      4.082      7.074
REMARK  Name = 11887504
REMARK  4 active torsions:
REMARK  status: ('A' for Active; 'I' for Inactive)
REMARK    1  A    between atoms: N_7  and  C_21
REMARK    2  A    between atoms: N_8  and  C_19
REMARK    3  A    between atoms: C_22  and  C_23
REMARK    4  A    between atoms: C_23  and  C_26
REMARK                            x       y       z     vdW  Elec       q    Type
REMARK                         _______ _______ _______ _____ _____    ______ ____
ROOT
ATOM      2  O   UNL     1       9.084   7.912   2.781  0.00  0.00    -0.266 OA
ATOM      3  O   UNL     1      12.331   9.580   6.518  0.00  0.00    -0.252 OA
ATOM      5  N   UNL     1      11.159   7.763   7.339  0.00  0.00    -0.284 N 
ATOM      6  N   UNL     1       9.371   6.869   4.852  0.00  0.00    -0.310 N 
ATOM      7  N   UNL     1      13.368   7.507   6.552  0.00  0.00    -0.269 N 
ATOM      9  C   UNL     1       8.683   7.962   7.061  0.00  0.00    +0.027 C 
ATOM     10  C   UNL     1       9.731   5.740   7.076  0.00  0.00    +0.054 C 
ATOM     11  C   UNL     1       8.520   6.532   7.559  0.00  0.00    +0.018 C 
ATOM     12  C   UNL     1       9.974   8.580   7.622  0.00  0.00    +0.114 C 
ATOM     13  C   UNL     1       8.660   7.962   5.528  0.00  0.00    +0.130 C 
ATOM     14  C   UNL     1      11.020   6.335   7.680  0.00  0.00    +0.119 C 
ATOM     15  C   UNL     1       9.824   5.752   5.561  0.00  0.00    +0.027 A 
ATOM     16  C   UNL     1      10.368   4.712   4.907  0.00  0.00    +0.024 A 
ATOM     17  C   UNL     1       9.481   6.957   3.450  0.00  0.00    +0.273 A 
ATOM     18  C   UNL     1      12.299   8.374   6.773  0.00  0.00    +0.306 C 
ATOM     19  C   UNL     1      10.117   5.789   2.762  0.00  0.00    +0.099 A 
ATOM     20  C   UNL     1      10.518   4.734   3.480  0.00  0.00    +0.030 A 
ATOM     35  H   UNL     1      13.457   6.691   7.147  0.00  0.00    +0.156 HD
ENDROOT
BRANCH   7  21
ATOM      1  F   UNL     1      17.433   8.087   2.832  0.00  0.00    -0.205 F 
ATOM     21  C   UNL     1      14.408   7.655   5.601  0.00  0.00    +0.035 A 
ATOM     24  C   UNL     1      15.642   8.161   5.997  0.00  0.00    +0.026 A 
ATOM     25  C   UNL     1      14.189   7.293   4.274  0.00  0.00    +0.026 A 
ATOM     27  C   UNL     1      16.666   8.308   5.061  0.00  0.00    +0.040 A 
ATOM     28  C   UNL     1      15.212   7.440   3.337  0.00  0.00    +0.040 A 
ATOM     29  C   UNL     1      16.450   7.946   3.731  0.00  0.00    +0.124 A 
ENDBRANCH   7  21
BRANCH  19   8
ATOM      4  O   UNL     1      12.383   6.788   1.326  0.00  0.00    -0.275 OA
ATOM      8  N   UNL     1      10.257   5.842   1.406  0.00  0.00    -0.281 N 
ATOM     22  C   UNL     1      11.385   6.342   0.766  0.00  0.00    +0.222 C 
ATOM     36  H   UNL     1       9.408   5.720   0.861  0.00  0.00    +0.155 HD
BRANCH  22  23
ATOM     23  C   UNL     1      11.241   6.267  -0.743  0.00  0.00    +0.131 C 
BRANCH  23  26
ATOM     26  C   UNL     1      11.442   4.881  -1.295  0.00  0.00    -0.039 A 
ATOM     30  C   UNL     1      10.561   4.393  -2.250  0.00  0.00    +0.004 A 
ATOM     31  C   UNL     1      12.504   4.113  -0.841  0.00  0.00    +0.004 A 
ATOM     32  C   UNL     1      10.747   3.108  -2.761  0.00  0.00    +0.000 A 
ATOM     33  C   UNL     1      12.689   2.829  -1.353  0.00  0.00    +0.000 A 
ATOM     34  C   UNL     1      11.811   2.326  -2.314  0.00  0.00    +0.000 A 
ENDBRANCH  23  26
ENDBRANCH  22  23
ENDBRANCH  19   8
TORSDOF 4
ENDMDL
MODEL 4
REMARK VINA RESULT:      -7.2      3.589      5.978
REMARK  Name = 11887504
REMARK  4 active torsions:
REMARK  status: ('A' for Active; 'I' for Inactive)
REMARK    1  A    between atoms: N_7  and  C_21
REMARK    2  A    between atoms: N_8  and  C_19
REMARK    3  A    between atoms: C_22  and  C_23
REMARK    4  A    between atoms: C_23  and  C_26
REMARK                            x       y       z     vdW  Elec       q    Type
REMARK                         _______ _______ _______ _____ _____    ______ ____
ROOT
ATOM      2  O   UNL     1      13.089   8.049   7.347  0.00  0.00    -0.266 OA
ATOM      3  O   UNL     1      10.388   4.329   4.867  0.00  0.00    -0.252 OA
ATOM      5  N   UNL     1       9.293   6.342   4.559  0.00  0.00    -0.284 N 
ATOM      6  N   UNL     1      11.193   8.436   6.039  0.00  0.00    -0.310 N 
ATOM      7  N   UNL     1      10.667   5.455   2.860  0.00  0.00    -0.269 N 
ATOM      9  C   UNL     1       8.867   7.585   6.686  0.00  0.00    +0.027 C 
ATOM     10  C   UNL     1       9.169   8.830   4.589  0.00  0.00    +0.054 C 
ATOM     11  C   UNL     1       8.359   8.774   5.881  0.00  0.00    +0.018 C 
ATOM     12  C   UNL     1       8.682   6.282   5.891  0.00  0.00    +0.114 C 
ATOM     13  C   UNL     1      10.333   7.828   7.064  0.00  0.00    +0.130 C 
ATOM     14  C   UNL     1       8.942   7.540   3.773  0.00  0.00    +0.119 C 
ATOM     15  C   UNL     1      10.649   8.996   4.879  0.00  0.00    +0.027 A 
ATOM     16  C   UNL     1      11.441   9.649   4.011  0.00  0.00    +0.024 A 
ATOM     17  C   UNL     1      12.569   8.514   6.332  0.00  0.00    +0.273 A 
ATOM     18  C   UNL     1      10.148   5.299   4.144  0.00  0.00    +0.306 C 
ATOM     19  C   UNL     1      13.419   9.226   5.327  0.00  0.00    +0.099 A 
ATOM     20  C   UNL     1      12.853   9.764   4.241  0.00  0.00    +0.030 A 
ATOM     35  H   UNL     1      10.129   5.985   2.184  0.00  0.00    +0.156 HD
ENDROOT
BRANCH   7  21
ATOM      1  F   UNL     1      15.366   3.300   0.866  0.00  0.00    -0.205 F 
ATOM     21  C   UNL     1      11.869   4.904   2.349  0.00  0.00    +0.035 A 
ATOM     24  C   UNL     1      11.905   3.571   1.950  0.00  0.00    +0.026 A 
ATOM     25  C   UNL     1      13.008   5.699   2.251  0.00  0.00    +0.026 A 
ATOM     27  C   UNL     1      13.088   3.028   1.448  0.00  0.00    +0.040 A 
ATOM     28  C   UNL     1      14.191   5.157   1.750  0.00  0.00    +0.040 A 
ATOM     29  C   UNL     1      14.230   3.821   1.348  0.00  0.00    +0.124 A 
ENDBRANCH   7  21
BRANCH  19   8
ATOM      4  O   UNL     1      15.390   7.262   4.652  0.00  0.00    -0.275 OA
ATOM      8  N   UNL     1      14.760   9.309   5.566  0.00  0.00    -0.281 N 
ATOM     22  C   UNL     1      15.669   8.318   5.214  0.00  0.00    +0.222 C 
ATOM     36  H   UNL     1      15.055  10.024   6.226  0.00  0.00    +0.155 HD
BRANCH  22  23
ATOM     23  C   UNL     1      17.083   8.702   5.612  0.00  0.00    +0.131 C 
BRANCH  23  26
ATOM     26  C   UNL     1      18.095   8.461   4.524  0.00  0.00    -0.039 A 
ATOM     30  C   UNL     1      19.282   7.810   4.829  0.00  0.00    +0.004 A 
ATOM     31  C   UNL     1      17.826   8.892   3.233  0.00  0.00    +0.004 A 
ATOM     32  C   UNL     1      20.220   7.587   3.821  0.00  0.00    +0.000 A 
ATOM     33  C   UNL     1      18.765   8.668   2.226  0.00  0.00    +0.000 A 
ATOM     34  C   UNL     1      19.962   8.015   2.519  0.00  0.00    +0.000 A 
ENDBRANCH  23  26
ENDBRANCH  22  23
ENDBRANCH  19   8
TORSDOF 4
ENDMDL
MODEL 5
REMARK VINA RESULT:      -7.1      6.752     10.935
REMARK  Name = 11887504
REMARK  4 active torsions:
REMARK  status: ('A' for Active; 'I' for Inactive)
REMARK    1  A    between atoms: N_7  and  C_21
REMARK    2  A    between atoms: N_8  and  C_19
REMARK    3  A    between atoms: C_22  and  C_23
REMARK    4  A    between atoms: C_23  and  C_26
REMARK                            x       y       z     vdW  Elec       q    Type
REMARK                         _______ _______ _______ _____ _____    ______ ____
ROOT
ATOM      2  O   UNL     1      12.209   7.213   1.216  0.00  0.00    -0.266 OA
ATOM      3  O   UNL     1      13.269   6.011  -3.756  0.00  0.00    -0.252 OA
ATOM      5  N   UNL     1      15.146   5.548  -2.485  0.00  0.00    -0.284 N 
ATOM      6  N   UNL     1      14.200   6.235   0.484  0.00  0.00    -0.310 N 
ATOM      7  N   UNL     1      13.687   3.814  -3.142  0.00  0.00    -0.269 N 
ATOM      9  C   UNL     1      15.864   7.451  -1.033  0.00  0.00    +0.027 C 
ATOM     10  C   UNL     1      16.322   5.142  -0.328  0.00  0.00    +0.054 C 
ATOM     11  C   UNL     1      16.906   6.551  -0.381  0.00  0.00    +0.018 C 
ATOM     12  C   UNL     1      15.545   6.959  -2.455  0.00  0.00    +0.114 C 
ATOM     13  C   UNL     1      14.617   7.497  -0.144  0.00  0.00    +0.130 C 
ATOM     14  C   UNL     1      16.047   4.635  -1.759  0.00  0.00    +0.119 C 
ATOM     15  C   UNL     1      15.036   5.114   0.479  0.00  0.00    +0.027 A 
ATOM     16  C   UNL     1      14.686   4.008   1.157  0.00  0.00    +0.024 A 
ATOM     17  C   UNL     1      12.970   6.246   1.171  0.00  0.00    +0.273 A 
ATOM     18  C   UNL     1      13.968   5.179  -3.171  0.00  0.00    +0.306 C 
ATOM     19  C   UNL     1      12.604   4.986   1.892  0.00  0.00    +0.099 A 
ATOM     20  C   UNL     1      13.445   3.945   1.875  0.00  0.00    +0.030 A 
ATOM     35  H   UNL     1      14.461   3.165  -3.052  0.00  0.00    +0.156 HD
ENDROOT
BRANCH   7  21
ATOM      1  F   UNL     1       8.726   1.404  -3.673  0.00  0.00    -0.205 F 
ATOM     21  C   UNL     1      12.418   3.198  -3.278  0.00  0.00    +0.035 A 
ATOM     24  C   UNL     1      11.968   2.317  -2.299  0.00  0.00    +0.026 A 
ATOM     25  C   UNL     1      11.628   3.478  -4.390  0.00  0.00    +0.026 A 
ATOM     27  C   UNL     1      10.720   1.709  -2.433  0.00  0.00    +0.040 A 
ATOM     28  C   UNL     1      10.379   2.871  -4.524  0.00  0.00    +0.040 A 
ATOM     29  C   UNL     1       9.926   1.987  -3.545  0.00  0.00    +0.124 A 
ENDBRANCH   7  21
BRANCH  19   8
ATOM      4  O   UNL     1      12.028   6.218   4.410  0.00  0.00    -0.275 OA
ATOM      8  N   UNL     1      11.413   4.950   2.556  0.00  0.00    -0.281 N 
ATOM     22  C   UNL     1      11.195   5.569   3.782  0.00  0.00    +0.222 C 
ATOM     36  H   UNL     1      10.743   4.254   2.241  0.00  0.00    +0.155 HD
BRANCH  22  23
ATOM     23  C   UNL     1       9.774   5.350   4.264  0.00  0.00    +0.131 C 
BRANCH  23  26
ATOM     26  C   UNL     1       9.612   5.535   5.750  0.00  0.00    -0.039 A 
ATOM     30  C   UNL     1       9.154   6.751   6.239  0.00  0.00    +0.004 A 
ATOM     31  C   UNL     1       9.921   4.489   6.607  0.00  0.00    +0.004 A 
ATOM     32  C   UNL     1       9.004   6.923   7.615  0.00  0.00    +0.000 A 
ATOM     33  C   UNL     1       9.771   4.663   7.982  0.00  0.00    +0.000 A 
ATOM     34  C   UNL     1       9.311   5.879   8.487  0.00  0.00    +0.000 A 
ENDBRANCH  23  26
ENDBRANCH  22  23
ENDBRANCH  19   8
TORSDOF 4
ENDMDL
MODEL 6
REMARK VINA RESULT:      -7.1      3.976      9.003
REMARK  Name = 11887504
REMARK  4 active torsions:
REMARK  status: ('A' for Active; 'I' for Inactive)
REMARK    1  A    between atoms: N_7  and  C_21
REMARK    2  A    between atoms: N_8  and  C_19
REMARK    3  A    between atoms: C_22  and  C_23
REMARK    4  A    between atoms: C_23  and  C_26
REMARK                            x       y       z     vdW  Elec       q    Type
REMARK                         _______ _______ _______ _____ _____    ______ ____
ROOT
ATOM      2  O   UNL     1      12.297   9.886   4.419  0.00  0.00    -0.266 OA
ATOM      3  O   UNL     1      15.529   8.676   0.497  0.00  0.00    -0.252 OA
ATOM      5  N   UNL     1      16.796   8.983   2.407  0.00  0.00    -0.284 N 
ATOM      6  N   UNL     1      14.600   9.572   4.647  0.00  0.00    -0.310 N 
ATOM      7  N   UNL     1      16.257   6.810   1.664  0.00  0.00    -0.269 N 
ATOM      9  C   UNL     1      16.324  11.137   3.585  0.00  0.00    +0.027 C 
ATOM     10  C   UNL     1      17.081   9.186   4.873  0.00  0.00    +0.054 C 
ATOM     11  C   UNL     1      17.226  10.699   4.732  0.00  0.00    +0.018 C 
ATOM     12  C   UNL     1      16.744  10.443   2.278  0.00  0.00    +0.114 C 
ATOM     13  C   UNL     1      14.867  10.840   3.954  0.00  0.00    +0.130 C 
ATOM     14  C   UNL     1      17.549   8.493   3.577  0.00  0.00    +0.119 C 
ATOM     15  C   UNL     1      15.643   8.800   5.169  0.00  0.00    +0.027 A 
ATOM     16  C   UNL     1      15.372   7.705   5.899  0.00  0.00    +0.024 A 
ATOM     17  C   UNL     1      13.248   9.230   4.845  0.00  0.00    +0.273 A 
ATOM     18  C   UNL     1      16.138   8.182   1.449  0.00  0.00    +0.306 C 
ATOM     19  C   UNL     1      12.989   7.989   5.641  0.00  0.00    +0.099 A 
ATOM     20  C   UNL     1      14.018   7.292   6.137  0.00  0.00    +0.030 A 
ATOM     35  H   UNL     1      17.078   6.469   2.151  0.00  0.00    +0.156 HD
ENDROOT
BRANCH   7  21
ATOM      1  F   UNL     1      12.786   2.842  -0.041  0.00  0.00    -0.205 F 
ATOM     21  C   UNL     1      15.370   5.795   1.228  0.00  0.00    +0.035 A 
ATOM     24  C   UNL     1      15.685   5.035   0.106  0.00  0.00    +0.026 A 
ATOM     25  C   UNL     1      14.186   5.564   1.925  0.00  0.00    +0.026 A 
ATOM     27  C   UNL     1      14.811   4.036  -0.324  0.00  0.00    +0.040 A 
ATOM     28  C   UNL     1      13.312   4.566   1.495  0.00  0.00    +0.040 A 
ATOM     29  C   UNL     1      13.625   3.802   0.371  0.00  0.00    +0.124 A 
ENDBRANCH   7  21
BRANCH  19   8
ATOM      4  O   UNL     1      11.493   6.132   4.057  0.00  0.00    -0.275 OA
ATOM      8  N   UNL     1      11.693   7.614   5.841  0.00  0.00    -0.281 N 
ATOM     22  C   UNL     1      11.018   6.706   5.034  0.00  0.00    +0.222 C 
ATOM     36  H   UNL     1      11.147   8.200   6.469  0.00  0.00    +0.155 HD
BRANCH  22  23
ATOM     23  C   UNL     1       9.593   6.496   5.512  0.00  0.00    +0.131 C 
BRANCH  23  26
ATOM     26  C   UNL     1       9.508   5.877   6.881  0.00  0.00    -0.039 A 
ATOM     30  C   UNL     1       9.868   4.547   7.052  0.00  0.00    +0.004 A 
ATOM     31  C   UNL     1       9.071   6.644   7.952  0.00  0.00    +0.004 A 
ATOM     32  C   UNL     1       9.788   3.973   8.321  0.00  0.00    +0.000 A 
ATOM     33  C   UNL     1       8.992   6.069   9.220  0.00  0.00    +0.000 A 
ATOM     34  C   UNL     1       9.351   4.733   9.405  0.00  0.00    +0.000 A 
ENDBRANCH  23  26
ENDBRANCH  22  23
ENDBRANCH  19   8
TORSDOF 4
ENDMDL
MODEL 7
REMARK VINA RESULT:      -7.1     29.325     33.288
REMARK  Name = 11887504
REMARK  4 active torsions:
REMARK  status: ('A' for Active; 'I' for Inactive)
REMARK    1  A    between atoms: N_7  and  C_21
REMARK    2  A    between atoms: N_8  and  C_19
REMARK    3  A    between atoms: C_22  and  C_23
REMARK    4  A    between atoms: C_23  and  C_26
REMARK                            x       y       z     vdW  Elec       q    Type
REMARK                         _______ _______ _______ _____ _____    ______ ____
ROOT
ATOM      2  O   UNL     1     -11.305 -13.307  17.236  0.00  0.00    -0.266 OA
ATOM      3  O   UNL     1      -7.514 -10.321  15.235  0.00  0.00    -0.252 OA
ATOM      5  N   UNL     1      -9.150  -8.930  16.095  0.00  0.00    -0.284 N 
ATOM      6  N   UNL     1     -11.252 -10.975  17.354  0.00  0.00    -0.310 N 
ATOM      7  N   UNL     1      -7.174  -9.350  17.313  0.00  0.00    -0.269 N 
ATOM      9  C   UNL     1     -11.453  -9.478  15.289  0.00  0.00    +0.027 C 
ATOM     10  C   UNL     1     -11.149  -8.461  17.505  0.00  0.00    +0.054 C 
ATOM     11  C   UNL     1     -12.027  -8.452  16.258  0.00  0.00    +0.018 C 
ATOM     12  C   UNL     1     -10.006  -9.111  14.917  0.00  0.00    +0.114 C 
ATOM     13  C   UNL     1     -11.552 -10.871  15.920  0.00  0.00    +0.130 C 
ATOM     14  C   UNL     1      -9.709  -8.047  17.134  0.00  0.00    +0.119 C 
ATOM     15  C   UNL     1     -11.134  -9.833  18.153  0.00  0.00    +0.027 A 
ATOM     16  C   UNL     1     -10.975  -9.953  19.483  0.00  0.00    +0.024 A 
ATOM     17  C   UNL     1     -11.191 -12.275  17.896  0.00  0.00    +0.273 A 
ATOM     18  C   UNL     1      -7.908  -9.597  16.153  0.00  0.00    +0.306 C 
ATOM     19  C   UNL     1     -10.986 -12.365  19.376  0.00  0.00    +0.099 A 
ATOM     20  C   UNL     1     -10.899 -11.245  20.103  0.00  0.00    +0.030 A 
ATOM     35  H   UNL     1      -7.313  -8.467  17.791  0.00  0.00    +0.156 HD
ENDROOT
BRANCH   7  21
ATOM      1  F   UNL     1      -3.326 -12.615  19.599  0.00  0.00    -0.205 F 
ATOM     21  C   UNL     1      -6.190 -10.184  17.897  0.00  0.00    +0.035 A 
ATOM     24  C   UNL     1      -4.994 -10.420  17.226  0.00  0.00    +0.026 A 
ATOM     25  C   UNL     1      -6.425 -10.765  19.141  0.00  0.00    +0.026 A 
ATOM     27  C   UNL     1      -4.024 -11.242  17.801  0.00  0.00    +0.040 A 
ATOM     28  C   UNL     1      -5.456 -11.588  19.717  0.00  0.00    +0.040 A 
ATOM     29  C   UNL     1      -4.256 -11.825  19.047  0.00  0.00    +0.124 A 
ENDBRANCH   7  21
BRANCH  19   8
ATOM      4  O   UNL     1      -8.592 -13.716  20.174  0.00  0.00    -0.275 OA
ATOM      8  N   UNL     1     -10.906 -13.605  19.938  0.00  0.00    -0.281 N 
ATOM     22  C   UNL     1      -9.709 -14.210  20.304  0.00  0.00    +0.222 C 
ATOM     36  H   UNL     1     -11.739 -14.185  19.870  0.00  0.00    +0.155 HD
BRANCH  22  23
ATOM     23  C   UNL     1      -9.947 -15.586  20.900  0.00  0.00    +0.131 C 
BRANCH  23  26
ATOM     26  C   UNL     1      -9.782 -15.625  22.396  0.00  0.00    -0.039 A 
ATOM     30  C   UNL     1     -10.859 -15.300  23.209  0.00  0.00    +0.004 A 
ATOM     31  C   UNL     1      -8.558 -15.987  22.939  0.00  0.00    +0.004 A 
ATOM     32  C   UNL     1     -10.706 -15.337  24.596  0.00  0.00    +0.000 A 
ATOM     33  C   UNL     1      -8.406 -16.023  24.325  0.00  0.00    +0.000 A 
ATOM     34  C   UNL     1      -9.481 -15.698  25.153  0.00  0.00    +0.000 A 
ENDBRANCH  23  26
ENDBRANCH  22  23
ENDBRANCH  19   8
TORSDOF 4
ENDMDL
MODEL 8
REMARK VINA RESULT:      -7.0      5.483      9.657
REMARK  Name = 11887504
REMARK  4 active torsions:
REMARK  status: ('A' for Active; 'I' for Inactive)
REMARK    1  A    between atoms: N_7  and  C_21
REMARK    2  A    between atoms: N_8  and  C_19
REMARK    3  A    between atoms: C_22  and  C_23
REMARK    4  A    between atoms: C_23  and  C_26
REMARK                            x       y       z     vdW  Elec       q    Type
REMARK                         _______ _______ _______ _____ _____    ______ ____
ROOT
ATOM      2  O   UNL     1      12.281   7.606   2.998  0.00  0.00    -0.266 OA
ATOM      3  O   UNL     1      12.946   6.384  -2.037  0.00  0.00    -0.252 OA
ATOM      5  N   UNL     1      13.474   4.524  -0.767  0.00  0.00    -0.284 N 
ATOM      6  N   UNL     1      12.865   5.485   2.214  0.00  0.00    -0.310 N 
ATOM      7  N   UNL     1      11.379   4.686  -1.839  0.00  0.00    -0.269 N 
ATOM      9  C   UNL     1      15.102   4.997   1.070  0.00  0.00    +0.027 C 
ATOM     10  C   UNL     1      13.454   3.195   1.339  0.00  0.00    +0.054 C 
ATOM     11  C   UNL     1      14.907   3.582   1.597  0.00  0.00    +0.018 C 
ATOM     12  C   UNL     1      14.802   5.053  -0.437  0.00  0.00    +0.114 C 
ATOM     13  C   UNL     1      14.214   5.955   1.872  0.00  0.00    +0.130 C 
ATOM     14  C   UNL     1      13.171   3.207  -0.178  0.00  0.00    +0.119 C 
ATOM     15  C   UNL     1      12.502   4.145   2.043  0.00  0.00    +0.027 A 
ATOM     16  C   UNL     1      11.303   3.711   2.469  0.00  0.00    +0.024 A 
ATOM     17  C   UNL     1      12.000   6.422   2.812  0.00  0.00    +0.273 A 
ATOM     18  C   UNL     1      12.611   5.286  -1.583  0.00  0.00    +0.306 C 
ATOM     19  C   UNL     1      10.664   5.904   3.249  0.00  0.00    +0.099 A 
ATOM     20  C   UNL     1      10.368   4.610   3.083  0.00  0.00    +0.030 A 
ATOM     35  H   UNL     1      11.326   3.674  -1.829  0.00  0.00    +0.156 HD
ENDROOT
BRANCH   7  21
ATOM      1  F   UNL     1       6.626   7.221  -3.137  0.00  0.00    -0.205 F 
ATOM     21  C   UNL     1      10.163   5.334  -2.171  0.00  0.00    +0.035 A 
ATOM     24  C   UNL     1       9.407   4.879  -3.246  0.00  0.00    +0.026 A 
ATOM     25  C   UNL     1       9.733   6.424  -1.419  0.00  0.00    +0.026 A 
ATOM     27  C   UNL     1       8.210   5.517  -3.574  0.00  0.00    +0.040 A 
ATOM     28  C   UNL     1       8.536   7.063  -1.746  0.00  0.00    +0.040 A 
ATOM     29  C   UNL     1       7.775   6.609  -2.823  0.00  0.00    +0.124 A 
ENDBRANCH   7  21
BRANCH  19   8
ATOM      4  O   UNL     1       8.925   7.707   1.864  0.00  0.00    -0.275 OA
ATOM      8  N   UNL     1       9.791   6.784   3.819  0.00  0.00    -0.281 N 
ATOM     22  C   UNL     1       8.971   7.637   3.090  0.00  0.00    +0.222 C 
ATOM     36  H   UNL     1       9.921   6.969   4.810  0.00  0.00    +0.155 HD
BRANCH  22  23
ATOM     23  C   UNL     1       8.115   8.493   4.005  0.00  0.00    +0.131 C 
BRANCH  23  26
ATOM     26  C   UNL     1       8.575   8.479   5.439  0.00  0.00    -0.039 A 
ATOM     30  C   UNL     1       9.326   9.541   5.924  0.00  0.00    +0.004 A 
ATOM     31  C   UNL     1       8.241   7.407   6.253  0.00  0.00    +0.004 A 
ATOM     32  C   UNL     1       9.753   9.528   7.252  0.00  0.00    +0.000 A 
ATOM     33  C   UNL     1       8.668   7.396   7.581  0.00  0.00    +0.000 A 
ATOM     34  C   UNL     1       9.424   8.457   8.081  0.00  0.00    +0.000 A 
ENDBRANCH  23  26
ENDBRANCH  22  23
ENDBRANCH  19   8
TORSDOF 4
ENDMDL
MODEL 9
REMARK VINA RESULT:      -7.0     26.065     29.836
REMARK  Name = 11887504
REMARK  4 active torsions:
REMARK  status: ('A' for Active; 'I' for Inactive)
REMARK    1  A    between atoms: N_7  and  C_21
REMARK    2  A    between atoms: N_8  and  C_19
REMARK    3  A    between atoms: C_22  and  C_23
REMARK    4  A    between atoms: C_23  and  C_26
REMARK                            x       y       z     vdW  Elec       q    Type
REMARK                         _______ _______ _______ _____ _____    ______ ____
ROOT
ATOM      2  O   UNL     1      -4.082 -13.031  15.957  0.00  0.00    -0.266 OA
ATOM      3  O   UNL     1      -9.036 -14.090  17.232  0.00  0.00    -0.252 OA
ATOM      5  N   UNL     1      -8.456 -12.073  18.205  0.00  0.00    -0.284 N 
ATOM      6  N   UNL     1      -5.473 -11.603  17.175  0.00  0.00    -0.310 N 
ATOM      7  N   UNL     1      -9.725 -12.122  16.218  0.00  0.00    -0.269 N 
ATOM      9  C   UNL     1      -6.331 -12.172  19.518  0.00  0.00    +0.027 C 
ATOM     10  C   UNL     1      -7.006 -10.063  18.453  0.00  0.00    +0.054 C 
ATOM     11  C   UNL     1      -6.391 -10.662  19.714  0.00  0.00    +0.018 C 
ATOM     12  C   UNL     1      -7.744 -12.739  19.301  0.00  0.00    +0.114 C 
ATOM     13  C   UNL     1      -5.395 -12.487  18.347  0.00  0.00    +0.130 C 
ATOM     14  C   UNL     1      -8.441 -10.600  18.265  0.00  0.00    +0.119 C 
ATOM     15  C   UNL     1      -6.173 -10.394  17.227  0.00  0.00    +0.027 A 
ATOM     16  C   UNL     1      -6.136  -9.547  16.185  0.00  0.00    +0.024 A 
ATOM     17  C   UNL     1      -4.727 -11.985  16.043  0.00  0.00    +0.273 A 
ATOM     18  C   UNL     1      -9.071 -12.857  17.206  0.00  0.00    +0.306 C 
ATOM     19  C   UNL     1      -4.732 -11.026  14.893  0.00  0.00    +0.099 A 
ATOM     20  C   UNL     1      -5.401  -9.872  14.995  0.00  0.00    +0.030 A 
ATOM     35  H   UNL     1     -10.091 -11.209  16.460  0.00  0.00    +0.156 HD
ENDROOT
BRANCH   7  21
ATOM      1  F   UNL     1     -10.782 -13.705  11.014  0.00  0.00    -0.205 F 
ATOM     21  C   UNL     1      -9.995 -12.527  14.887  0.00  0.00    +0.035 A 
ATOM     24  C   UNL     1      -8.986 -12.479  13.930  0.00  0.00    +0.026 A 
ATOM     25  C   UNL     1     -11.270 -12.971  14.544  0.00  0.00    +0.026 A 
ATOM     27  C   UNL     1      -9.251 -12.877  12.619  0.00  0.00    +0.040 A 
ATOM     28  C   UNL     1     -11.536 -13.369  13.233  0.00  0.00    +0.040 A 
ATOM     29  C   UNL     1     -10.527 -13.322  12.272  0.00  0.00    +0.124 A 
ENDBRANCH   7  21
BRANCH  19   8
ATOM      4  O   UNL     1      -2.032 -10.297  14.285  0.00  0.00    -0.275 OA
ATOM      8  N   UNL     1      -4.035 -11.367  13.771  0.00  0.00    -0.281 N 
ATOM     22  C   UNL     1      -2.722 -10.979  13.532  0.00  0.00    +0.222 C 
ATOM     36  H   UNL     1      -4.582 -11.723  12.992  0.00  0.00    +0.155 HD
BRANCH  22  23
ATOM     23  C   UNL     1      -2.224 -11.512  12.201  0.00  0.00    +0.131 C 
BRANCH  23  26
ATOM     26  C   UNL     1      -3.007 -11.000  11.022  0.00  0.00    -0.039 A 
ATOM     30  C   UNL     1      -3.744 -11.890  10.253  0.00  0.00    +0.004 A 
ATOM     31  C   UNL     1      -2.981  -9.645  10.722  0.00  0.00    +0.004 A 
ATOM     32  C   UNL     1      -4.469 -11.415   9.160  0.00  0.00    +0.000 A 
ATOM     33  C   UNL     1      -3.707  -9.172   9.629  0.00  0.00    +0.000 A 
ATOM     34  C   UNL     1      -4.452 -10.056   8.848  0.00  0.00    +0.000 A 
ENDBRANCH  23  26
ENDBRANCH  22  23
ENDBRANCH  19   8
TORSDOF 4
ENDMDL
MODEL 10
REMARK VINA RESULT:      -6.9     12.241     14.259
REMARK  Name = 11887504
REMARK  4 active torsions:
REMARK  status: ('A' for Active; 'I' for Inactive)
REMARK    1  A    between atoms: N_7  and  C_21
REMARK    2  A    between atoms: N_8  and  C_19
REMARK    3  A    between atoms: C_22  and  C_23
REMARK    4  A    between atoms: C_23  and  C_26
REMARK                            x       y       z     vdW  Elec       q    Type
REMARK                         _______ _______ _______ _____ _____    ______ ____
ROOT
ATOM      2  O   UNL     1      16.219   7.908  21.779  0.00  0.00    -0.266 OA
ATOM      3  O   UNL     1      13.537   7.587  17.307  0.00  0.00    -0.252 OA
ATOM      5  N   UNL     1      12.043   8.038  19.014  0.00  0.00    -0.284 N 
ATOM      6  N   UNL     1      13.927   8.311  21.575  0.00  0.00    -0.310 N 
ATOM      7  N   UNL     1      12.791   9.764  17.591  0.00  0.00    -0.269 N 
ATOM      9  C   UNL     1      12.248   6.481  20.960  0.00  0.00    +0.027 C 
ATOM     10  C   UNL     1      11.464   8.781  21.320  0.00  0.00    +0.054 C 
ATOM     11  C   UNL     1      11.248   7.329  21.734  0.00  0.00    +0.018 C 
ATOM     12  C   UNL     1      12.022   6.636  19.446  0.00  0.00    +0.114 C 
ATOM     13  C   UNL     1      13.668   6.878  21.376  0.00  0.00    +0.130 C 
ATOM     14  C   UNL     1      11.191   8.941  19.809  0.00  0.00    +0.119 C 
ATOM     15  C   UNL     1      12.879   9.234  21.633  0.00  0.00    +0.027 A 
ATOM     16  C   UNL     1      13.128  10.521  21.931  0.00  0.00    +0.024 A 
ATOM     17  C   UNL     1      15.266   8.686  21.804  0.00  0.00    +0.273 A 
ATOM     18  C   UNL     1      12.852   8.410  17.920  0.00  0.00    +0.306 C 
ATOM     19  C   UNL     1      15.504  10.134  22.106  0.00  0.00    +0.099 A 
ATOM     20  C   UNL     1      14.468  10.977  22.170  0.00  0.00    +0.030 A 
ATOM     35  H   UNL     1      11.941  10.273  17.807  0.00  0.00    +0.156 HD
ENDROOT
BRANCH   7  21
ATOM      1  F   UNL     1      16.663  12.757  14.994  0.00  0.00    -0.205 F 
ATOM     21  C   UNL     1      13.781  10.530  16.927  0.00  0.00    +0.035 A 
ATOM     24  C   UNL     1      13.811  10.565  15.536  0.00  0.00    +0.026 A 
ATOM     25  C   UNL     1      14.718  11.242  17.670  0.00  0.00    +0.026 A 
ATOM     27  C   UNL     1      14.786  11.319  14.882  0.00  0.00    +0.040 A 
ATOM     28  C   UNL     1      15.694  11.995  17.016  0.00  0.00    +0.040 A 
ATOM     29  C   UNL     1      15.727  12.034  15.622  0.00  0.00    +0.124 A 
ENDBRANCH   7  21
BRANCH  19   8
ATOM      4  O   UNL     1      17.328  11.101  20.123  0.00  0.00    -0.275 OA
ATOM      8  N   UNL     1      16.789  10.541  22.318  0.00  0.00    -0.281 N 
ATOM     22  C   UNL     1      17.628  11.001  21.311  0.00  0.00    +0.222 C 
ATOM     36  H   UNL     1      17.203  10.279  23.209  0.00  0.00    +0.155 HD
BRANCH  22  23
ATOM     23  C   UNL     1      18.992  11.379  21.859  0.00  0.00    +0.131 C 
BRANCH  23  26
ATOM     26  C   UNL     1      20.115  10.560  21.282  0.00  0.00    -0.039 A 
ATOM     30  C   UNL     1      20.214   9.213  21.605  0.00  0.00    +0.004 A 
ATOM     31  C   UNL     1      21.035  11.162  20.435  0.00  0.00    +0.004 A 
ATOM     32  C   UNL     1      21.255   8.454  21.070  0.00  0.00    +0.000 A 
ATOM     33  C   UNL     1      22.075  10.402  19.901  0.00  0.00    +0.000 A 
ATOM     34  C   UNL     1      22.185   9.048  20.218  0.00  0.00    +0.000 A 
ENDBRANCH  23  26
ENDBRANCH  22  23
ENDBRANCH  19   8
TORSDOF 4
ENDMDL
