MODEL 1
REMARK VINA RESULT:      -7.2      0.000      0.000
REMARK  Name = 26744519
REMARK  5 active torsions:
REMARK  status: ('A' for Active; 'I' for Inactive)
REMARK    1  A    between atoms: O_2  and  C_9
REMARK    2  A    between atoms: N_4  and  C_12
REMARK    3  A    between atoms: C_7  and  C_11
REMARK    4  A    between atoms: C_13  and  C_14
REMARK    5  A    between atoms: C_17  and  C_20
REMARK                            x       y       z     vdW  Elec       q    Type
REMARK                         _______ _______ _______ _____ _____    ______ ____
ROOT
ATOM      3  O   UNL     1      13.383   7.563  18.687  0.00  0.00    -0.336 OA
ATOM      5  N   UNL     1      14.314   7.213  20.694  0.00  0.00    -0.190 NA
ATOM      6  N   UNL     1      14.713   7.197  18.442  0.00  0.00    -0.056 NA
ATOM     11  C   UNL     1      13.232   7.548  20.037  0.00  0.00    +0.245 A 
ATOM     13  C   UNL     1      15.195   7.007  19.674  0.00  0.00    +0.202 A 
ENDROOT
BRANCH  13  14
ATOM      1  F   UNL     1      19.180   7.163  22.371  0.00  0.00    -0.205 F 
ATOM     14  C   UNL     1      16.552   6.613  19.919  0.00  0.00    +0.025 A 
ATOM     15  C   UNL     1      17.224   7.086  21.047  0.00  0.00    +0.050 A 
ATOM     16  C   UNL     1      17.201   5.755  19.030  0.00  0.00    +0.012 A 
ATOM     17  C   UNL     1      19.192   5.845  20.396  0.00  0.00    -0.015 A 
ATOM     18  C   UNL     1      18.543   6.702  21.284  0.00  0.00    +0.127 A 
ATOM     19  C   UNL     1      18.521   5.371  19.269  0.00  0.00    +0.007 A 
ATOM     20  C   UNL     1      20.603   5.432  20.648  0.00  0.00    +0.047 C 
ENDBRANCH  13  14
BRANCH  11   7
ATOM      4  N   UNL     1      11.531   7.210  21.823  0.00  0.00    -0.292 NA
ATOM      7  C   UNL     1      11.861   7.913  20.566  0.00  0.00    +0.148 C 
ATOM      8  C   UNL     1      11.733   9.410  20.906  0.00  0.00    +0.061 C 
ATOM      9  C   UNL     1      11.283   9.446  22.362  0.00  0.00    +0.130 C 
ATOM     10  C   UNL     1      10.632   8.092  22.566  0.00  0.00    +0.116 C 
ATOM     12  C   UNL     1      10.952   5.891  21.608  0.00  0.00    +0.105 C 
BRANCH   9   2
ATOM      2  O   UNL     1      10.371  10.505  22.579  0.00  0.00    -0.390 OA
ATOM     21  H   UNL     1      10.523  10.841  23.479  0.00  0.00    +0.210 HD
ENDBRANCH   9   2
ENDBRANCH  11   7
TORSDOF 3
ENDMDL
MODEL 2
REMARK VINA RESULT:      -6.7      2.655      3.920
REMARK  Name = 26744519
REMARK  5 active torsions:
REMARK  status: ('A' for Active; 'I' for Inactive)
REMARK    1  A    between atoms: O_2  and  C_9
REMARK    2  A    between atoms: N_4  and  C_12
REMARK    3  A    between atoms: C_7  and  C_11
REMARK    4  A    between atoms: C_13  and  C_14
REMARK    5  A    between atoms: C_17  and  C_20
REMARK                            x       y       z     vdW  Elec       q    Type
REMARK                         _______ _______ _______ _____ _____    ______ ____
ROOT
ATOM      3  O   UNL     1      13.756   9.494  20.507  0.00  0.00    -0.336 OA
ATOM      5  N   UNL     1      15.023   8.484  18.960  0.00  0.00    -0.190 NA
ATOM      6  N   UNL     1      14.871   8.986  21.187  0.00  0.00    -0.056 NA
ATOM     11  C   UNL     1      13.925   9.155  19.202  0.00  0.00    +0.245 A 
ATOM     13  C   UNL     1      15.570   8.406  20.207  0.00  0.00    +0.202 A 
ENDROOT
BRANCH  13  14
ATOM      1  F   UNL     1      18.614   4.783  19.314  0.00  0.00    -0.205 F 
ATOM     14  C   UNL     1      16.818   7.737  20.441  0.00  0.00    +0.025 A 
ATOM     15  C   UNL     1      17.120   6.562  19.752  0.00  0.00    +0.050 A 
ATOM     16  C   UNL     1      17.730   8.263  21.356  0.00  0.00    +0.012 A 
ATOM     17  C   UNL     1      19.245   6.439  20.895  0.00  0.00    -0.015 A 
ATOM     18  C   UNL     1      18.333   5.913  19.980  0.00  0.00    +0.127 A 
ATOM     19  C   UNL     1      18.944   7.614  21.583  0.00  0.00    +0.007 A 
ATOM     20  C   UNL     1      20.543   5.747  21.140  0.00  0.00    +0.047 C 
ENDBRANCH  13  14
BRANCH  11   7
ATOM      4  N   UNL     1      13.295   9.630  16.841  0.00  0.00    -0.292 NA
ATOM      7  C   UNL     1      12.838   9.597  18.246  0.00  0.00    +0.148 C 
ATOM      8  C   UNL     1      11.624   8.647  18.243  0.00  0.00    +0.061 C 
ATOM      9  C   UNL     1      11.451   8.234  16.786  0.00  0.00    +0.130 C 
ATOM     10  C   UNL     1      12.119   9.356  16.017  0.00  0.00    +0.116 C 
ATOM     12  C   UNL     1      13.942  10.883  16.477  0.00  0.00    +0.105 C 
BRANCH   9   2
ATOM      2  O   UNL     1      10.080   8.115  16.458  0.00  0.00    -0.390 OA
ATOM     21  H   UNL     1      10.009   8.152  15.489  0.00  0.00    +0.210 HD
ENDBRANCH   9   2
ENDBRANCH  11   7
TORSDOF 3
ENDMDL
MODEL 3
REMARK VINA RESULT:      -6.7      1.799      2.541
REMARK  Name = 26744519
REMARK  5 active torsions:
REMARK  status: ('A' for Active; 'I' for Inactive)
REMARK    1  A    between atoms: O_2  and  C_9
REMARK    2  A    between atoms: N_4  and  C_12
REMARK    3  A    between atoms: C_7  and  C_11
REMARK    4  A    between atoms: C_13  and  C_14
REMARK    5  A    between atoms: C_17  and  C_20
REMARK                            x       y       z     vdW  Elec       q    Type
REMARK                         _______ _______ _______ _____ _____    ______ ____
ROOT
ATOM      3  O   UNL     1      14.488   6.675  19.646  0.00  0.00    -0.336 OA
ATOM      5  N   UNL     1      15.718   8.045  20.921  0.00  0.00    -0.190 NA
ATOM      6  N   UNL     1      15.799   6.184  19.594  0.00  0.00    -0.056 NA
ATOM     11  C   UNL     1      14.529   7.771  20.449  0.00  0.00    +0.245 A 
ATOM     13  C   UNL     1      16.464   7.045  20.370  0.00  0.00    +0.202 A 
ENDROOT
BRANCH  13  14
ATOM      1  F   UNL     1      20.593   4.590  20.035  0.00  0.00    -0.205 F 
ATOM     14  C   UNL     1      17.873   6.934  20.614  0.00  0.00    +0.025 A 
ATOM     15  C   UNL     1      18.566   5.796  20.200  0.00  0.00    +0.050 A 
ATOM     16  C   UNL     1      18.552   7.965  21.264  0.00  0.00    +0.012 A 
ATOM     17  C   UNL     1      20.614   6.719  21.087  0.00  0.00    -0.015 A 
ATOM     18  C   UNL     1      19.936   5.689  20.437  0.00  0.00    +0.127 A 
ATOM     19  C   UNL     1      19.923   7.858  21.500  0.00  0.00    +0.007 A 
ATOM     20  C   UNL     1      22.080   6.608  21.341  0.00  0.00    +0.047 C 
ENDBRANCH  13  14
BRANCH  11   7
ATOM      4  N   UNL     1      12.351   8.481  19.473  0.00  0.00    -0.292 NA
ATOM      7  C   UNL     1      13.217   8.494  20.670  0.00  0.00    +0.148 C 
ATOM      8  C   UNL     1      12.363   7.852  21.780  0.00  0.00    +0.061 C 
ATOM      9  C   UNL     1      11.021   7.554  21.123  0.00  0.00    +0.130 C 
ATOM     10  C   UNL     1      10.973   8.524  19.958  0.00  0.00    +0.116 C 
ATOM     12  C   UNL     1      12.641   9.565  18.544  0.00  0.00    +0.105 C 
BRANCH   9   2
ATOM      2  O   UNL     1       9.958   7.770  22.030  0.00  0.00    -0.390 OA
ATOM     21  H   UNL     1      10.219   7.380  22.882  0.00  0.00    +0.210 HD
ENDBRANCH   9   2
ENDBRANCH  11   7
TORSDOF 3
ENDMDL
MODEL 4
REMARK VINA RESULT:      -6.6     26.357     27.455
REMARK  Name = 26744519
REMARK  5 active torsions:
REMARK  status: ('A' for Active; 'I' for Inactive)
REMARK    1  A    between atoms: O_2  and  C_9
REMARK    2  A    between atoms: N_4  and  C_12
REMARK    3  A    between atoms: C_7  and  C_11
REMARK    4  A    between atoms: C_13  and  C_14
REMARK    5  A    between atoms: C_17  and  C_20
REMARK                            x       y       z     vdW  Elec       q    Type
REMARK                         _______ _______ _______ _____ _____    ______ ____
ROOT
ATOM      3  O   UNL     1      -1.840 -10.692  13.193  0.00  0.00    -0.336 OA
ATOM      5  N   UNL     1      -4.066 -10.594  13.419  0.00  0.00    -0.190 NA
ATOM      6  N   UNL     1      -2.093 -10.705  14.571  0.00  0.00    -0.056 NA
ATOM     11  C   UNL     1      -3.055 -10.626  12.588  0.00  0.00    +0.245 A 
ATOM     13  C   UNL     1      -3.428 -10.645  14.623  0.00  0.00    +0.202 A 
ENDROOT
BRANCH  13  14
ATOM      1  F   UNL     1      -3.757 -11.763  19.295  0.00  0.00    -0.205 F 
ATOM     14  C   UNL     1      -4.152 -10.632  15.861  0.00  0.00    +0.025 A 
ATOM     15  C   UNL     1      -3.596 -11.214  17.001  0.00  0.00    +0.050 A 
ATOM     16  C   UNL     1      -5.412 -10.038  15.926  0.00  0.00    +0.012 A 
ATOM     17  C   UNL     1      -5.560 -10.607  18.269  0.00  0.00    -0.015 A 
ATOM     18  C   UNL     1      -4.300 -11.201  18.204  0.00  0.00    +0.127 A 
ATOM     19  C   UNL     1      -6.116 -10.025  17.130  0.00  0.00    +0.007 A 
ATOM     20  C   UNL     1      -6.316 -10.591  19.555  0.00  0.00    +0.047 C 
ENDBRANCH  13  14
BRANCH  11   7
ATOM      4  N   UNL     1      -4.126 -11.431  10.491  0.00  0.00    -0.292 NA
ATOM      7  C   UNL     1      -3.054 -10.601  11.075  0.00  0.00    +0.148 C 
ATOM      8  C   UNL     1      -3.292  -9.190  10.502  0.00  0.00    +0.061 C 
ATOM      9  C   UNL     1      -4.491  -9.339   9.574  0.00  0.00    +0.130 C 
ATOM     10  C   UNL     1      -4.481 -10.812   9.215  0.00  0.00    +0.116 C 
ATOM     12  C   UNL     1      -3.750 -12.830  10.336  0.00  0.00    +0.105 C 
BRANCH   9   2
ATOM      2  O   UNL     1      -4.346  -8.519   8.431  0.00  0.00    -0.390 OA
ATOM     21  H   UNL     1      -4.985  -8.829   7.767  0.00  0.00    +0.210 HD
ENDBRANCH   9   2
ENDBRANCH  11   7
TORSDOF 3
ENDMDL
MODEL 5
REMARK VINA RESULT:      -6.2      3.675      7.570
REMARK  Name = 26744519
REMARK  5 active torsions:
REMARK  status: ('A' for Active; 'I' for Inactive)
REMARK    1  A    between atoms: O_2  and  C_9
REMARK    2  A    between atoms: N_4  and  C_12
REMARK    3  A    between atoms: C_7  and  C_11
REMARK    4  A    between atoms: C_13  and  C_14
REMARK    5  A    between atoms: C_17  and  C_20
REMARK                            x       y       z     vdW  Elec       q    Type
REMARK                         _______ _______ _______ _____ _____    ______ ____
ROOT
ATOM      3  O   UNL     1      18.067   5.596  19.206  0.00  0.00    -0.336 OA
ATOM      5  N   UNL     1      17.290   7.014  20.756  0.00  0.00    -0.190 NA
ATOM      6  N   UNL     1      16.690   5.715  18.971  0.00  0.00    -0.056 NA
ATOM     11  C   UNL     1      18.337   6.393  20.273  0.00  0.00    +0.245 A 
ATOM     13  C   UNL     1      16.305   6.568  19.926  0.00  0.00    +0.202 A 
ENDROOT
BRANCH  13  14
ATOM      1  F   UNL     1      12.019   7.652  18.018  0.00  0.00    -0.205 F 
ATOM     14  C   UNL     1      14.943   6.991  20.077  0.00  0.00    +0.025 A 
ATOM     15  C   UNL     1      14.123   7.119  18.955  0.00  0.00    +0.050 A 
ATOM     16  C   UNL     1      14.437   7.275  21.346  0.00  0.00    +0.012 A 
ATOM     17  C   UNL     1      12.293   7.815  20.371  0.00  0.00    -0.015 A 
ATOM     18  C   UNL     1      12.799   7.531  19.103  0.00  0.00    +0.127 A 
ATOM     19  C   UNL     1      13.112   7.686  21.493  0.00  0.00    +0.007 A 
ATOM     20  C   UNL     1      10.877   8.255  20.533  0.00  0.00    +0.047 C 
ENDBRANCH  13  14
BRANCH  11   7
ATOM      4  N   UNL     1      19.907   6.505  22.201  0.00  0.00    -0.292 NA
ATOM      7  C   UNL     1      19.779   6.441  20.731  0.00  0.00    +0.148 C 
ATOM      8  C   UNL     1      20.576   5.188  20.321  0.00  0.00    +0.061 C 
ATOM      9  C   UNL     1      21.151   4.643  21.623  0.00  0.00    +0.130 C 
ATOM     10  C   UNL     1      21.171   5.853  22.536  0.00  0.00    +0.116 C 
ATOM     12  C   UNL     1      19.833   7.863  22.725  0.00  0.00    +0.105 C 
BRANCH   9   2
ATOM      2  O   UNL     1      22.448   4.117  21.417  0.00  0.00    -0.390 OA
ATOM     21  H   UNL     1      22.561   3.986  20.460  0.00  0.00    +0.210 HD
ENDBRANCH   9   2
ENDBRANCH  11   7
TORSDOF 3
ENDMDL
MODEL 6
REMARK VINA RESULT:      -6.0     26.141     28.687
REMARK  Name = 26744519
REMARK  5 active torsions:
REMARK  status: ('A' for Active; 'I' for Inactive)
REMARK    1  A    between atoms: O_2  and  C_9
REMARK    2  A    between atoms: N_4  and  C_12
REMARK    3  A    between atoms: C_7  and  C_11
REMARK    4  A    between atoms: C_13  and  C_14
REMARK    5  A    between atoms: C_17  and  C_20
REMARK                            x       y       z     vdW  Elec       q    Type
REMARK                         _______ _______ _______ _____ _____    ______ ____
ROOT
ATOM      3  O   UNL     1     -13.286   5.068  22.299  0.00  0.00    -0.336 OA
ATOM      5  N   UNL     1     -14.179   6.903  21.375  0.00  0.00    -0.190 NA
ATOM      6  N   UNL     1     -12.245   5.703  21.609  0.00  0.00    -0.056 NA
ATOM     11  C   UNL     1     -14.389   5.840  22.110  0.00  0.00    +0.245 A 
ATOM     13  C   UNL     1     -12.851   6.776  21.091  0.00  0.00    +0.202 A 
ENDROOT
BRANCH  13  14
ATOM      1  F   UNL     1     -10.253   7.883  17.191  0.00  0.00    -0.205 F 
ATOM     14  C   UNL     1     -12.158   7.739  20.286  0.00  0.00    +0.025 A 
ATOM     15  C   UNL     1     -11.528   7.340  19.106  0.00  0.00    +0.050 A 
ATOM     16  C   UNL     1     -12.113   9.077  20.681  0.00  0.00    +0.012 A 
ATOM     17  C   UNL     1     -10.810   9.614  18.719  0.00  0.00    -0.015 A 
ATOM     18  C   UNL     1     -10.855   8.277  18.323  0.00  0.00    +0.127 A 
ATOM     19  C   UNL     1     -11.440  10.014  19.897  0.00  0.00    +0.007 A 
ATOM     20  C   UNL     1     -10.091  10.618  17.883  0.00  0.00    +0.047 C 
ENDBRANCH  13  14
BRANCH  11   7
ATOM      4  N   UNL     1     -16.415   4.405  21.925  0.00  0.00    -0.292 NA
ATOM      7  C   UNL     1     -15.666   5.362  22.766  0.00  0.00    +0.148 C 
ATOM      8  C   UNL     1     -15.413   4.610  24.087  0.00  0.00    +0.061 C 
ATOM      9  C   UNL     1     -16.095   3.259  23.909  0.00  0.00    +0.130 C 
ATOM     10  C   UNL     1     -17.138   3.526  22.841  0.00  0.00    +0.116 C 
ATOM     12  C   UNL     1     -17.303   5.054  20.969  0.00  0.00    +0.105 C 
BRANCH   9   2
ATOM      2  O   UNL     1     -16.682   2.829  25.121  0.00  0.00    -0.390 OA
ATOM     21  H   UNL     1     -15.960   2.662  25.751  0.00  0.00    +0.210 HD
ENDBRANCH   9   2
ENDBRANCH  11   7
TORSDOF 3
ENDMDL
MODEL 7
REMARK VINA RESULT:      -6.0      5.349      9.497
REMARK  Name = 26744519
REMARK  5 active torsions:
REMARK  status: ('A' for Active; 'I' for Inactive)
REMARK    1  A    between atoms: O_2  and  C_9
REMARK    2  A    between atoms: N_4  and  C_12
REMARK    3  A    between atoms: C_7  and  C_11
REMARK    4  A    between atoms: C_13  and  C_14
REMARK    5  A    between atoms: C_17  and  C_20
REMARK                            x       y       z     vdW  Elec       q    Type
REMARK                         _______ _______ _______ _____ _____    ______ ____
ROOT
ATOM      3  O   UNL     1      21.738   5.615  22.917  0.00  0.00    -0.336 OA
ATOM      5  N   UNL     1      21.124   5.340  20.781  0.00  0.00    -0.190 NA
ATOM      6  N   UNL     1      20.445   6.145  22.811  0.00  0.00    -0.056 NA
ATOM     11  C   UNL     1      22.062   5.162  21.677  0.00  0.00    +0.245 A 
ATOM     13  C   UNL     1      20.153   5.945  21.522  0.00  0.00    +0.202 A 
ENDROOT
BRANCH  13  14
ATOM      1  F   UNL     1      16.793   5.507  18.102  0.00  0.00    -0.205 F 
ATOM     14  C   UNL     1      18.901   6.340  20.945  0.00  0.00    +0.025 A 
ATOM     15  C   UNL     1      18.443   5.722  19.781  0.00  0.00    +0.050 A 
ATOM     16  C   UNL     1      18.140   7.342  21.548  0.00  0.00    +0.012 A 
ATOM     17  C   UNL     1      16.465   7.109  19.824  0.00  0.00    -0.015 A 
ATOM     18  C   UNL     1      17.225   6.107  19.221  0.00  0.00    +0.127 A 
ATOM     19  C   UNL     1      16.922   7.726  20.988  0.00  0.00    +0.007 A 
ATOM     20  C   UNL     1      15.162   7.522  19.227  0.00  0.00    +0.047 C 
ENDBRANCH  13  14
BRANCH  11   7
ATOM      4  N   UNL     1      23.372   3.060  21.429  0.00  0.00    -0.292 NA
ATOM      7  C   UNL     1      23.430   4.533  21.525  0.00  0.00    +0.148 C 
ATOM      8  C   UNL     1      24.154   4.983  20.242  0.00  0.00    +0.061 C 
ATOM      9  C   UNL     1      24.501   3.691  19.512  0.00  0.00    +0.130 C 
ATOM     10  C   UNL     1      24.516   2.652  20.616  0.00  0.00    +0.116 C 
ATOM     12  C   UNL     1      23.357   2.400  22.728  0.00  0.00    +0.105 C 
BRANCH   9   2
ATOM      2  O   UNL     1      25.759   3.798  18.874  0.00  0.00    -0.390 OA
ATOM     21  H   UNL     1      26.217   4.566  19.259  0.00  0.00    +0.210 HD
ENDBRANCH   9   2
ENDBRANCH  11   7
TORSDOF 3
ENDMDL
MODEL 8
REMARK VINA RESULT:      -6.0     27.846     30.163
REMARK  Name = 26744519
REMARK  5 active torsions:
REMARK  status: ('A' for Active; 'I' for Inactive)
REMARK    1  A    between atoms: O_2  and  C_9
REMARK    2  A    between atoms: N_4  and  C_12
REMARK    3  A    between atoms: C_7  and  C_11
REMARK    4  A    between atoms: C_13  and  C_14
REMARK    5  A    between atoms: C_17  and  C_20
REMARK                            x       y       z     vdW  Elec       q    Type
REMARK                         _______ _______ _______ _____ _____    ______ ____
ROOT
ATOM      3  O   UNL     1      -9.035 -11.301  20.105  0.00  0.00    -0.336 OA
ATOM      5  N   UNL     1      -8.525 -10.613  18.035  0.00  0.00    -0.190 NA
ATOM      6  N   UNL     1     -10.040 -10.397  19.735  0.00  0.00    -0.056 NA
ATOM     11  C   UNL     1      -8.184 -11.370  19.047  0.00  0.00    +0.245 A 
ATOM     13  C   UNL     1      -9.669 -10.036  18.503  0.00  0.00    +0.202 A 
ENDROOT
BRANCH  13  14
ATOM      1  F   UNL     1      -9.848  -6.179  15.626  0.00  0.00    -0.205 F 
ATOM     14  C   UNL     1     -10.418  -9.101  17.715  0.00  0.00    +0.025 A 
ATOM     15  C   UNL     1      -9.760  -8.073  17.039  0.00  0.00    +0.050 A 
ATOM     16  C   UNL     1     -11.805  -9.220  17.623  0.00  0.00    +0.012 A 
ATOM     17  C   UNL     1     -11.876  -7.283  16.181  0.00  0.00    -0.015 A 
ATOM     18  C   UNL     1     -10.489  -7.164  16.272  0.00  0.00    +0.127 A 
ATOM     19  C   UNL     1     -12.534  -8.311  16.855  0.00  0.00    +0.007 A 
ATOM     20  C   UNL     1     -12.658  -6.313  15.361  0.00  0.00    +0.047 C 
ENDBRANCH  13  14
BRANCH  11   7
ATOM      4  N   UNL     1      -6.396 -12.668  17.900  0.00  0.00    -0.292 NA
ATOM      7  C   UNL     1      -6.995 -12.294  19.198  0.00  0.00    +0.148 C 
ATOM      8  C   UNL     1      -5.841 -11.656  19.995  0.00  0.00    +0.061 C 
ATOM      9  C   UNL     1      -4.627 -11.757  19.080  0.00  0.00    +0.130 C 
ATOM     10  C   UNL     1      -4.976 -12.905  18.152  0.00  0.00    +0.116 C 
ATOM     12  C   UNL     1      -7.043 -13.815  17.278  0.00  0.00    +0.105 C 
BRANCH   9   2
ATOM      2  O   UNL     1      -3.456 -12.024  19.828  0.00  0.00    -0.390 OA
ATOM     21  H   UNL     1      -3.599 -11.679  20.726  0.00  0.00    +0.210 HD
ENDBRANCH   9   2
ENDBRANCH  11   7
TORSDOF 3
ENDMDL
MODEL 9
REMARK VINA RESULT:      -6.0     31.108     32.000
REMARK  Name = 26744519
REMARK  5 active torsions:
REMARK  status: ('A' for Active; 'I' for Inactive)
REMARK    1  A    between atoms: O_2  and  C_9
REMARK    2  A    between atoms: N_4  and  C_12
REMARK    3  A    between atoms: C_7  and  C_11
REMARK    4  A    between atoms: C_13  and  C_14
REMARK    5  A    between atoms: C_17  and  C_20
REMARK                            x       y       z     vdW  Elec       q    Type
REMARK                         _______ _______ _______ _____ _____    ______ ____
ROOT
ATOM      3  O   UNL     1     -15.090   2.424  33.565  0.00  0.00    -0.336 OA
ATOM      5  N   UNL     1     -14.558   4.055  32.125  0.00  0.00    -0.190 NA
ATOM      6  N   UNL     1     -14.641   3.500  34.343  0.00  0.00    -0.056 NA
ATOM     11  C   UNL     1     -15.009   2.835  32.273  0.00  0.00    +0.245 A 
ATOM     13  C   UNL     1     -14.346   4.422  33.422  0.00  0.00    +0.202 A 
ENDROOT
BRANCH  13  14
ATOM      1  F   UNL     1     -12.928   7.629  36.722  0.00  0.00    -0.205 F 
ATOM     14  C   UNL     1     -13.837   5.719  33.764  0.00  0.00    +0.025 A 
ATOM     15  C   UNL     1     -13.624   6.055  35.101  0.00  0.00    +0.050 A 
ATOM     16  C   UNL     1     -13.554   6.644  32.759  0.00  0.00    +0.012 A 
ATOM     17  C   UNL     1     -12.846   8.241  34.429  0.00  0.00    -0.015 A 
ATOM     18  C   UNL     1     -13.130   7.316  35.433  0.00  0.00    +0.127 A 
ATOM     19  C   UNL     1     -13.058   7.905  33.092  0.00  0.00    +0.007 A 
ATOM     20  C   UNL     1     -12.316   9.590  34.781  0.00  0.00    +0.047 C 
ENDBRANCH  13  14
BRANCH  11   7
ATOM      4  N   UNL     1     -14.964   2.190  29.869  0.00  0.00    -0.292 NA
ATOM      7  C   UNL     1     -15.446   1.838  31.220  0.00  0.00    +0.148 C 
ATOM      8  C   UNL     1     -14.897   0.422  31.477  0.00  0.00    +0.061 C 
ATOM      9  C   UNL     1     -14.160   0.046  30.198  0.00  0.00    +0.130 C 
ATOM     10  C   UNL     1     -14.802   0.930  29.146  0.00  0.00    +0.116 C 
ATOM     12  C   UNL     1     -15.844   3.116  29.169  0.00  0.00    +0.105 C 
BRANCH   9   2
ATOM      2  O   UNL     1     -14.330  -1.327  29.905  0.00  0.00    -0.390 OA
ATOM     21  H   UNL     1     -13.599  -1.593  29.322  0.00  0.00    +0.210 HD
ENDBRANCH   9   2
ENDBRANCH  11   7
TORSDOF 3
ENDMDL
MODEL 10
REMARK VINA RESULT:      -6.0     16.113     18.031
REMARK  Name = 26744519
REMARK  5 active torsions:
REMARK  status: ('A' for Active; 'I' for Inactive)
REMARK    1  A    between atoms: O_2  and  C_9
REMARK    2  A    between atoms: N_4  and  C_12
REMARK    3  A    between atoms: C_7  and  C_11
REMARK    4  A    between atoms: C_13  and  C_14
REMARK    5  A    between atoms: C_17  and  C_20
REMARK                            x       y       z     vdW  Elec       q    Type
REMARK                         _______ _______ _______ _____ _____    ______ ____
ROOT
ATOM      3  O   UNL     1      11.564   6.272   3.287  0.00  0.00    -0.336 OA
ATOM      5  N   UNL     1      10.626   4.436   4.161  0.00  0.00    -0.190 NA
ATOM      6  N   UNL     1      11.219   6.600   4.605  0.00  0.00    -0.056 NA
ATOM     11  C   UNL     1      11.180   4.981   3.107  0.00  0.00    +0.245 A 
ATOM     13  C   UNL     1      10.672   5.466   5.053  0.00  0.00    +0.202 A 
ENDROOT
BRANCH  13  14
ATOM      1  F   UNL     1       8.598   7.374   8.957  0.00  0.00    -0.205 F 
ATOM     14  C   UNL     1      10.161   5.331   6.386  0.00  0.00    +0.025 A 
ATOM     15  C   UNL     1       9.616   6.437   7.041  0.00  0.00    +0.050 A 
ATOM     16  C   UNL     1      10.206   4.094   7.029  0.00  0.00    +0.012 A 
ATOM     17  C   UNL     1       9.165   5.068   8.979  0.00  0.00    -0.015 A 
ATOM     18  C   UNL     1       9.119   6.305   8.336  0.00  0.00    +0.127 A 
ATOM     19  C   UNL     1       9.708   3.962   8.325  0.00  0.00    +0.007 A 
ATOM     20  C   UNL     1       8.633   4.924  10.366  0.00  0.00    +0.047 C 
ENDBRANCH  13  14
BRANCH  11   7
ATOM      4  N   UNL     1      11.347   5.375   0.655  0.00  0.00    -0.292 NA
ATOM      7  C   UNL     1      11.448   4.381   1.744  0.00  0.00    +0.148 C 
ATOM      8  C   UNL     1      12.870   3.801   1.616  0.00  0.00    +0.061 C 
ATOM      9  C   UNL     1      13.473   4.497   0.403  0.00  0.00    +0.130 C 
ATOM     10  C   UNL     1      12.259   4.931  -0.397  0.00  0.00    +0.116 C 
ATOM     12  C   UNL     1       9.987   5.554   0.165  0.00  0.00    +0.105 C 
BRANCH   9   2
ATOM      2  O   UNL     1      14.294   3.608  -0.329  0.00  0.00    -0.390 OA
ATOM     21  H   UNL     1      14.173   2.721   0.049  0.00  0.00    +0.210 HD
ENDBRANCH   9   2
ENDBRANCH  11   7
TORSDOF 3
ENDMDL
