MODEL 1
REMARK VINA RESULT:      -6.8      0.000      0.000
REMARK  Name = 45783475
REMARK  8 active torsions:
REMARK  status: ('A' for Active; 'I' for Inactive)
REMARK    1  A    between atoms: O_2  and  C_26
REMARK    2  A    between atoms: O_2  and  C_27
REMARK    3  A    between atoms: N_3  and  C_8
REMARK    4  A    between atoms: N_7  and  C_24
REMARK    5  A    between atoms: N_7  and  C_25
REMARK    6  A    between atoms: C_9  and  C_18
REMARK    7  A    between atoms: C_19  and  C_20
REMARK    8  A    between atoms: C_25  and  C_26
REMARK                            x       y       z     vdW  Elec       q    Type
REMARK                         _______ _______ _______ _____ _____    ______ ____
ROOT
ATOM      1  O   UNL     1      16.092   8.648  20.098  0.00  0.00    -0.336 OA
ATOM      4  N   UNL     1      16.559   6.486  19.744  0.00  0.00    -0.190 NA
ATOM      5  N   UNL     1      17.358   8.427  20.655  0.00  0.00    -0.056 NA
ATOM     18  C   UNL     1      15.693   7.455  19.584  0.00  0.00    +0.245 A 
ATOM     19  C   UNL     1      17.563   7.130  20.406  0.00  0.00    +0.204 A 
ENDROOT
BRANCH  19  20
ATOM      6  N   UNL     1      20.402   4.729  20.366  0.00  0.00    -0.240 NA
ATOM     20  C   UNL     1      18.760   6.448  20.806  0.00  0.00    +0.041 A 
ATOM     21  C   UNL     1      19.435   6.806  21.967  0.00  0.00    +0.016 A 
ATOM     22  C   UNL     1      19.280   5.413  20.047  0.00  0.00    +0.124 A 
ATOM     23  C   UNL     1      20.593   6.127  22.330  0.00  0.00    +0.044 A 
ATOM     24  C   UNL     1      21.031   5.105  21.503  0.00  0.00    +0.119 A 
BRANCH  24   7
ATOM      7  N   UNL     1      22.213   4.423  21.884  0.00  0.00    -0.327 N 
ATOM     28  H   UNL     1      22.763   4.850  22.620  0.00  0.00    +0.148 HD
BRANCH   7  25
ATOM     25  C   UNL     1      22.628   3.202  21.274  0.00  0.00    +0.131 C 
BRANCH  25  26
ATOM     26  C   UNL     1      23.990   3.383  20.624  0.00  0.00    +0.178 C 
BRANCH  26   2
ATOM      2  O   UNL     1      24.541   2.109  20.314  0.00  0.00    -0.381 OA
ATOM     27  C   UNL     1      24.315   1.175  21.361  0.00  0.00    +0.194 C 
ENDBRANCH  26   2
ENDBRANCH  25  26
ENDBRANCH   7  25
ENDBRANCH  24   7
ENDBRANCH  19  20
BRANCH  18   9
ATOM      3  N   UNL     1      13.445   8.505  19.395  0.00  0.00    -0.288 NA
ATOM      9  C   UNL     1      14.335   7.429  18.915  0.00  0.00    +0.146 C 
ATOM     12  C   UNL     1      12.547   8.824  18.285  0.00  0.00    +0.085 C 
ATOM     13  C   UNL     1      14.418   7.639  17.392  0.00  0.00    +0.030 C 
ATOM     14  C   UNL     1      13.495   8.816  17.103  0.00  0.00    +0.017 C 
BRANCH   3   8
ATOM      8  C   UNL     1      12.712   8.148  20.608  0.00  0.00    +0.057 C 
ATOM     10  C   UNL     1      11.621   9.189  20.884  0.00  0.00    +0.019 C 
ATOM     11  C   UNL     1      12.114   6.746  20.462  0.00  0.00    +0.019 C 
ATOM     15  C   UNL     1      10.782   8.808  22.103  0.00  0.00    +0.002 C 
ATOM     16  C   UNL     1      11.275   6.368  21.683  0.00  0.00    +0.002 C 
ATOM     17  C   UNL     1      10.194   7.407  21.966  0.00  0.00    +0.000 C 
ENDBRANCH   3   8
ENDBRANCH  18   9
TORSDOF 7
ENDMDL
MODEL 2
REMARK VINA RESULT:      -6.7      2.523      3.163
REMARK  Name = 45783475
REMARK  8 active torsions:
REMARK  status: ('A' for Active; 'I' for Inactive)
REMARK    1  A    between atoms: O_2  and  C_26
REMARK    2  A    between atoms: O_2  and  C_27
REMARK    3  A    between atoms: N_3  and  C_8
REMARK    4  A    between atoms: N_7  and  C_24
REMARK    5  A    between atoms: N_7  and  C_25
REMARK    6  A    between atoms: C_9  and  C_18
REMARK    7  A    between atoms: C_19  and  C_20
REMARK    8  A    between atoms: C_25  and  C_26
REMARK                            x       y       z     vdW  Elec       q    Type
REMARK                         _______ _______ _______ _____ _____    ______ ____
ROOT
ATOM      1  O   UNL     1      16.076   5.948  18.350  0.00  0.00    -0.336 OA
ATOM      4  N   UNL     1      16.366   7.435  20.000  0.00  0.00    -0.190 NA
ATOM      5  N   UNL     1      17.324   5.662  18.918  0.00  0.00    -0.056 NA
ATOM     18  C   UNL     1      15.580   7.005  19.045  0.00  0.00    +0.245 A 
ATOM     19  C   UNL     1      17.423   6.580  19.883  0.00  0.00    +0.204 A 
ENDROOT
BRANCH  19  20
ATOM      6  N   UNL     1      19.655   7.739  22.621  0.00  0.00    -0.240 NA
ATOM     20  C   UNL     1      18.564   6.671  20.747  0.00  0.00    +0.041 A 
ATOM     21  C   UNL     1      19.657   5.829  20.582  0.00  0.00    +0.016 A 
ATOM     22  C   UNL     1      18.612   7.601  21.772  0.00  0.00    +0.124 A 
ATOM     23  C   UNL     1      20.750   5.940  21.435  0.00  0.00    +0.044 A 
ATOM     24  C   UNL     1      20.700   6.903  22.429  0.00  0.00    +0.119 A 
BRANCH  24   7
ATOM      7  N   UNL     1      21.820   7.004  23.291  0.00  0.00    -0.327 N 
ATOM     28  H   UNL     1      22.356   7.862  23.237  0.00  0.00    +0.148 HD
BRANCH   7  25
ATOM     25  C   UNL     1      22.194   5.962  24.192  0.00  0.00    +0.131 C 
BRANCH  25  26
ATOM     26  C   UNL     1      22.024   6.430  25.627  0.00  0.00    +0.178 C 
BRANCH  26   2
ATOM      2  O   UNL     1      20.652   6.344  25.995  0.00  0.00    -0.381 OA
ATOM     27  C   UNL     1      20.165   7.586  26.485  0.00  0.00    +0.194 C 
ENDBRANCH  26   2
ENDBRANCH  25  26
ENDBRANCH   7  25
ENDBRANCH  24   7
ENDBRANCH  19  20
BRANCH  18   9
ATOM      3  N   UNL     1      13.702   8.569  19.514  0.00  0.00    -0.288 NA
ATOM      9  C   UNL     1      14.219   7.515  18.619  0.00  0.00    +0.146 C 
ATOM     12  C   UNL     1      12.844   9.423  18.694  0.00  0.00    +0.085 C 
ATOM     13  C   UNL     1      14.237   8.161  17.221  0.00  0.00    +0.030 C 
ATOM     14  C   UNL     1      13.656   9.555  17.421  0.00  0.00    +0.017 C 
BRANCH   3   8
ATOM      8  C   UNL     1      12.997   8.040  20.680  0.00  0.00    +0.057 C 
ATOM     10  C   UNL     1      12.066   9.112  21.257  0.00  0.00    +0.019 C 
ATOM     11  C   UNL     1      12.215   6.782  20.289  0.00  0.00    +0.019 C 
ATOM     15  C   UNL     1      11.253   8.571  22.432  0.00  0.00    +0.002 C 
ATOM     16  C   UNL     1      11.402   6.243  21.465  0.00  0.00    +0.002 C 
ATOM     17  C   UNL     1      10.482   7.311  22.050  0.00  0.00    +0.000 C 
ENDBRANCH   3   8
ENDBRANCH  18   9
TORSDOF 7
ENDMDL
MODEL 3
REMARK VINA RESULT:      -6.4      2.186     10.124
REMARK  Name = 45783475
REMARK  8 active torsions:
REMARK  status: ('A' for Active; 'I' for Inactive)
REMARK    1  A    between atoms: O_2  and  C_26
REMARK    2  A    between atoms: O_2  and  C_27
REMARK    3  A    between atoms: N_3  and  C_8
REMARK    4  A    between atoms: N_7  and  C_24
REMARK    5  A    between atoms: N_7  and  C_25
REMARK    6  A    between atoms: C_9  and  C_18
REMARK    7  A    between atoms: C_19  and  C_20
REMARK    8  A    between atoms: C_25  and  C_26
REMARK                            x       y       z     vdW  Elec       q    Type
REMARK                         _______ _______ _______ _____ _____    ______ ____
ROOT
ATOM      1  O   UNL     1      21.045   6.018  23.045  0.00  0.00    -0.336 OA
ATOM      4  N   UNL     1      20.775   6.015  20.821  0.00  0.00    -0.190 NA
ATOM      5  N   UNL     1      19.683   6.254  22.818  0.00  0.00    -0.056 NA
ATOM     18  C   UNL     1      21.615   5.890  21.818  0.00  0.00    +0.245 A 
ATOM     19  C   UNL     1      19.603   6.237  21.484  0.00  0.00    +0.204 A 
ENDROOT
BRANCH  19  20
ATOM      6  N   UNL     1      16.953   5.906  18.897  0.00  0.00    -0.240 NA
ATOM     20  C   UNL     1      18.369   6.440  20.782  0.00  0.00    +0.041 A 
ATOM     21  C   UNL     1      17.409   7.324  21.262  0.00  0.00    +0.016 A 
ATOM     22  C   UNL     1      18.095   5.762  19.607  0.00  0.00    +0.124 A 
ATOM     23  C   UNL     1      16.221   7.501  20.561  0.00  0.00    +0.044 A 
ATOM     24  C   UNL     1      16.043   6.775  19.394  0.00  0.00    +0.119 A 
BRANCH  24   7
ATOM      7  N   UNL     1      14.828   6.964  18.691  0.00  0.00    -0.327 N 
ATOM     28  H   UNL     1      14.894   7.023  17.682  0.00  0.00    +0.148 HD
BRANCH   7  25
ATOM     25  C   UNL     1      13.567   7.074  19.350  0.00  0.00    +0.131 C 
BRANCH  25  26
ATOM     26  C   UNL     1      12.846   8.328  18.886  0.00  0.00    +0.178 C 
BRANCH  26   2
ATOM      2  O   UNL     1      11.443   8.095  18.882  0.00  0.00    -0.381 OA
ATOM     27  C   UNL     1      10.865   8.374  20.150  0.00  0.00    +0.194 C 
ENDBRANCH  26   2
ENDBRANCH  25  26
ENDBRANCH   7  25
ENDBRANCH  24   7
ENDBRANCH  19  20
BRANCH  18   9
ATOM      3  N   UNL     1      23.479   4.581  20.815  0.00  0.00    -0.288 NA
ATOM      9  C   UNL     1      23.106   5.624  21.791  0.00  0.00    +0.146 C 
ATOM     12  C   UNL     1      24.837   4.896  20.372  0.00  0.00    +0.085 C 
ATOM     13  C   UNL     1      23.922   6.861  21.373  0.00  0.00    +0.030 C 
ATOM     14  C   UNL     1      24.768   6.400  20.194  0.00  0.00    +0.017 C 
BRANCH   3   8
ATOM      8  C   UNL     1      23.377   3.226  21.353  0.00  0.00    +0.057 C 
ATOM     10  C   UNL     1      24.380   2.308  20.645  0.00  0.00    +0.019 C 
ATOM     11  C   UNL     1      23.619   3.247  22.866  0.00  0.00    +0.019 C 
ATOM     15  C   UNL     1      24.357   0.899  21.236  0.00  0.00    +0.002 C 
ATOM     16  C   UNL     1      23.597   1.837  23.453  0.00  0.00    +0.002 C 
ATOM     17  C   UNL     1      24.586   0.916  22.744  0.00  0.00    +0.000 C 
ENDBRANCH   3   8
ENDBRANCH  18   9
TORSDOF 7
ENDMDL
MODEL 4
REMARK VINA RESULT:      -6.2     30.585     32.563
REMARK  Name = 45783475
REMARK  8 active torsions:
REMARK  status: ('A' for Active; 'I' for Inactive)
REMARK    1  A    between atoms: O_2  and  C_26
REMARK    2  A    between atoms: O_2  and  C_27
REMARK    3  A    between atoms: N_3  and  C_8
REMARK    4  A    between atoms: N_7  and  C_24
REMARK    5  A    between atoms: N_7  and  C_25
REMARK    6  A    between atoms: C_9  and  C_18
REMARK    7  A    between atoms: C_19  and  C_20
REMARK    8  A    between atoms: C_25  and  C_26
REMARK                            x       y       z     vdW  Elec       q    Type
REMARK                         _______ _______ _______ _____ _____    ______ ____
ROOT
ATOM      1  O   UNL     1     -14.344  -5.890  13.924  0.00  0.00    -0.336 OA
ATOM      4  N   UNL     1     -12.187  -5.569  14.435  0.00  0.00    -0.190 NA
ATOM      5  N   UNL     1     -14.028  -6.845  14.899  0.00  0.00    -0.056 NA
ATOM     18  C   UNL     1     -13.205  -5.181  13.709  0.00  0.00    +0.245 A 
ATOM     19  C   UNL     1     -12.740  -6.592  15.149  0.00  0.00    +0.204 A 
ENDROOT
BRANCH  19  20
ATOM      6  N   UNL     1     -11.881  -9.143  17.714  0.00  0.00    -0.240 NA
ATOM     20  C   UNL     1     -11.977  -7.342  16.104  0.00  0.00    +0.041 A 
ATOM     21  C   UNL     1     -10.646  -7.034  16.359  0.00  0.00    +0.016 A 
ATOM     22  C   UNL     1     -12.543  -8.396  16.802  0.00  0.00    +0.124 A 
ATOM     23  C   UNL     1      -9.931  -7.779  17.290  0.00  0.00    +0.044 A 
ATOM     24  C   UNL     1     -10.589  -8.813  17.936  0.00  0.00    +0.119 A 
BRANCH  24   7
ATOM      7  N   UNL     1      -9.847  -9.564  18.881  0.00  0.00    -0.327 N 
ATOM     28  H   UNL     1      -8.960  -9.171  19.174  0.00  0.00    +0.148 HD
BRANCH   7  25
ATOM     25  C   UNL     1     -10.302 -10.813  19.399  0.00  0.00    +0.131 C 
BRANCH  25  26
ATOM     26  C   UNL     1      -9.117 -11.723  19.677  0.00  0.00    +0.178 C 
BRANCH  26   2
ATOM      2  O   UNL     1      -7.938 -10.939  19.808  0.00  0.00    -0.381 OA
ATOM     27  C   UNL     1      -6.767 -11.725  19.628  0.00  0.00    +0.194 C 
ENDBRANCH  26   2
ENDBRANCH  25  26
ENDBRANCH   7  25
ENDBRANCH  24   7
ENDBRANCH  19  20
BRANCH  18   9
ATOM      3  N   UNL     1     -13.353  -4.581  11.299  0.00  0.00    -0.288 NA
ATOM      9  C   UNL     1     -13.286  -4.070  12.683  0.00  0.00    +0.146 C 
ATOM     12  C   UNL     1     -14.102  -3.588  10.529  0.00  0.00    +0.085 C 
ATOM     13  C   UNL     1     -14.548  -3.203  12.843  0.00  0.00    +0.030 C 
ATOM     14  C   UNL     1     -15.228  -3.236  11.481  0.00  0.00    +0.017 C 
BRANCH   3   8
ATOM      8  C   UNL     1     -12.039  -4.848  10.719  0.00  0.00    +0.057 C 
ATOM     10  C   UNL     1     -12.049  -6.206  10.008  0.00  0.00    +0.019 C 
ATOM     11  C   UNL     1     -11.657  -3.722   9.752  0.00  0.00    +0.019 C 
ATOM     15  C   UNL     1     -10.713  -6.486   9.322  0.00  0.00    +0.002 C 
ATOM     16  C   UNL     1     -10.321  -4.005   9.067  0.00  0.00    +0.002 C 
ATOM     17  C   UNL     1     -10.323  -5.361   8.367  0.00  0.00    +0.000 C 
ENDBRANCH   3   8
ENDBRANCH  18   9
TORSDOF 7
ENDMDL
MODEL 5
REMARK VINA RESULT:      -6.0     26.775     30.202
REMARK  Name = 45783475
REMARK  8 active torsions:
REMARK  status: ('A' for Active; 'I' for Inactive)
REMARK    1  A    between atoms: O_2  and  C_26
REMARK    2  A    between atoms: O_2  and  C_27
REMARK    3  A    between atoms: N_3  and  C_8
REMARK    4  A    between atoms: N_7  and  C_24
REMARK    5  A    between atoms: N_7  and  C_25
REMARK    6  A    between atoms: C_9  and  C_18
REMARK    7  A    between atoms: C_19  and  C_20
REMARK    8  A    between atoms: C_25  and  C_26
REMARK                            x       y       z     vdW  Elec       q    Type
REMARK                         _______ _______ _______ _____ _____    ______ ____
ROOT
ATOM      1  O   UNL     1      -9.361 -10.755  19.944  0.00  0.00    -0.336 OA
ATOM      4  N   UNL     1      -8.564  -9.968  18.004  0.00  0.00    -0.190 NA
ATOM      5  N   UNL     1      -8.018 -11.151  19.885  0.00  0.00    -0.056 NA
ATOM     18  C   UNL     1      -9.600 -10.064  18.799  0.00  0.00    +0.245 A 
ATOM     19  C   UNL     1      -7.618 -10.650  18.713  0.00  0.00    +0.204 A 
ENDROOT
BRANCH  19  20
ATOM      6  N   UNL     1      -4.087 -11.793  18.486  0.00  0.00    -0.240 NA
ATOM     20  C   UNL     1      -6.280 -10.813  18.220  0.00  0.00    +0.041 A 
ATOM     21  C   UNL     1      -5.867 -10.188  17.049  0.00  0.00    +0.016 A 
ATOM     22  C   UNL     1      -5.361 -11.598  18.895  0.00  0.00    +0.124 A 
ATOM     23  C   UNL     1      -4.564 -10.364  16.596  0.00  0.00    +0.044 A 
ATOM     24  C   UNL     1      -3.721 -11.169  17.344  0.00  0.00    +0.119 A 
BRANCH  24   7
ATOM      7  N   UNL     1      -2.397 -11.341  16.869  0.00  0.00    -0.327 N 
ATOM     28  H   UNL     1      -1.881 -12.127  17.245  0.00  0.00    +0.148 HD
BRANCH   7  25
ATOM     25  C   UNL     1      -1.801 -10.461  15.917  0.00  0.00    +0.131 C 
BRANCH  25  26
ATOM     26  C   UNL     1      -1.709 -11.145  14.563  0.00  0.00    +0.178 C 
BRANCH  26   2
ATOM      2  O   UNL     1      -2.005 -10.207  13.536  0.00  0.00    -0.381 OA
ATOM     27  C   UNL     1      -2.788 -10.793  12.505  0.00  0.00    +0.194 C 
ENDBRANCH  26   2
ENDBRANCH  25  26
ENDBRANCH   7  25
ENDBRANCH  24   7
ENDBRANCH  19  20
BRANCH  18   9
ATOM      3  N   UNL     1     -11.554  -9.805  17.280  0.00  0.00    -0.288 NA
ATOM      9  C   UNL     1     -11.002  -9.520  18.620  0.00  0.00    +0.146 C 
ATOM     12  C   UNL     1     -13.005  -9.899  17.443  0.00  0.00    +0.085 C 
ATOM     13  C   UNL     1     -12.012 -10.143  19.601  0.00  0.00    +0.030 C 
ATOM     14  C   UNL     1     -13.126 -10.700  18.724  0.00  0.00    +0.017 C 
BRANCH   3   8
ATOM      8  C   UNL     1     -11.177  -8.811  16.278  0.00  0.00    +0.057 C 
ATOM     10  C   UNL     1     -12.186  -8.825  15.124  0.00  0.00    +0.019 C 
ATOM     11  C   UNL     1     -11.098  -7.424  16.925  0.00  0.00    +0.019 C 
ATOM     15  C   UNL     1     -11.869  -7.743  14.093  0.00  0.00    +0.002 C 
ATOM     16  C   UNL     1     -10.781  -6.344  15.891  0.00  0.00    +0.002 C 
ATOM     17  C   UNL     1     -11.777  -6.362  14.735  0.00  0.00    +0.000 C 
ENDBRANCH   3   8
ENDBRANCH  18   9
TORSDOF 7
ENDMDL
MODEL 6
REMARK VINA RESULT:      -6.0     28.320     31.207
REMARK  Name = 45783475
REMARK  8 active torsions:
REMARK  status: ('A' for Active; 'I' for Inactive)
REMARK    1  A    between atoms: O_2  and  C_26
REMARK    2  A    between atoms: O_2  and  C_27
REMARK    3  A    between atoms: N_3  and  C_8
REMARK    4  A    between atoms: N_7  and  C_24
REMARK    5  A    between atoms: N_7  and  C_25
REMARK    6  A    between atoms: C_9  and  C_18
REMARK    7  A    between atoms: C_19  and  C_20
REMARK    8  A    between atoms: C_25  and  C_26
REMARK                            x       y       z     vdW  Elec       q    Type
REMARK                         _______ _______ _______ _____ _____    ______ ____
ROOT
ATOM      1  O   UNL     1     -13.353   8.915  18.969  0.00  0.00    -0.336 OA
ATOM      4  N   UNL     1     -12.133   7.387  20.063  0.00  0.00    -0.190 NA
ATOM      5  N   UNL     1     -14.202   8.355  19.932  0.00  0.00    -0.056 NA
ATOM     18  C   UNL     1     -12.156   8.289  19.113  0.00  0.00    +0.245 A 
ATOM     19  C   UNL     1     -13.411   7.464  20.536  0.00  0.00    +0.204 A 
ENDROOT
BRANCH  19  20
ATOM      6  N   UNL     1     -15.522   6.183  23.316  0.00  0.00    -0.240 NA
ATOM     20  C   UNL     1     -13.865   6.635  21.615  0.00  0.00    +0.041 A 
ATOM     21  C   UNL     1     -13.142   5.516  22.013  0.00  0.00    +0.016 A 
ATOM     22  C   UNL     1     -15.038   6.922  22.293  0.00  0.00    +0.124 A 
ATOM     23  C   UNL     1     -13.607   4.730  23.061  0.00  0.00    +0.044 A 
ATOM     24  C   UNL     1     -14.791   5.104  23.675  0.00  0.00    +0.119 A 
BRANCH  24   7
ATOM      7  N   UNL     1     -15.253   4.293  24.741  0.00  0.00    -0.327 N 
ATOM     28  H   UNL     1     -15.025   4.604  25.678  0.00  0.00    +0.148 HD
BRANCH   7  25
ATOM     25  C   UNL     1     -15.997   3.093  24.529  0.00  0.00    +0.131 C 
BRANCH  25  26
ATOM     26  C   UNL     1     -16.925   3.261  23.337  0.00  0.00    +0.178 C 
BRANCH  26   2
ATOM      2  O   UNL     1     -16.819   2.124  22.490  0.00  0.00    -0.381 OA
ATOM     27  C   UNL     1     -17.977   1.304  22.571  0.00  0.00    +0.194 C 
ENDBRANCH  26   2
ENDBRANCH  25  26
ENDBRANCH   7  25
ENDBRANCH  24   7
ENDBRANCH  19  20
BRANCH  18   9
ATOM      3  N   UNL     1     -11.565   9.385  16.959  0.00  0.00    -0.288 NA
ATOM      9  C   UNL     1     -11.050   8.721  18.173  0.00  0.00    +0.146 C 
ATOM     12  C   UNL     1     -10.530  10.326  16.532  0.00  0.00    +0.085 C 
ATOM     13  C   UNL     1     -10.098   9.751  18.809  0.00  0.00    +0.030 C 
ATOM     14  C   UNL     1     -10.096  10.935  17.851  0.00  0.00    +0.017 C 
BRANCH   3   8
ATOM      8  C   UNL     1     -11.925   8.446  15.898  0.00  0.00    +0.057 C 
ATOM     10  C   UNL     1     -13.383   8.666  15.480  0.00  0.00    +0.019 C 
ATOM     11  C   UNL     1     -10.977   8.618  14.707  0.00  0.00    +0.019 C 
ATOM     15  C   UNL     1     -13.773   7.754  14.318  0.00  0.00    +0.002 C 
ATOM     16  C   UNL     1     -11.370   7.705  13.546  0.00  0.00    +0.002 C 
ATOM     17  C   UNL     1     -12.824   7.913  13.134  0.00  0.00    +0.000 C 
ENDBRANCH   3   8
ENDBRANCH  18   9
TORSDOF 7
ENDMDL
MODEL 7
REMARK VINA RESULT:      -6.0      2.423      9.941
REMARK  Name = 45783475
REMARK  8 active torsions:
REMARK  status: ('A' for Active; 'I' for Inactive)
REMARK    1  A    between atoms: O_2  and  C_26
REMARK    2  A    between atoms: O_2  and  C_27
REMARK    3  A    between atoms: N_3  and  C_8
REMARK    4  A    between atoms: N_7  and  C_24
REMARK    5  A    between atoms: N_7  and  C_25
REMARK    6  A    between atoms: C_9  and  C_18
REMARK    7  A    between atoms: C_19  and  C_20
REMARK    8  A    between atoms: C_25  and  C_26
REMARK                            x       y       z     vdW  Elec       q    Type
REMARK                         _______ _______ _______ _____ _____    ______ ____
ROOT
ATOM      1  O   UNL     1      22.214   6.649  21.240  0.00  0.00    -0.336 OA
ATOM      4  N   UNL     1      20.811   4.938  20.894  0.00  0.00    -0.190 NA
ATOM      5  N   UNL     1      20.966   7.219  20.956  0.00  0.00    -0.056 NA
ATOM     18  C   UNL     1      22.034   5.304  21.183  0.00  0.00    +0.245 A 
ATOM     19  C   UNL     1      20.193   6.147  20.765  0.00  0.00    +0.204 A 
ENDROOT
BRANCH  19  20
ATOM      6  N   UNL     1      16.952   5.583  19.031  0.00  0.00    -0.240 NA
ATOM     20  C   UNL     1      18.799   6.249  20.441  0.00  0.00    +0.041 A 
ATOM     21  C   UNL     1      17.951   7.071  21.175  0.00  0.00    +0.016 A 
ATOM     22  C   UNL     1      18.255   5.533  19.388  0.00  0.00    +0.124 A 
ATOM     23  C   UNL     1      16.604   7.150  20.838  0.00  0.00    +0.044 A 
ATOM     24  C   UNL     1      16.158   6.393  19.767  0.00  0.00    +0.119 A 
BRANCH  24   7
ATOM      7  N   UNL     1      14.783   6.483  19.437  0.00  0.00    -0.327 N 
ATOM     28  H   UNL     1      14.523   6.186  18.503  0.00  0.00    +0.148 HD
BRANCH   7  25
ATOM     25  C   UNL     1      13.802   6.968  20.352  0.00  0.00    +0.131 C 
BRANCH  25  26
ATOM     26  C   UNL     1      12.414   6.551  19.894  0.00  0.00    +0.178 C 
BRANCH  26   2
ATOM      2  O   UNL     1      11.945   7.464  18.911  0.00  0.00    -0.381 OA
ATOM     27  C   UNL     1      11.280   8.572  19.503  0.00  0.00    +0.194 C 
ENDBRANCH  26   2
ENDBRANCH  25  26
ENDBRANCH   7  25
ENDBRANCH  24   7
ENDBRANCH  19  20
BRANCH  18   9
ATOM      3  N   UNL     1      22.902   3.058  21.814  0.00  0.00    -0.288 NA
ATOM      9  C   UNL     1      23.253   4.448  21.457  0.00  0.00    +0.146 C 
ATOM     12  C   UNL     1      24.018   2.223  21.370  0.00  0.00    +0.085 C 
ATOM     13  C   UNL     1      24.176   4.316  20.231  0.00  0.00    +0.030 C 
ATOM     14  C   UNL     1      24.334   2.818  20.012  0.00  0.00    +0.017 C 
BRANCH   3   8
ATOM      8  C   UNL     1      22.618   2.884  23.236  0.00  0.00    +0.057 C 
ATOM     10  C   UNL     1      23.220   1.563  23.730  0.00  0.00    +0.019 C 
ATOM     11  C   UNL     1      23.171   4.073  24.028  0.00  0.00    +0.019 C 
ATOM     15  C   UNL     1      23.010   1.382  25.233  0.00  0.00    +0.002 C 
ATOM     16  C   UNL     1      22.960   3.889  25.531  0.00  0.00    +0.002 C 
ATOM     17  C   UNL     1      23.549   2.570  26.024  0.00  0.00    +0.000 C 
ENDBRANCH   3   8
ENDBRANCH  18   9
TORSDOF 7
ENDMDL
MODEL 8
REMARK VINA RESULT:      -6.0      1.514      3.442
REMARK  Name = 45783475
REMARK  8 active torsions:
REMARK  status: ('A' for Active; 'I' for Inactive)
REMARK    1  A    between atoms: O_2  and  C_26
REMARK    2  A    between atoms: O_2  and  C_27
REMARK    3  A    between atoms: N_3  and  C_8
REMARK    4  A    between atoms: N_7  and  C_24
REMARK    5  A    between atoms: N_7  and  C_25
REMARK    6  A    between atoms: C_9  and  C_18
REMARK    7  A    between atoms: C_19  and  C_20
REMARK    8  A    between atoms: C_25  and  C_26
REMARK                            x       y       z     vdW  Elec       q    Type
REMARK                         _______ _______ _______ _____ _____    ______ ____
ROOT
ATOM      1  O   UNL     1      15.722   6.280  18.757  0.00  0.00    -0.336 OA
ATOM      4  N   UNL     1      16.706   7.313  20.484  0.00  0.00    -0.190 NA
ATOM      5  N   UNL     1      16.956   5.642  18.941  0.00  0.00    -0.056 NA
ATOM     18  C   UNL     1      15.656   7.250  19.705  0.00  0.00    +0.245 A 
ATOM     19  C   UNL     1      17.476   6.307  19.977  0.00  0.00    +0.204 A 
ENDROOT
BRANCH  19  20
ATOM      6  N   UNL     1      20.759   4.630  20.466  0.00  0.00    -0.240 NA
ATOM     20  C   UNL     1      18.763   5.992  20.528  0.00  0.00    +0.041 A 
ATOM     21  C   UNL     1      19.269   6.698  21.614  0.00  0.00    +0.016 A 
ATOM     22  C   UNL     1      19.540   4.977  19.996  0.00  0.00    +0.124 A 
ATOM     23  C   UNL     1      20.520   6.371  22.126  0.00  0.00    +0.044 A 
ATOM     24  C   UNL     1      21.218   5.338  21.523  0.00  0.00    +0.119 A 
BRANCH  24   7
ATOM      7  N   UNL     1      22.491   5.018  22.056  0.00  0.00    -0.327 N 
ATOM     28  H   UNL     1      23.175   5.765  22.073  0.00  0.00    +0.148 HD
BRANCH   7  25
ATOM     25  C   UNL     1      22.816   3.716  22.542  0.00  0.00    +0.131 C 
BRANCH  25  26
ATOM     26  C   UNL     1      24.309   3.467  22.401  0.00  0.00    +0.178 C 
BRANCH  26   2
ATOM      2  O   UNL     1      24.538   2.542  21.346  0.00  0.00    -0.381 OA
ATOM     27  C   UNL     1      25.924   2.400  21.069  0.00  0.00    +0.194 C 
ENDBRANCH  26   2
ENDBRANCH  25  26
ENDBRANCH   7  25
ENDBRANCH  24   7
ENDBRANCH  19  20
BRANCH  18   9
ATOM      3  N   UNL     1      13.807   8.253  18.374  0.00  0.00    -0.288 NA
ATOM      9  C   UNL     1      14.399   8.096  19.718  0.00  0.00    +0.146 C 
ATOM     12  C   UNL     1      12.367   8.421  18.575  0.00  0.00    +0.085 C 
ATOM     13  C   UNL     1      13.276   7.479  20.572  0.00  0.00    +0.030 C 
ATOM     14  C   UNL     1      12.075   7.383  19.640  0.00  0.00    +0.017 C 
BRANCH   3   8
ATOM      8  C   UNL     1      14.388   9.357  17.614  0.00  0.00    +0.057 C 
ATOM     10  C   UNL     1      14.243   9.088  16.112  0.00  0.00    +0.019 C 
ATOM     11  C   UNL     1      13.711  10.674  18.007  0.00  0.00    +0.019 C 
ATOM     15  C   UNL     1      14.771  10.258  15.283  0.00  0.00    +0.002 C 
ATOM     16  C   UNL     1      14.240  11.842  17.176  0.00  0.00    +0.002 C 
ATOM     17  C   UNL     1      14.108  11.574  15.680  0.00  0.00    +0.000 C 
ENDBRANCH   3   8
ENDBRANCH  18   9
TORSDOF 7
ENDMDL
MODEL 9
REMARK VINA RESULT:      -5.9     28.170     30.593
REMARK  Name = 45783475
REMARK  8 active torsions:
REMARK  status: ('A' for Active; 'I' for Inactive)
REMARK    1  A    between atoms: O_2  and  C_26
REMARK    2  A    between atoms: O_2  and  C_27
REMARK    3  A    between atoms: N_3  and  C_8
REMARK    4  A    between atoms: N_7  and  C_24
REMARK    5  A    between atoms: N_7  and  C_25
REMARK    6  A    between atoms: C_9  and  C_18
REMARK    7  A    between atoms: C_19  and  C_20
REMARK    8  A    between atoms: C_25  and  C_26
REMARK                            x       y       z     vdW  Elec       q    Type
REMARK                         _______ _______ _______ _____ _____    ______ ____
ROOT
ATOM      1  O   UNL     1     -15.365   8.413  23.486  0.00  0.00    -0.336 OA
ATOM      4  N   UNL     1     -13.724   9.701  22.670  0.00  0.00    -0.190 NA
ATOM      5  N   UNL     1     -14.865   7.743  22.362  0.00  0.00    -0.056 NA
ATOM     18  C   UNL     1     -14.638   9.556  23.596  0.00  0.00    +0.245 A 
ATOM     19  C   UNL     1     -13.901   8.564  21.937  0.00  0.00    +0.204 A 
ENDROOT
BRANCH  19  20
ATOM      6  N   UNL     1     -12.401   8.893  18.551  0.00  0.00    -0.240 NA
ATOM     20  C   UNL     1     -13.099   8.280  20.782  0.00  0.00    +0.041 A 
ATOM     21  C   UNL     1     -12.263   7.169  20.746  0.00  0.00    +0.016 A 
ATOM     22  C   UNL     1     -13.131   9.103  19.669  0.00  0.00    +0.124 A 
ATOM     23  C   UNL     1     -11.496   6.919  19.614  0.00  0.00    +0.044 A 
ATOM     24  C   UNL     1     -11.601   7.803  18.552  0.00  0.00    +0.119 A 
BRANCH  24   7
ATOM      7  N   UNL     1     -10.812   7.535  17.406  0.00  0.00    -0.327 N 
ATOM     28  H   UNL     1     -10.574   6.565  17.238  0.00  0.00    +0.148 HD
BRANCH   7  25
ATOM     25  C   UNL     1     -10.361   8.564  16.525  0.00  0.00    +0.131 C 
BRANCH  25  26
ATOM     26  C   UNL     1     -10.912   8.329  15.128  0.00  0.00    +0.178 C 
BRANCH  26   2
ATOM      2  O   UNL     1     -10.093   7.385  14.448  0.00  0.00    -0.381 OA
ATOM     27  C   UNL     1     -10.186   7.537  13.038  0.00  0.00    +0.194 C 
ENDBRANCH  26   2
ENDBRANCH  25  26
ENDBRANCH   7  25
ENDBRANCH  24   7
ENDBRANCH  19  20
BRANCH  18   9
ATOM      3  N   UNL     1     -13.844  11.293  25.191  0.00  0.00    -0.288 NA
ATOM      9  C   UNL     1     -14.989  10.470  24.751  0.00  0.00    +0.146 C 
ATOM     12  C   UNL     1     -14.408  12.529  25.732  0.00  0.00    +0.085 C 
ATOM     13  C   UNL     1     -16.088  11.487  24.393  0.00  0.00    +0.030 C 
ATOM     14  C   UNL     1     -15.491  12.849  24.721  0.00  0.00    +0.017 C 
BRANCH   3   8
ATOM      8  C   UNL     1     -12.984  10.614  26.157  0.00  0.00    +0.057 C 
ATOM     10  C   UNL     1     -11.514  10.779  25.753  0.00  0.00    +0.019 C 
ATOM     11  C   UNL     1     -13.236  11.170  27.562  0.00  0.00    +0.019 C 
ATOM     15  C   UNL     1     -10.579  10.147  26.782  0.00  0.00    +0.002 C 
ATOM     16  C   UNL     1     -12.298  10.537  28.589  0.00  0.00    +0.002 C 
ATOM     17  C   UNL     1     -10.835  10.690  28.185  0.00  0.00    +0.000 C 
ENDBRANCH   3   8
ENDBRANCH  18   9
TORSDOF 7
ENDMDL
MODEL 10
REMARK VINA RESULT:      -5.8     26.959     29.556
REMARK  Name = 45783475
REMARK  8 active torsions:
REMARK  status: ('A' for Active; 'I' for Inactive)
REMARK    1  A    between atoms: O_2  and  C_26
REMARK    2  A    between atoms: O_2  and  C_27
REMARK    3  A    between atoms: N_3  and  C_8
REMARK    4  A    between atoms: N_7  and  C_24
REMARK    5  A    between atoms: N_7  and  C_25
REMARK    6  A    between atoms: C_9  and  C_18
REMARK    7  A    between atoms: C_19  and  C_20
REMARK    8  A    between atoms: C_25  and  C_26
REMARK                            x       y       z     vdW  Elec       q    Type
REMARK                         _______ _______ _______ _____ _____    ______ ____
ROOT
ATOM      1  O   UNL     1      -2.465 -10.107  10.919  0.00  0.00    -0.336 OA
ATOM      4  N   UNL     1      -4.376 -10.007  12.083  0.00  0.00    -0.190 NA
ATOM      5  N   UNL     1      -2.154 -10.536  12.216  0.00  0.00    -0.056 NA
ATOM     18  C   UNL     1      -3.792  -9.815  10.927  0.00  0.00    +0.245 A 
ATOM     19  C   UNL     1      -3.332 -10.449  12.841  0.00  0.00    +0.204 A 
ENDROOT
BRANCH  19  20
ATOM      6  N   UNL     1      -2.556 -10.937  16.445  0.00  0.00    -0.240 NA
ATOM     20  C   UNL     1      -3.498 -10.795  14.223  0.00  0.00    +0.041 A 
ATOM     21  C   UNL     1      -4.702 -11.306  14.694  0.00  0.00    +0.016 A 
ATOM     22  C   UNL     1      -2.465 -10.631  15.131  0.00  0.00    +0.124 A 
ATOM     23  C   UNL     1      -4.835 -11.632  16.039  0.00  0.00    +0.044 A 
ATOM     24  C   UNL     1      -3.742 -11.431  16.866  0.00  0.00    +0.119 A 
BRANCH  24   7
ATOM      7  N   UNL     1      -3.892 -11.767  18.234  0.00  0.00    -0.327 N 
ATOM     28  H   UNL     1      -3.047 -11.773  18.793  0.00  0.00    +0.148 HD
BRANCH   7  25
ATOM     25  C   UNL     1      -5.156 -12.089  18.813  0.00  0.00    +0.131 C 
BRANCH  25  26
ATOM     26  C   UNL     1      -5.726 -10.873  19.524  0.00  0.00    +0.178 C 
BRANCH  26   2
ATOM      2  O   UNL     1      -7.127 -11.041  19.701  0.00  0.00    -0.381 OA
ATOM     27  C   UNL     1      -7.492 -12.414  19.699  0.00  0.00    +0.194 C 
ENDBRANCH  26   2
ENDBRANCH  25  26
ENDBRANCH   7  25
ENDBRANCH  24   7
ENDBRANCH  19  20
BRANCH  18   9
ATOM      3  N   UNL     1      -5.261 -10.322   8.984  0.00  0.00    -0.288 NA
ATOM      9  C   UNL     1      -4.382  -9.322   9.622  0.00  0.00    +0.146 C 
ATOM     12  C   UNL     1      -6.258  -9.569   8.222  0.00  0.00    +0.085 C 
ATOM     13  C   UNL     1      -5.272  -8.078   9.805  0.00  0.00    +0.030 C 
ATOM     14  C   UNL     1      -6.611  -8.453   9.184  0.00  0.00    +0.017 C 
BRANCH   3   8
ATOM      8  C   UNL     1      -4.535 -11.275   8.147  0.00  0.00    +0.057 C 
ATOM     10  C   UNL     1      -4.789 -12.703   8.643  0.00  0.00    +0.019 C 
ATOM     11  C   UNL     1      -4.962 -11.115   6.684  0.00  0.00    +0.019 C 
ATOM     15  C   UNL     1      -4.109 -13.735   7.745  0.00  0.00    +0.002 C 
ATOM     16  C   UNL     1      -4.280 -12.148   5.788  0.00  0.00    +0.002 C 
ATOM     17  C   UNL     1      -4.521 -13.570   6.285  0.00  0.00    +0.000 C 
ENDBRANCH   3   8
ENDBRANCH  18   9
TORSDOF 7
ENDMDL
