MODEL 1
REMARK VINA RESULT:      -6.1      0.000      0.000
REMARK  Name = 56774055
REMARK  10 active torsions:
REMARK  status: ('A' for Active; 'I' for Inactive)
REMARK    1  A    between atoms: N_3  and  C_7
REMARK    2  A    between atoms: N_3  and  C_12
REMARK    3  A    between atoms: C_5  and  C_10
REMARK    4  A    between atoms: C_5  and  C_11
REMARK    5  A    between atoms: C_6  and  C_9
REMARK    6  A    between atoms: C_9  and  C_13
REMARK    7  A    between atoms: C_19  and  C_20
REMARK    8  A    between atoms: C_20  and  C_21
REMARK    9  A    between atoms: C_20  and  C_22
REMARK   10  A    between atoms: C_20  and  C_23
REMARK                            x       y       z     vdW  Elec       q    Type
REMARK                         _______ _______ _______ _____ _____    ______ ____
ROOT
ATOM      5  C   UNL     1     -14.203   7.062  21.351  0.00  0.00    -0.016 C 
ATOM      6  C   UNL     1     -13.798   5.661  21.855  0.00  0.00    +0.004 C 
ATOM      7  C   UNL     1     -12.886   7.070  20.548  0.00  0.00    +0.060 C 
ATOM      8  C   UNL     1     -12.335   6.072  21.587  0.00  0.00    +0.023 C 
ATOM     10  C   UNL     1     -14.359   8.088  22.454  0.00  0.00    +0.013 C 
ATOM     11  C   UNL     1     -15.424   7.109  20.449  0.00  0.00    +0.013 C 
ENDROOT
BRANCH   7   3
ATOM      3  N   UNL     1     -12.182   8.348  20.695  0.00  0.00    -0.310 NA
ATOM     24  H   UNL     1     -11.356   8.308  21.291  0.00  0.00    +0.122 HD
BRANCH   3  12
ATOM      1  O   UNL     1      -9.829   9.037  17.287  0.00  0.00    -0.380 OA
ATOM     12  C   UNL     1     -11.802   8.843  19.374  0.00  0.00    +0.058 C 
ATOM     14  C   UNL     1     -11.506   7.686  18.415  0.00  0.00    +0.047 C 
ATOM     15  C   UNL     1     -10.582   9.762  19.481  0.00  0.00    +0.047 C 
ATOM     16  C   UNL     1     -10.984   8.220  17.086  0.00  0.00    +0.161 C 
ATOM     17  C   UNL     1     -10.110  10.181  18.093  0.00  0.00    +0.161 C 
ENDBRANCH   3  12
ENDBRANCH   7   3
BRANCH   6   9
ATOM      9  C   UNL     1     -14.106   5.333  23.298  0.00  0.00    +0.063 C 
BRANCH   9  13
ATOM      2  O   UNL     1     -16.841   3.054  22.706  0.00  0.00    -0.359 OA
ATOM      4  N   UNL     1     -15.920   4.006  22.286  0.00  0.00    -0.083 NA
ATOM     13  C   UNL     1     -15.217   4.314  23.380  0.00  0.00    +0.084 A 
ATOM     18  C   UNL     1     -15.645   3.593  24.509  0.00  0.00    +0.071 A 
ATOM     19  C   UNL     1     -16.667   2.817  24.032  0.00  0.00    +0.143 A 
BRANCH  19  20
ATOM     20  C   UNL     1     -17.563   1.829  24.643  0.00  0.00    +0.023 C 
ATOM     21  C   UNL     1     -18.802   2.404  25.427  0.00  0.00    +0.019 C 
ATOM     22  C   UNL     1     -18.188   0.860  23.579  0.00  0.00    +0.019 C 
ATOM     23  C   UNL     1     -16.819   0.928  25.691  0.00  0.00    +0.019 C 
ENDBRANCH  19  20
ENDBRANCH   9  13
ENDBRANCH   6   9
TORSDOF 5
ENDMDL
MODEL 2
REMARK VINA RESULT:      -6.0     30.483     34.213
REMARK  Name = 56774055
REMARK  10 active torsions:
REMARK  status: ('A' for Active; 'I' for Inactive)
REMARK    1  A    between atoms: N_3  and  C_7
REMARK    2  A    between atoms: N_3  and  C_12
REMARK    3  A    between atoms: C_5  and  C_10
REMARK    4  A    between atoms: C_5  and  C_11
REMARK    5  A    between atoms: C_6  and  C_9
REMARK    6  A    between atoms: C_9  and  C_13
REMARK    7  A    between atoms: C_19  and  C_20
REMARK    8  A    between atoms: C_20  and  C_21
REMARK    9  A    between atoms: C_20  and  C_22
REMARK   10  A    between atoms: C_20  and  C_23
REMARK                            x       y       z     vdW  Elec       q    Type
REMARK                         _______ _______ _______ _____ _____    ______ ____
ROOT
ATOM      5  C   UNL     1      20.981   6.387  21.046  0.00  0.00    -0.016 C 
ATOM      6  C   UNL     1      19.615   6.160  20.366  0.00  0.00    +0.004 C 
ATOM      7  C   UNL     1      21.399   5.008  20.495  0.00  0.00    +0.060 C 
ATOM      8  C   UNL     1      19.899   4.646  20.475  0.00  0.00    +0.023 C 
ATOM     10  C   UNL     1      20.898   6.546  22.550  0.00  0.00    +0.013 C 
ATOM     11  C   UNL     1      21.823   7.513  20.471  0.00  0.00    +0.013 C 
ENDROOT
BRANCH   7   3
ATOM      3  N   UNL     1      22.068   4.205  21.524  0.00  0.00    -0.310 NA
ATOM     24  H   UNL     1      21.436   3.663  22.113  0.00  0.00    +0.122 HD
BRANCH   3  12
ATOM      1  O   UNL     1      25.730   2.343  20.660  0.00  0.00    -0.380 OA
ATOM     12  C   UNL     1      23.027   3.307  20.886  0.00  0.00    +0.058 C 
ATOM     14  C   UNL     1      23.642   2.342  21.905  0.00  0.00    +0.047 C 
ATOM     15  C   UNL     1      24.130   4.111  20.192  0.00  0.00    +0.047 C 
ATOM     16  C   UNL     1      24.734   1.505  21.249  0.00  0.00    +0.161 C 
ATOM     17  C   UNL     1      25.196   3.176  19.631  0.00  0.00    +0.161 C 
ENDBRANCH   3  12
ENDBRANCH   7   3
BRANCH   6   9
ATOM      9  C   UNL     1      18.387   6.624  21.116  0.00  0.00    +0.063 C 
BRANCH   9  13
ATOM      2  O   UNL     1      15.888   6.225  18.543  0.00  0.00    -0.359 OA
ATOM      4  N   UNL     1      17.044   5.834  19.205  0.00  0.00    -0.083 NA
ATOM     13  C   UNL     1      17.210   6.737  20.176  0.00  0.00    +0.084 A 
ATOM     18  C   UNL     1      16.198   7.713  20.176  0.00  0.00    +0.071 A 
ATOM     19  C   UNL     1      15.393   7.346  19.130  0.00  0.00    +0.143 A 
BRANCH  19  20
ATOM     20  C   UNL     1      14.163   7.900  18.552  0.00  0.00    +0.023 C 
ATOM     21  C   UNL     1      14.057   7.867  16.981  0.00  0.00    +0.019 C 
ATOM     22  C   UNL     1      12.883   7.140  19.048  0.00  0.00    +0.019 C 
ATOM     23  C   UNL     1      13.964   9.410  18.928  0.00  0.00    +0.019 C 
ENDBRANCH  19  20
ENDBRANCH   9  13
ENDBRANCH   6   9
TORSDOF 5
ENDMDL
MODEL 3
REMARK VINA RESULT:      -6.0     20.156     22.154
REMARK  Name = 56774055
REMARK  10 active torsions:
REMARK  status: ('A' for Active; 'I' for Inactive)
REMARK    1  A    between atoms: N_3  and  C_7
REMARK    2  A    between atoms: N_3  and  C_12
REMARK    3  A    between atoms: C_5  and  C_10
REMARK    4  A    between atoms: C_5  and  C_11
REMARK    5  A    between atoms: C_6  and  C_9
REMARK    6  A    between atoms: C_9  and  C_13
REMARK    7  A    between atoms: C_19  and  C_20
REMARK    8  A    between atoms: C_20  and  C_21
REMARK    9  A    between atoms: C_20  and  C_22
REMARK   10  A    between atoms: C_20  and  C_23
REMARK                            x       y       z     vdW  Elec       q    Type
REMARK                         _______ _______ _______ _____ _____    ______ ____
ROOT
ATOM      5  C   UNL     1      -4.026 -11.501  15.478  0.00  0.00    -0.016 C 
ATOM      6  C   UNL     1      -2.790 -10.696  15.025  0.00  0.00    +0.004 C 
ATOM      7  C   UNL     1      -3.670 -11.090  16.922  0.00  0.00    +0.060 C 
ATOM      8  C   UNL     1      -2.213 -10.934  16.437  0.00  0.00    +0.023 C 
ATOM     10  C   UNL     1      -3.958 -12.973  15.129  0.00  0.00    +0.013 C 
ATOM     11  C   UNL     1      -5.370 -10.945  15.039  0.00  0.00    +0.013 C 
ENDROOT
BRANCH   7   3
ATOM      3  N   UNL     1      -3.747 -12.235  17.834  0.00  0.00    -0.310 NA
ATOM     24  H   UNL     1      -2.916 -12.373  18.409  0.00  0.00    +0.122 HD
BRANCH   3  12
ATOM      1  O   UNL     1      -7.652 -11.255  19.022  0.00  0.00    -0.380 OA
ATOM     12  C   UNL     1      -4.914 -12.084  18.698  0.00  0.00    +0.058 C 
ATOM     14  C   UNL     1      -6.092 -12.921  18.189  0.00  0.00    +0.047 C 
ATOM     15  C   UNL     1      -5.321 -10.610  18.791  0.00  0.00    +0.047 C 
ATOM     16  C   UNL     1      -7.337 -12.648  19.024  0.00  0.00    +0.161 C 
ATOM     17  C   UNL     1      -6.610 -10.464  19.593  0.00  0.00    +0.161 C 
ENDBRANCH   3  12
ENDBRANCH   7   3
BRANCH   6   9
ATOM      9  C   UNL     1      -1.963 -11.277  13.901  0.00  0.00    +0.063 C 
BRANCH   9  13
ATOM      2  O   UNL     1      -2.396  -9.686  10.691  0.00  0.00    -0.359 OA
ATOM      4  N   UNL     1      -1.657  -9.974  11.831  0.00  0.00    -0.083 NA
ATOM     13  C   UNL     1      -2.448 -10.758  12.569  0.00  0.00    +0.084 A 
ATOM     18  C   UNL     1      -3.688 -10.998  11.950  0.00  0.00    +0.071 A 
ATOM     19  C   UNL     1      -3.605 -10.301  10.774  0.00  0.00    +0.143 A 
BRANCH  19  20
ATOM     20  C   UNL     1      -4.520 -10.102   9.644  0.00  0.00    +0.023 C 
ATOM     21  C   UNL     1      -4.322  -8.778   8.814  0.00  0.00    +0.019 C 
ATOM     22  C   UNL     1      -4.406 -11.251   8.582  0.00  0.00    +0.019 C 
ATOM     23  C   UNL     1      -6.020 -10.059  10.102  0.00  0.00    +0.019 C 
ENDBRANCH  19  20
ENDBRANCH   9  13
ENDBRANCH   6   9
TORSDOF 5
ENDMDL
MODEL 4
REMARK VINA RESULT:      -6.0     18.083     20.169
REMARK  Name = 56774055
REMARK  10 active torsions:
REMARK  status: ('A' for Active; 'I' for Inactive)
REMARK    1  A    between atoms: N_3  and  C_7
REMARK    2  A    between atoms: N_3  and  C_12
REMARK    3  A    between atoms: C_5  and  C_10
REMARK    4  A    between atoms: C_5  and  C_11
REMARK    5  A    between atoms: C_6  and  C_9
REMARK    6  A    between atoms: C_9  and  C_13
REMARK    7  A    between atoms: C_19  and  C_20
REMARK    8  A    between atoms: C_20  and  C_21
REMARK    9  A    between atoms: C_20  and  C_22
REMARK   10  A    between atoms: C_20  and  C_23
REMARK                            x       y       z     vdW  Elec       q    Type
REMARK                         _______ _______ _______ _____ _____    ______ ____
ROOT
ATOM      5  C   UNL     1      -6.849 -11.096  18.010  0.00  0.00    -0.016 C 
ATOM      6  C   UNL     1      -5.944 -10.855  16.784  0.00  0.00    +0.004 C 
ATOM      7  C   UNL     1      -7.917 -10.244  17.293  0.00  0.00    +0.060 C 
ATOM      8  C   UNL     1      -6.757  -9.568  16.533  0.00  0.00    +0.023 C 
ATOM     10  C   UNL     1      -6.279 -10.562  19.307  0.00  0.00    +0.013 C 
ATOM     11  C   UNL     1      -7.306 -12.530  18.218  0.00  0.00    +0.013 C 
ENDROOT
BRANCH   7   3
ATOM      3  N   UNL     1      -8.520  -9.269  18.207  0.00  0.00    -0.310 NA
ATOM     24  H   UNL     1      -8.049  -8.364  18.229  0.00  0.00    +0.122 HD
BRANCH   3  12
ATOM      1  O   UNL     1     -11.921  -8.737  15.804  0.00  0.00    -0.380 OA
ATOM     12  C   UNL     1      -9.922  -9.076  17.849  0.00  0.00    +0.058 C 
ATOM     14  C   UNL     1     -10.443 -10.246  17.007  0.00  0.00    +0.047 C 
ATOM     15  C   UNL     1     -10.101  -7.760  17.085  0.00  0.00    +0.047 C 
ATOM     16  C   UNL     1     -11.864  -9.965  16.531  0.00  0.00    +0.161 C 
ATOM     17  C   UNL     1     -11.541  -7.617  16.604  0.00  0.00    +0.161 C 
ENDBRANCH   3  12
ENDBRANCH   7   3
BRANCH   6   9
ATOM      9  C   UNL     1      -4.473 -10.628  17.048  0.00  0.00    +0.063 C 
BRANCH   9  13
ATOM      2  O   UNL     1      -1.987 -10.566  14.432  0.00  0.00    -0.359 OA
ATOM      4  N   UNL     1      -2.367 -10.556  15.769  0.00  0.00    -0.083 NA
ATOM     13  C   UNL     1      -3.702 -10.616  15.750  0.00  0.00    +0.084 A 
ATOM     18  C   UNL     1      -4.215 -10.666  14.442  0.00  0.00    +0.071 A 
ATOM     19  C   UNL     1      -3.097 -10.631  13.652  0.00  0.00    +0.143 A 
BRANCH  19  20
ATOM     20  C   UNL     1      -2.877 -10.651  12.201  0.00  0.00    +0.023 C 
ATOM     21  C   UNL     1      -3.957  -9.913  11.324  0.00  0.00    +0.019 C 
ATOM     22  C   UNL     1      -1.518  -9.977  11.801  0.00  0.00    +0.019 C 
ATOM     23  C   UNL     1      -2.839 -12.113  11.631  0.00  0.00    +0.019 C 
ENDBRANCH  19  20
ENDBRANCH   9  13
ENDBRANCH   6   9
TORSDOF 5
ENDMDL
MODEL 5
REMARK VINA RESULT:      -5.9     20.850     22.759
REMARK  Name = 56774055
REMARK  10 active torsions:
REMARK  status: ('A' for Active; 'I' for Inactive)
REMARK    1  A    between atoms: N_3  and  C_7
REMARK    2  A    between atoms: N_3  and  C_12
REMARK    3  A    between atoms: C_5  and  C_10
REMARK    4  A    between atoms: C_5  and  C_11
REMARK    5  A    between atoms: C_6  and  C_9
REMARK    6  A    between atoms: C_9  and  C_13
REMARK    7  A    between atoms: C_19  and  C_20
REMARK    8  A    between atoms: C_20  and  C_21
REMARK    9  A    between atoms: C_20  and  C_22
REMARK   10  A    between atoms: C_20  and  C_23
REMARK                            x       y       z     vdW  Elec       q    Type
REMARK                         _______ _______ _______ _____ _____    ______ ____
ROOT
ATOM      5  C   UNL     1      -2.608 -11.206  14.072  0.00  0.00    -0.016 C 
ATOM      6  C   UNL     1      -3.230 -11.144  12.662  0.00  0.00    +0.004 C 
ATOM      7  C   UNL     1      -4.042 -11.082  14.628  0.00  0.00    +0.060 C 
ATOM      8  C   UNL     1      -4.413 -10.387  13.301  0.00  0.00    +0.023 C 
ATOM     10  C   UNL     1      -1.641 -10.077  14.365  0.00  0.00    +0.013 C 
ATOM     11  C   UNL     1      -1.960 -12.528  14.448  0.00  0.00    +0.013 C 
ENDROOT
BRANCH   7   3
ATOM      3  N   UNL     1      -4.108 -10.100  15.714  0.00  0.00    -0.310 NA
ATOM     24  H   UNL     1      -4.542  -9.214  15.456  0.00  0.00    +0.122 HD
BRANCH   3  12
ATOM      1  O   UNL     1      -5.663 -13.022  18.295  0.00  0.00    -0.380 OA
ATOM     12  C   UNL     1      -4.827 -10.680  16.845  0.00  0.00    +0.058 C 
ATOM     14  C   UNL     1      -3.879 -11.461  17.761  0.00  0.00    +0.047 C 
ATOM     15  C   UNL     1      -5.949 -11.597  16.348  0.00  0.00    +0.047 C 
ATOM     16  C   UNL     1      -4.666 -12.169  18.858  0.00  0.00    +0.161 C 
ATOM     17  C   UNL     1      -6.621 -12.298  17.523  0.00  0.00    +0.161 C 
ENDBRANCH   3  12
ENDBRANCH   7   3
BRANCH   6   9
ATOM      9  C   UNL     1      -2.477 -10.362  11.610  0.00  0.00    +0.063 C 
BRANCH   9  13
ATOM      2  O   UNL     1      -4.308  -9.211   8.721  0.00  0.00    -0.359 OA
ATOM      4  N   UNL     1      -3.504  -8.996   9.833  0.00  0.00    -0.083 NA
ATOM     13  C   UNL     1      -3.320 -10.207  10.367  0.00  0.00    +0.084 A 
ATOM     18  C   UNL     1      -3.978 -11.216   9.641  0.00  0.00    +0.071 A 
ATOM     19  C   UNL     1      -4.585 -10.537   8.618  0.00  0.00    +0.143 A 
BRANCH  19  20
ATOM     20  C   UNL     1      -5.430 -10.943   7.489  0.00  0.00    +0.023 C 
ATOM     21  C   UNL     1      -6.661 -11.861   7.838  0.00  0.00    +0.019 C 
ATOM     22  C   UNL     1      -6.057  -9.711   6.747  0.00  0.00    +0.019 C 
ATOM     23  C   UNL     1      -4.626 -11.755   6.414  0.00  0.00    +0.019 C 
ENDBRANCH  19  20
ENDBRANCH   9  13
ENDBRANCH   6   9
TORSDOF 5
ENDMDL
MODEL 6
REMARK VINA RESULT:      -5.8     19.242     21.631
REMARK  Name = 56774055
REMARK  10 active torsions:
REMARK  status: ('A' for Active; 'I' for Inactive)
REMARK    1  A    between atoms: N_3  and  C_7
REMARK    2  A    between atoms: N_3  and  C_12
REMARK    3  A    between atoms: C_5  and  C_10
REMARK    4  A    between atoms: C_5  and  C_11
REMARK    5  A    between atoms: C_6  and  C_9
REMARK    6  A    between atoms: C_9  and  C_13
REMARK    7  A    between atoms: C_19  and  C_20
REMARK    8  A    between atoms: C_20  and  C_21
REMARK    9  A    between atoms: C_20  and  C_22
REMARK   10  A    between atoms: C_20  and  C_23
REMARK                            x       y       z     vdW  Elec       q    Type
REMARK                         _______ _______ _______ _____ _____    ______ ____
ROOT
ATOM      5  C   UNL     1      -5.616 -12.161  16.725  0.00  0.00    -0.016 C 
ATOM      6  C   UNL     1      -4.710 -10.919  16.606  0.00  0.00    +0.004 C 
ATOM      7  C   UNL     1      -6.220 -11.505  17.984  0.00  0.00    +0.060 C 
ATOM      8  C   UNL     1      -4.891 -10.736  18.128  0.00  0.00    +0.023 C 
ATOM     10  C   UNL     1      -4.857 -13.459  16.904  0.00  0.00    +0.013 C 
ATOM     11  C   UNL     1      -6.645 -12.333  15.620  0.00  0.00    +0.013 C 
ENDROOT
BRANCH   7   3
ATOM      3  N   UNL     1      -6.333 -12.470  19.083  0.00  0.00    -0.310 NA
ATOM     24  H   UNL     1      -5.617 -12.374  19.803  0.00  0.00    +0.122 HD
BRANCH   3  12
ATOM      1  O   UNL     1     -10.501 -12.072  19.380  0.00  0.00    -0.380 OA
ATOM     12  C   UNL     1      -7.653 -12.350  19.695  0.00  0.00    +0.058 C 
ATOM     14  C   UNL     1      -8.554 -13.524  19.299  0.00  0.00    +0.047 C 
ATOM     15  C   UNL     1      -8.309 -11.026  19.291  0.00  0.00    +0.047 C 
ATOM     16  C   UNL     1      -9.965 -13.314  19.836  0.00  0.00    +0.161 C 
ATOM     17  C   UNL     1      -9.734 -10.954  19.829  0.00  0.00    +0.161 C 
ENDBRANCH   3  12
ENDBRANCH   7   3
BRANCH   6   9
ATOM      9  C   UNL     1      -3.282 -11.148  16.166  0.00  0.00    +0.063 C 
BRANCH   9  13
ATOM      2  O   UNL     1      -2.116 -10.312  12.854  0.00  0.00    -0.359 OA
ATOM      4  N   UNL     1      -1.905 -10.587  14.199  0.00  0.00    -0.083 NA
ATOM     13  C   UNL     1      -3.122 -10.810  14.703  0.00  0.00    +0.084 A 
ATOM     18  C   UNL     1      -4.132 -10.691  13.731  0.00  0.00    +0.071 A 
ATOM     19  C   UNL     1      -3.446 -10.376  12.587  0.00  0.00    +0.143 A 
BRANCH  19  20
ATOM     20  C   UNL     1      -3.850 -10.111  11.201  0.00  0.00    +0.023 C 
ATOM     21  C   UNL     1      -2.873  -9.213  10.353  0.00  0.00    +0.019 C 
ATOM     22  C   UNL     1      -3.996 -11.431  10.366  0.00  0.00    +0.019 C 
ATOM     23  C   UNL     1      -5.232  -9.372  11.122  0.00  0.00    +0.019 C 
ENDBRANCH  19  20
ENDBRANCH   9  13
ENDBRANCH   6   9
TORSDOF 5
ENDMDL
MODEL 7
REMARK VINA RESULT:      -5.8     18.804     19.821
REMARK  Name = 56774055
REMARK  10 active torsions:
REMARK  status: ('A' for Active; 'I' for Inactive)
REMARK    1  A    between atoms: N_3  and  C_7
REMARK    2  A    between atoms: N_3  and  C_12
REMARK    3  A    between atoms: C_5  and  C_10
REMARK    4  A    between atoms: C_5  and  C_11
REMARK    5  A    between atoms: C_6  and  C_9
REMARK    6  A    between atoms: C_9  and  C_13
REMARK    7  A    between atoms: C_19  and  C_20
REMARK    8  A    between atoms: C_20  and  C_21
REMARK    9  A    between atoms: C_20  and  C_22
REMARK   10  A    between atoms: C_20  and  C_23
REMARK                            x       y       z     vdW  Elec       q    Type
REMARK                         _______ _______ _______ _____ _____    ______ ____
ROOT
ATOM      5  C   UNL     1      -5.417 -10.986  16.452  0.00  0.00    -0.016 C 
ATOM      6  C   UNL     1      -5.226 -11.470  17.904  0.00  0.00    +0.004 C 
ATOM      7  C   UNL     1      -3.954 -11.404  16.201  0.00  0.00    +0.060 C 
ATOM      8  C   UNL     1      -3.718 -11.206  17.713  0.00  0.00    +0.023 C 
ATOM     10  C   UNL     1      -5.758  -9.515  16.336  0.00  0.00    +0.013 C 
ATOM     11  C   UNL     1      -6.395 -11.793  15.614  0.00  0.00    +0.013 C 
ENDROOT
BRANCH   7   3
ATOM      3  N   UNL     1      -3.224 -10.367  15.464  0.00  0.00    -0.310 NA
ATOM     24  H   UNL     1      -2.556  -9.842  16.028  0.00  0.00    +0.122 HD
BRANCH   3  12
ATOM      1  O   UNL     1      -2.609 -12.710  12.036  0.00  0.00    -0.380 OA
ATOM     12  C   UNL     1      -2.530 -10.978  14.334  0.00  0.00    +0.058 C 
ATOM     14  C   UNL     1      -3.159 -10.550  13.004  0.00  0.00    +0.047 C 
ATOM     15  C   UNL     1      -2.552 -12.504  14.457  0.00  0.00    +0.047 C 
ATOM     16  C   UNL     1      -2.510 -11.299  11.846  0.00  0.00    +0.161 C 
ATOM     17  C   UNL     1      -1.936 -13.145  13.218  0.00  0.00    +0.161 C 
ENDBRANCH   3  12
ENDBRANCH   7   3
BRANCH   6   9
ATOM      9  C   UNL     1      -5.875 -10.648  18.995  0.00  0.00    +0.063 C 
BRANCH   9  13
ATOM      2  O   UNL     1      -8.762 -12.493  20.128  0.00  0.00    -0.359 OA
ATOM      4  N   UNL     1      -7.391 -12.291  20.033  0.00  0.00    -0.083 NA
ATOM     13  C   UNL     1      -7.254 -11.180  19.304  0.00  0.00    +0.084 A 
ATOM     18  C   UNL     1      -8.493 -10.640  18.915  0.00  0.00    +0.071 A 
ATOM     19  C   UNL     1      -9.408 -11.503  19.458  0.00  0.00    +0.143 A 
BRANCH  19  20
ATOM     20  C   UNL     1     -10.874 -11.561  19.456  0.00  0.00    +0.023 C 
ATOM     21  C   UNL     1     -11.534 -12.488  20.545  0.00  0.00    +0.019 C 
ATOM     22  C   UNL     1     -11.522 -10.152  19.695  0.00  0.00    +0.019 C 
ATOM     23  C   UNL     1     -11.441 -12.092  18.092  0.00  0.00    +0.019 C 
ENDBRANCH  19  20
ENDBRANCH   9  13
ENDBRANCH   6   9
TORSDOF 5
ENDMDL
MODEL 8
REMARK VINA RESULT:      -5.8     18.973     20.036
REMARK  Name = 56774055
REMARK  10 active torsions:
REMARK  status: ('A' for Active; 'I' for Inactive)
REMARK    1  A    between atoms: N_3  and  C_7
REMARK    2  A    between atoms: N_3  and  C_12
REMARK    3  A    between atoms: C_5  and  C_10
REMARK    4  A    between atoms: C_5  and  C_11
REMARK    5  A    between atoms: C_6  and  C_9
REMARK    6  A    between atoms: C_9  and  C_13
REMARK    7  A    between atoms: C_19  and  C_20
REMARK    8  A    between atoms: C_20  and  C_21
REMARK    9  A    between atoms: C_20  and  C_22
REMARK   10  A    between atoms: C_20  and  C_23
REMARK                            x       y       z     vdW  Elec       q    Type
REMARK                         _______ _______ _______ _____ _____    ______ ____
ROOT
ATOM      5  C   UNL     1      -4.735 -11.339  16.396  0.00  0.00    -0.016 C 
ATOM      6  C   UNL     1      -5.759 -12.396  16.858  0.00  0.00    +0.004 C 
ATOM      7  C   UNL     1      -4.309 -12.341  15.303  0.00  0.00    +0.060 C 
ATOM      8  C   UNL     1      -4.832 -13.458  16.230  0.00  0.00    +0.023 C 
ATOM     10  C   UNL     1      -3.712 -10.974  17.452  0.00  0.00    +0.013 C 
ATOM     11  C   UNL     1      -5.322 -10.067  15.810  0.00  0.00    +0.013 C 
ENDROOT
BRANCH   7   3
ATOM      3  N   UNL     1      -2.849 -12.440  15.214  0.00  0.00    -0.310 NA
ATOM     24  H   UNL     1      -2.471 -13.349  15.483  0.00  0.00    +0.122 HD
BRANCH   3  12
ATOM      1  O   UNL     1      -2.901 -10.713  11.388  0.00  0.00    -0.380 OA
ATOM     12  C   UNL     1      -2.427 -12.125  13.852  0.00  0.00    +0.058 C 
ATOM     14  C   UNL     1      -2.140 -10.628  13.695  0.00  0.00    +0.047 C 
ATOM     15  C   UNL     1      -3.498 -12.562  12.848  0.00  0.00    +0.047 C 
ATOM     16  C   UNL     1      -1.832 -10.297  12.239  0.00  0.00    +0.161 C 
ATOM     17  C   UNL     1      -3.114 -12.124  11.438  0.00  0.00    +0.161 C 
ENDBRANCH   3  12
ENDBRANCH   7   3
BRANCH   6   9
ATOM      9  C   UNL     1      -5.969 -12.547  18.348  0.00  0.00    +0.063 C 
BRANCH   9  13
ATOM      2  O   UNL     1      -8.749 -11.042  20.089  0.00  0.00    -0.359 OA
ATOM      4  N   UNL     1      -7.498 -11.646  20.058  0.00  0.00    -0.083 NA
ATOM     13  C   UNL     1      -7.261 -11.888  18.766  0.00  0.00    +0.084 A 
ATOM     18  C   UNL     1      -8.318 -11.462  17.941  0.00  0.00    +0.071 A 
ATOM     19  C   UNL     1      -9.227 -10.938  18.821  0.00  0.00    +0.143 A 
BRANCH  19  20
ATOM     20  C   UNL     1     -10.549 -10.318  18.669  0.00  0.00    +0.023 C 
ATOM     21  C   UNL     1     -11.289  -9.922  20.001  0.00  0.00    +0.019 C 
ATOM     22  C   UNL     1     -10.483  -8.985  17.844  0.00  0.00    +0.019 C 
ATOM     23  C   UNL     1     -11.558 -11.260  17.922  0.00  0.00    +0.019 C 
ENDBRANCH  19  20
ENDBRANCH   9  13
ENDBRANCH   6   9
TORSDOF 5
ENDMDL
MODEL 9
REMARK VINA RESULT:      -5.6     28.143     31.742
REMARK  Name = 56774055
REMARK  10 active torsions:
REMARK  status: ('A' for Active; 'I' for Inactive)
REMARK    1  A    between atoms: N_3  and  C_7
REMARK    2  A    between atoms: N_3  and  C_12
REMARK    3  A    between atoms: C_5  and  C_10
REMARK    4  A    between atoms: C_5  and  C_11
REMARK    5  A    between atoms: C_6  and  C_9
REMARK    6  A    between atoms: C_9  and  C_13
REMARK    7  A    between atoms: C_19  and  C_20
REMARK    8  A    between atoms: C_20  and  C_21
REMARK    9  A    between atoms: C_20  and  C_22
REMARK   10  A    between atoms: C_20  and  C_23
REMARK                            x       y       z     vdW  Elec       q    Type
REMARK                         _______ _______ _______ _____ _____    ______ ____
ROOT
ATOM      5  C   UNL     1       9.761   6.049   4.949  0.00  0.00    -0.016 C 
ATOM      6  C   UNL     1      10.413   5.782   3.576  0.00  0.00    +0.004 C 
ATOM      7  C   UNL     1      10.735   7.236   5.095  0.00  0.00    +0.060 C 
ATOM      8  C   UNL     1      11.671   6.490   4.122  0.00  0.00    +0.023 C 
ATOM     10  C   UNL     1       9.901   4.901   5.926  0.00  0.00    +0.013 C 
ATOM     11  C   UNL     1       8.311   6.499   4.912  0.00  0.00    +0.013 C 
ENDROOT
BRANCH   7   3
ATOM      3  N   UNL     1      11.350   7.257   6.426  0.00  0.00    -0.310 NA
ATOM     24  H   UNL     1      12.348   7.048   6.432  0.00  0.00    +0.122 HD
BRANCH   3  12
ATOM      1  O   UNL     1       9.523  10.945   7.251  0.00  0.00    -0.380 OA
ATOM     12  C   UNL     1      11.125   8.563   7.040  0.00  0.00    +0.058 C 
ATOM     14  C   UNL     1       9.797   8.594   7.802  0.00  0.00    +0.047 C 
ATOM     15  C   UNL     1      11.144   9.663   5.973  0.00  0.00    +0.047 C 
ATOM     16  C   UNL     1       9.516  10.000   8.321  0.00  0.00    +0.161 C 
ATOM     17  C   UNL     1      10.789  11.010   6.594  0.00  0.00    +0.161 C 
ENDBRANCH   3  12
ENDBRANCH   7   3
BRANCH   6   9
ATOM      9  C   UNL     1      10.624   4.338   3.183  0.00  0.00    +0.063 C 
BRANCH   9  13
ATOM      2  O   UNL     1      10.227   4.227  -0.403  0.00  0.00    -0.359 OA
ATOM      4  N   UNL     1       9.734   4.401   0.885  0.00  0.00    -0.083 NA
ATOM     13  C   UNL     1      10.788   4.220   1.686  0.00  0.00    +0.084 A 
ATOM     18  C   UNL     1      11.962   3.932   0.967  0.00  0.00    +0.071 A 
ATOM     19  C   UNL     1      11.554   3.948  -0.340  0.00  0.00    +0.143 A 
BRANCH  19  20
ATOM     20  C   UNL     1      12.239   3.734  -1.621  0.00  0.00    +0.023 C 
ATOM     21  C   UNL     1      12.092   2.302  -2.258  0.00  0.00    +0.019 C 
ATOM     22  C   UNL     1      11.728   4.714  -2.734  0.00  0.00    +0.019 C 
ATOM     23  C   UNL     1      13.789   3.955  -1.503  0.00  0.00    +0.019 C 
ENDBRANCH  19  20
ENDBRANCH   9  13
ENDBRANCH   6   9
TORSDOF 5
ENDMDL
MODEL 10
REMARK VINA RESULT:      -5.6     17.943     19.252
REMARK  Name = 56774055
REMARK  10 active torsions:
REMARK  status: ('A' for Active; 'I' for Inactive)
REMARK    1  A    between atoms: N_3  and  C_7
REMARK    2  A    between atoms: N_3  and  C_12
REMARK    3  A    between atoms: C_5  and  C_10
REMARK    4  A    between atoms: C_5  and  C_11
REMARK    5  A    between atoms: C_6  and  C_9
REMARK    6  A    between atoms: C_9  and  C_13
REMARK    7  A    between atoms: C_19  and  C_20
REMARK    8  A    between atoms: C_20  and  C_21
REMARK    9  A    between atoms: C_20  and  C_22
REMARK   10  A    between atoms: C_20  and  C_23
REMARK                            x       y       z     vdW  Elec       q    Type
REMARK                         _______ _______ _______ _____ _____    ______ ____
ROOT
ATOM      5  C   UNL     1      -6.121 -11.249  17.686  0.00  0.00    -0.016 C 
ATOM      6  C   UNL     1      -7.071 -12.434  17.953  0.00  0.00    +0.004 C 
ATOM      7  C   UNL     1      -5.444 -12.131  16.617  0.00  0.00    +0.060 C 
ATOM      8  C   UNL     1      -5.955 -13.352  17.411  0.00  0.00    +0.023 C 
ATOM     10  C   UNL     1      -5.295 -10.843  18.888  0.00  0.00    +0.013 C 
ATOM     11  C   UNL     1      -6.766 -10.012  17.083  0.00  0.00    +0.013 C 
ENDROOT
BRANCH   7   3
ATOM      3  N   UNL     1      -3.984 -12.070  16.725  0.00  0.00    -0.310 NA
ATOM     24  H   UNL     1      -3.560 -12.884  17.170  0.00  0.00    +0.122 HD
BRANCH   3  12
ATOM      1  O   UNL     1      -3.087 -10.258  13.046  0.00  0.00    -0.380 OA
ATOM     12  C   UNL     1      -3.409 -11.892  15.394  0.00  0.00    +0.058 C 
ATOM     14  C   UNL     1      -2.467 -10.685  15.357  0.00  0.00    +0.047 C 
ATOM     15  C   UNL     1      -4.520 -11.723  14.353  0.00  0.00    +0.047 C 
ATOM     16  C   UNL     1      -1.982 -10.435  13.933  0.00  0.00    +0.161 C 
ATOM     17  C   UNL     1      -3.922 -11.415  12.985  0.00  0.00    +0.161 C 
ENDBRANCH   3  12
ENDBRANCH   7   3
BRANCH   6   9
ATOM      9  C   UNL     1      -7.457 -12.697  19.392  0.00  0.00    +0.063 C 
BRANCH   9  13
ATOM      2  O   UNL     1     -10.097 -10.405  20.290  0.00  0.00    -0.359 OA
ATOM      4  N   UNL     1      -8.762 -10.715  20.061  0.00  0.00    -0.083 NA
ATOM     13  C   UNL     1      -8.760 -12.007  19.720  0.00  0.00    +0.084 A 
ATOM     18  C   UNL     1     -10.053 -12.560  19.717  0.00  0.00    +0.071 A 
ATOM     19  C   UNL     1     -10.856 -11.512  20.082  0.00  0.00    +0.143 A 
BRANCH  19  20
ATOM     20  C   UNL     1     -12.302 -11.361  20.281  0.00  0.00    +0.023 C 
ATOM     21  C   UNL     1     -12.952 -12.281  21.381  0.00  0.00    +0.019 C 
ATOM     22  C   UNL     1     -12.690  -9.902  20.708  0.00  0.00    +0.019 C 
ATOM     23  C   UNL     1     -13.112 -11.679  18.974  0.00  0.00    +0.019 C 
ENDBRANCH  19  20
ENDBRANCH   9  13
ENDBRANCH   6   9
TORSDOF 5
ENDMDL
