MODEL 1
REMARK VINA RESULT:      -5.8      0.000      0.000
REMARK  Name = 75536572
REMARK  9 active torsions:
REMARK  status: ('A' for Active; 'I' for Inactive)
REMARK    1  A    between atoms: O_2  and  C_8
REMARK    2  A    between atoms: O_4  and  C_15
REMARK    3  A    between atoms: O_4  and  C_16
REMARK    4  A    between atoms: N_5  and  C_7
REMARK    5  A    between atoms: N_5  and  C_12
REMARK    6  A    between atoms: N_5  and  C_13
REMARK    7  A    between atoms: N_6  and  C_11
REMARK    8  A    between atoms: C_9  and  C_11
REMARK    9  A    between atoms: C_14  and  C_15
REMARK                            x       y       z     vdW  Elec       q    Type
REMARK                         _______ _______ _______ _____ _____    ______ ____
ROOT
ATOM      1  O   UNL     1      -1.576   2.110  23.031  0.00  0.00    -0.371 OA
ATOM      7  C   UNL     1      -3.521   2.942  24.111  0.00  0.00    +0.113 C 
ATOM      8  C   UNL     1      -2.437   2.715  25.149  0.00  0.00    +0.164 C 
ATOM      9  C   UNL     1      -1.190   2.716  24.275  0.00  0.00    +0.165 C 
ATOM     10  C   UNL     1      -3.013   2.096  22.955  0.00  0.00    +0.181 C 
ENDROOT
BRANCH   7   5
ATOM      5  N   UNL     1      -4.848   2.551  24.559  0.00  0.00    -0.301 NA
ATOM     12  C   UNL     1      -4.829   1.200  25.126  0.00  0.00    +0.105 C 
ATOM     13  C   UNL     1      -5.368   3.503  25.544  0.00  0.00    +0.105 C 
ENDBRANCH   7   5
BRANCH   8   2
ATOM      2  O   UNL     1      -2.397   3.736  26.128  0.00  0.00    -0.388 OA
ATOM     17  H   UNL     1      -2.524   4.590  25.683  0.00  0.00    +0.210 HD
ENDBRANCH   8   2
BRANCH   9  11
ATOM     11  C   UNL     1      -0.031   1.947  24.883  0.00  0.00    +0.138 C 
BRANCH  11   6
ATOM      3  O   UNL     1       0.247  -0.583  23.508  0.00  0.00    -0.273 OA
ATOM      6  N   UNL     1      -0.449   0.657  25.351  0.00  0.00    -0.311 N 
ATOM     14  C   UNL     1      -0.275  -0.514  24.617  0.00  0.00    +0.239 C 
ATOM     18  H   UNL     1      -0.905   0.606  26.257  0.00  0.00    +0.149 HD
BRANCH  14  15
ATOM     15  C   UNL     1      -0.807  -1.727  25.349  0.00  0.00    +0.255 C 
BRANCH  15   4
ATOM      4  O   UNL     1      -1.649  -2.486  24.509  0.00  0.00    -0.374 OA
ATOM     16  C   UNL     1      -3.010  -2.080  24.613  0.00  0.00    +0.194 C 
ENDBRANCH  15   4
ENDBRANCH  14  15
ENDBRANCH  11   6
ENDBRANCH   9  11
TORSDOF 6
ENDMDL
MODEL 2
REMARK VINA RESULT:      -5.4     16.737     19.066
REMARK  Name = 75536572
REMARK  9 active torsions:
REMARK  status: ('A' for Active; 'I' for Inactive)
REMARK    1  A    between atoms: O_2  and  C_8
REMARK    2  A    between atoms: O_4  and  C_15
REMARK    3  A    between atoms: O_4  and  C_16
REMARK    4  A    between atoms: N_5  and  C_7
REMARK    5  A    between atoms: N_5  and  C_12
REMARK    6  A    between atoms: N_5  and  C_13
REMARK    7  A    between atoms: N_6  and  C_11
REMARK    8  A    between atoms: C_9  and  C_11
REMARK    9  A    between atoms: C_14  and  C_15
REMARK                            x       y       z     vdW  Elec       q    Type
REMARK                         _______ _______ _______ _____ _____    ______ ____
ROOT
ATOM      1  O   UNL     1      15.953   6.138  19.032  0.00  0.00    -0.371 OA
ATOM      7  C   UNL     1      17.105   6.562  21.066  0.00  0.00    +0.113 C 
ATOM      8  C   UNL     1      15.721   7.182  21.142  0.00  0.00    +0.164 C 
ATOM      9  C   UNL     1      14.988   6.393  20.066  0.00  0.00    +0.165 C 
ATOM     10  C   UNL     1      17.268   6.373  19.567  0.00  0.00    +0.181 C 
ENDROOT
BRANCH   7   5
ATOM      5  N   UNL     1      18.148   7.391  21.649  0.00  0.00    -0.301 NA
ATOM     12  C   UNL     1      19.472   6.963  21.187  0.00  0.00    +0.105 C 
ATOM     13  C   UNL     1      17.934   8.804  21.324  0.00  0.00    +0.105 C 
ENDBRANCH   7   5
BRANCH   8   2
ATOM      2  O   UNL     1      15.122   7.024  22.414  0.00  0.00    -0.388 OA
ATOM     17  H   UNL     1      15.304   6.122  22.727  0.00  0.00    +0.210 HD
ENDBRANCH   8   2
BRANCH   9  11
ATOM     11  C   UNL     1      13.798   7.135  19.485  0.00  0.00    +0.138 C 
BRANCH  11   6
ATOM      3  O   UNL     1      11.351   6.011  20.545  0.00  0.00    -0.273 OA
ATOM      6  N   UNL     1      12.970   7.684  20.520  0.00  0.00    -0.311 N 
ATOM     14  C   UNL     1      11.803   7.071  20.970  0.00  0.00    +0.239 C 
ATOM     18  H   UNL     1      13.250   8.569  20.932  0.00  0.00    +0.149 HD
BRANCH  14  15
ATOM     15  C   UNL     1      11.130   7.867  22.068  0.00  0.00    +0.255 C 
BRANCH  15   4
ATOM      4  O   UNL     1      11.916   8.982  22.428  0.00  0.00    -0.374 OA
ATOM     16  C   UNL     1      11.115  10.101  22.798  0.00  0.00    +0.194 C 
ENDBRANCH  15   4
ENDBRANCH  14  15
ENDBRANCH  11   6
ENDBRANCH   9  11
TORSDOF 6
ENDMDL
MODEL 3
REMARK VINA RESULT:      -5.3      1.881      2.780
REMARK  Name = 75536572
REMARK  9 active torsions:
REMARK  status: ('A' for Active; 'I' for Inactive)
REMARK    1  A    between atoms: O_2  and  C_8
REMARK    2  A    between atoms: O_4  and  C_15
REMARK    3  A    between atoms: O_4  and  C_16
REMARK    4  A    between atoms: N_5  and  C_7
REMARK    5  A    between atoms: N_5  and  C_12
REMARK    6  A    between atoms: N_5  and  C_13
REMARK    7  A    between atoms: N_6  and  C_11
REMARK    8  A    between atoms: C_9  and  C_11
REMARK    9  A    between atoms: C_14  and  C_15
REMARK                            x       y       z     vdW  Elec       q    Type
REMARK                         _______ _______ _______ _____ _____    ______ ____
ROOT
ATOM      1  O   UNL     1      -1.148   1.169  23.224  0.00  0.00    -0.371 OA
ATOM      7  C   UNL     1      -0.954   3.078  24.624  0.00  0.00    +0.113 C 
ATOM      8  C   UNL     1      -0.400   1.869  25.356  0.00  0.00    +0.164 C 
ATOM      9  C   UNL     1      -0.115   0.929  24.193  0.00  0.00    +0.165 C 
ATOM     10  C   UNL     1      -1.790   2.417  23.540  0.00  0.00    +0.181 C 
ENDROOT
BRANCH   7   5
ATOM      5  N   UNL     1      -1.729   3.970  25.471  0.00  0.00    -0.301 NA
ATOM     12  C   UNL     1      -1.489   5.370  25.110  0.00  0.00    +0.105 C 
ATOM     13  C   UNL     1      -3.159   3.664  25.380  0.00  0.00    +0.105 C 
ENDBRANCH   7   5
BRANCH   8   2
ATOM      2  O   UNL     1       0.769   2.167  26.095  0.00  0.00    -0.388 OA
ATOM     17  H   UNL     1       1.216   2.917  25.668  0.00  0.00    +0.210 HD
ENDBRANCH   8   2
BRANCH   9  11
ATOM     11  C   UNL     1      -0.117  -0.536  24.593  0.00  0.00    +0.138 C 
BRANCH  11   6
ATOM      3  O   UNL     1      -1.809  -2.749  23.812  0.00  0.00    -0.273 OA
ATOM      6  N   UNL     1      -1.371  -0.915  25.178  0.00  0.00    -0.311 N 
ATOM     14  C   UNL     1      -2.122  -2.001  24.735  0.00  0.00    +0.239 C 
ATOM     18  H   UNL     1      -1.727  -0.352  25.944  0.00  0.00    +0.149 HD
BRANCH  14  15
ATOM     15  C   UNL     1      -3.398  -2.171  25.530  0.00  0.00    +0.255 C 
BRANCH  15   4
ATOM      4  O   UNL     1      -3.996  -0.919  25.788  0.00  0.00    -0.374 OA
ATOM     16  C   UNL     1      -4.321  -0.227  24.587  0.00  0.00    +0.194 C 
ENDBRANCH  15   4
ENDBRANCH  14  15
ENDBRANCH  11   6
ENDBRANCH   9  11
TORSDOF 6
ENDMDL
MODEL 4
REMARK VINA RESULT:      -5.3      1.870      4.625
REMARK  Name = 75536572
REMARK  9 active torsions:
REMARK  status: ('A' for Active; 'I' for Inactive)
REMARK    1  A    between atoms: O_2  and  C_8
REMARK    2  A    between atoms: O_4  and  C_15
REMARK    3  A    between atoms: O_4  and  C_16
REMARK    4  A    between atoms: N_5  and  C_7
REMARK    5  A    between atoms: N_5  and  C_12
REMARK    6  A    between atoms: N_5  and  C_13
REMARK    7  A    between atoms: N_6  and  C_11
REMARK    8  A    between atoms: C_9  and  C_11
REMARK    9  A    between atoms: C_14  and  C_15
REMARK                            x       y       z     vdW  Elec       q    Type
REMARK                         _______ _______ _______ _____ _____    ______ ____
ROOT
ATOM      1  O   UNL     1       0.065  -0.133  24.567  0.00  0.00    -0.371 OA
ATOM      7  C   UNL     1      -2.019  -1.208  24.185  0.00  0.00    +0.113 C 
ATOM      8  C   UNL     1      -2.251   0.286  24.324  0.00  0.00    +0.164 C 
ATOM      9  C   UNL     1      -0.859   0.827  24.027  0.00  0.00    +0.165 C 
ATOM     10  C   UNL     1      -0.645  -1.359  24.817  0.00  0.00    +0.181 C 
ENDROOT
BRANCH   7   5
ATOM      5  N   UNL     1      -3.034  -2.019  24.838  0.00  0.00    -0.301 NA
ATOM     12  C   UNL     1      -3.556  -1.342  26.029  0.00  0.00    +0.105 C 
ATOM     13  C   UNL     1      -4.130  -2.326  23.914  0.00  0.00    +0.105 C 
ENDBRANCH   7   5
BRANCH   8   2
ATOM      2  O   UNL     1      -3.214   0.776  23.411  0.00  0.00    -0.388 OA
ATOM     17  H   UNL     1      -4.061   0.336  23.597  0.00  0.00    +0.210 HD
ENDBRANCH   8   2
BRANCH   9  11
ATOM     11  C   UNL     1      -0.601   2.190  24.643  0.00  0.00    +0.138 C 
BRANCH  11   6
ATOM      3  O   UNL     1      -1.287   4.961  25.118  0.00  0.00    -0.273 OA
ATOM      6  N   UNL     1      -1.770   2.692  25.306  0.00  0.00    -0.311 N 
ATOM     14  C   UNL     1      -2.020   4.049  25.492  0.00  0.00    +0.239 C 
ATOM     18  H   UNL     1      -2.438   2.016  25.666  0.00  0.00    +0.149 HD
BRANCH  14  15
ATOM     15  C   UNL     1      -3.324   4.293  26.219  0.00  0.00    +0.255 C 
BRANCH  15   4
ATOM      4  O   UNL     1      -4.423   4.050  25.367  0.00  0.00    -0.374 OA
ATOM     16  C   UNL     1      -5.240   2.984  25.842  0.00  0.00    +0.194 C 
ENDBRANCH  15   4
ENDBRANCH  14  15
ENDBRANCH  11   6
ENDBRANCH   9  11
TORSDOF 6
ENDMDL
MODEL 5
REMARK VINA RESULT:      -5.1     15.511     17.783
REMARK  Name = 75536572
REMARK  9 active torsions:
REMARK  status: ('A' for Active; 'I' for Inactive)
REMARK    1  A    between atoms: O_2  and  C_8
REMARK    2  A    between atoms: O_4  and  C_15
REMARK    3  A    between atoms: O_4  and  C_16
REMARK    4  A    between atoms: N_5  and  C_7
REMARK    5  A    between atoms: N_5  and  C_12
REMARK    6  A    between atoms: N_5  and  C_13
REMARK    7  A    between atoms: N_6  and  C_11
REMARK    8  A    between atoms: C_9  and  C_11
REMARK    9  A    between atoms: C_14  and  C_15
REMARK                            x       y       z     vdW  Elec       q    Type
REMARK                         _______ _______ _______ _____ _____    ______ ____
ROOT
ATOM      1  O   UNL     1      10.614   8.459  19.820  0.00  0.00    -0.371 OA
ATOM      7  C   UNL     1      12.602   7.316  19.198  0.00  0.00    +0.113 C 
ATOM      8  C   UNL     1      12.526   7.388  20.712  0.00  0.00    +0.164 C 
ATOM      9  C   UNL     1      11.037   7.635  20.918  0.00  0.00    +0.165 C 
ATOM     10  C   UNL     1      11.622   8.406  18.795  0.00  0.00    +0.181 C 
ENDROOT
BRANCH   7   5
ATOM      5  N   UNL     1      13.939   7.534  18.670  0.00  0.00    -0.301 NA
ATOM     12  C   UNL     1      13.899   7.745  17.220  0.00  0.00    +0.105 C 
ATOM     13  C   UNL     1      14.580   8.676  19.328  0.00  0.00    +0.105 C 
ENDBRANCH   7   5
BRANCH   8   2
ATOM      2  O   UNL     1      12.955   6.195  21.337  0.00  0.00    -0.388 OA
ATOM     17  H   UNL     1      13.907   6.090  21.173  0.00  0.00    +0.210 HD
ENDBRANCH   8   2
BRANCH   9  11
ATOM     11  C   UNL     1      10.721   8.328  22.232  0.00  0.00    +0.138 C 
BRANCH  11   6
ATOM      3  O   UNL     1      11.054  11.197  22.060  0.00  0.00    -0.273 OA
ATOM      6  N   UNL     1      11.838   9.100  22.696  0.00  0.00    -0.311 N 
ATOM     14  C   UNL     1      11.914  10.484  22.571  0.00  0.00    +0.239 C 
ATOM     18  H   UNL     1      12.612   8.602  23.126  0.00  0.00    +0.149 HD
BRANCH  14  15
ATOM     15  C   UNL     1      13.200  11.037  23.147  0.00  0.00    +0.255 C 
BRANCH  15   4
ATOM      4  O   UNL     1      13.357  12.396  22.801  0.00  0.00    -0.374 OA
ATOM     16  C   UNL     1      13.299  13.246  23.943  0.00  0.00    +0.194 C 
ENDBRANCH  15   4
ENDBRANCH  14  15
ENDBRANCH  11   6
ENDBRANCH   9  11
TORSDOF 6
ENDMDL
MODEL 6
REMARK VINA RESULT:      -5.0      2.056      3.123
REMARK  Name = 75536572
REMARK  9 active torsions:
REMARK  status: ('A' for Active; 'I' for Inactive)
REMARK    1  A    between atoms: O_2  and  C_8
REMARK    2  A    between atoms: O_4  and  C_15
REMARK    3  A    between atoms: O_4  and  C_16
REMARK    4  A    between atoms: N_5  and  C_7
REMARK    5  A    between atoms: N_5  and  C_12
REMARK    6  A    between atoms: N_5  and  C_13
REMARK    7  A    between atoms: N_6  and  C_11
REMARK    8  A    between atoms: C_9  and  C_11
REMARK    9  A    between atoms: C_14  and  C_15
REMARK                            x       y       z     vdW  Elec       q    Type
REMARK                         _______ _______ _______ _____ _____    ______ ____
ROOT
ATOM      1  O   UNL     1      -1.918   1.286  23.654  0.00  0.00    -0.371 OA
ATOM      7  C   UNL     1      -3.532   2.755  24.590  0.00  0.00    +0.113 C 
ATOM      8  C   UNL     1      -2.246   2.860  25.389  0.00  0.00    +0.164 C 
ATOM      9  C   UNL     1      -1.236   2.315  24.389  0.00  0.00    +0.165 C 
ATOM     10  C   UNL     1      -3.333   1.432  23.869  0.00  0.00    +0.181 C 
ENDROOT
BRANCH   7   5
ATOM      5  N   UNL     1      -4.733   2.777  25.410  0.00  0.00    -0.301 NA
ATOM     12  C   UNL     1      -5.347   4.108  25.398  0.00  0.00    +0.105 C 
ATOM     13  C   UNL     1      -5.697   1.773  24.951  0.00  0.00    +0.105 C 
ENDBRANCH   7   5
BRANCH   8   2
ATOM      2  O   UNL     1      -1.948   4.189  25.772  0.00  0.00    -0.388 OA
ATOM     17  H   UNL     1      -2.373   4.791  25.138  0.00  0.00    +0.210 HD
ENDBRANCH   8   2
BRANCH   9  11
ATOM     11  C   UNL     1       0.007   1.740  25.045  0.00  0.00    +0.138 C 
BRANCH  11   6
ATOM      3  O   UNL     1       0.511  -0.710  23.591  0.00  0.00    -0.273 OA
ATOM      6  N   UNL     1       1.043   1.502  24.082  0.00  0.00    -0.311 N 
ATOM     14  C   UNL     1       1.212   0.285  23.428  0.00  0.00    +0.239 C 
ATOM     18  H   UNL     1       1.688   2.262  23.882  0.00  0.00    +0.149 HD
BRANCH  14  15
ATOM     15  C   UNL     1       2.380   0.315  22.465  0.00  0.00    +0.255 C 
BRANCH  15   4
ATOM      4  O   UNL     1       3.420   1.126  22.968  0.00  0.00    -0.374 OA
ATOM     16  C   UNL     1       4.630   0.394  23.139  0.00  0.00    +0.194 C 
ENDBRANCH  15   4
ENDBRANCH  14  15
ENDBRANCH  11   6
ENDBRANCH   9  11
TORSDOF 6
ENDMDL
MODEL 7
REMARK VINA RESULT:      -4.9     15.893     17.932
REMARK  Name = 75536572
REMARK  9 active torsions:
REMARK  status: ('A' for Active; 'I' for Inactive)
REMARK    1  A    between atoms: O_2  and  C_8
REMARK    2  A    between atoms: O_4  and  C_15
REMARK    3  A    between atoms: O_4  and  C_16
REMARK    4  A    between atoms: N_5  and  C_7
REMARK    5  A    between atoms: N_5  and  C_12
REMARK    6  A    between atoms: N_5  and  C_13
REMARK    7  A    between atoms: N_6  and  C_11
REMARK    8  A    between atoms: C_9  and  C_11
REMARK    9  A    between atoms: C_14  and  C_15
REMARK                            x       y       z     vdW  Elec       q    Type
REMARK                         _______ _______ _______ _____ _____    ______ ____
ROOT
ATOM      1  O   UNL     1      12.872   8.444  18.791  0.00  0.00    -0.371 OA
ATOM      7  C   UNL     1      14.194   6.825  19.919  0.00  0.00    +0.113 C 
ATOM      8  C   UNL     1      12.930   7.077  20.721  0.00  0.00    +0.164 C 
ATOM      9  C   UNL     1      12.021   7.671  19.653  0.00  0.00    +0.165 C 
ATOM     10  C   UNL     1      14.237   8.056  19.028  0.00  0.00    +0.181 C 
ENDROOT
BRANCH   7   5
ATOM      5  N   UNL     1      15.386   6.679  20.740  0.00  0.00    -0.301 NA
ATOM     12  C   UNL     1      16.578   6.515  19.903  0.00  0.00    +0.105 C 
ATOM     13  C   UNL     1      15.550   7.832  21.630  0.00  0.00    +0.105 C 
ENDBRANCH   7   5
BRANCH   8   2
ATOM      2  O   UNL     1      12.390   5.893  21.276  0.00  0.00    -0.388 OA
ATOM     17  H   UNL     1      13.097   5.228  21.321  0.00  0.00    +0.210 HD
ENDBRANCH   8   2
BRANCH   9  11
ATOM     11  C   UNL     1      10.927   8.557  20.223  0.00  0.00    +0.138 C 
BRANCH  11   6
ATOM      3  O   UNL     1      12.036  11.173  20.768  0.00  0.00    -0.273 OA
ATOM      6  N   UNL     1      11.301   9.090  21.501  0.00  0.00    -0.311 N 
ATOM     14  C   UNL     1      11.830  10.366  21.671  0.00  0.00    +0.239 C 
ATOM     18  H   UNL     1      11.180   8.495  22.316  0.00  0.00    +0.149 HD
BRANCH  14  15
ATOM     15  C   UNL     1      12.132  10.668  23.123  0.00  0.00    +0.255 C 
BRANCH  15   4
ATOM      4  O   UNL     1      10.941  10.720  23.879  0.00  0.00    -0.374 OA
ATOM     16  C   UNL     1      10.938  11.813  24.793  0.00  0.00    +0.194 C 
ENDBRANCH  15   4
ENDBRANCH  14  15
ENDBRANCH  11   6
ENDBRANCH   9  11
TORSDOF 6
ENDMDL
MODEL 8
REMARK VINA RESULT:      -4.9     16.474     18.410
REMARK  Name = 75536572
REMARK  9 active torsions:
REMARK  status: ('A' for Active; 'I' for Inactive)
REMARK    1  A    between atoms: O_2  and  C_8
REMARK    2  A    between atoms: O_4  and  C_15
REMARK    3  A    between atoms: O_4  and  C_16
REMARK    4  A    between atoms: N_5  and  C_7
REMARK    5  A    between atoms: N_5  and  C_12
REMARK    6  A    between atoms: N_5  and  C_13
REMARK    7  A    between atoms: N_6  and  C_11
REMARK    8  A    between atoms: C_9  and  C_11
REMARK    9  A    between atoms: C_14  and  C_15
REMARK                            x       y       z     vdW  Elec       q    Type
REMARK                         _______ _______ _______ _____ _____    ______ ____
ROOT
ATOM      1  O   UNL     1      11.870   8.981  20.790  0.00  0.00    -0.371 OA
ATOM      7  C   UNL     1      12.146   9.188  18.440  0.00  0.00    +0.113 C 
ATOM      8  C   UNL     1      12.502   7.773  18.857  0.00  0.00    +0.164 C 
ATOM      9  C   UNL     1      11.786   7.675  20.198  0.00  0.00    +0.165 C 
ATOM     10  C   UNL     1      12.234   9.925  19.767  0.00  0.00    +0.181 C 
ENDROOT
BRANCH   7   5
ATOM      5  N   UNL     1      13.033   9.738  17.427  0.00  0.00    -0.301 NA
ATOM     12  C   UNL     1      14.392   9.212  17.584  0.00  0.00    +0.105 C 
ATOM     13  C   UNL     1      12.532   9.446  16.081  0.00  0.00    +0.105 C 
ENDBRANCH   7   5
BRANCH   8   2
ATOM      2  O   UNL     1      12.041   6.801  17.939  0.00  0.00    -0.388 OA
ATOM     17  H   UNL     1      11.131   7.029  17.685  0.00  0.00    +0.210 HD
ENDBRANCH   8   2
BRANCH   9  11
ATOM     11  C   UNL     1      12.402   6.647  21.131  0.00  0.00    +0.138 C 
BRANCH  11   6
ATOM      3  O   UNL     1      14.729   7.924  22.282  0.00  0.00    -0.273 OA
ATOM      6  N   UNL     1      13.776   6.401  20.802  0.00  0.00    -0.311 N 
ATOM     14  C   UNL     1      14.837   7.066  21.410  0.00  0.00    +0.239 C 
ATOM     18  H   UNL     1      13.975   5.713  20.081  0.00  0.00    +0.149 HD
BRANCH  14  15
ATOM     15  C   UNL     1      16.177   6.609  20.873  0.00  0.00    +0.255 C 
BRANCH  15   4
ATOM      4  O   UNL     1      17.086   7.687  20.818  0.00  0.00    -0.374 OA
ATOM     16  C   UNL     1      18.359   7.337  21.353  0.00  0.00    +0.194 C 
ENDBRANCH  15   4
ENDBRANCH  14  15
ENDBRANCH  11   6
ENDBRANCH   9  11
TORSDOF 6
ENDMDL
MODEL 9
REMARK VINA RESULT:      -4.9     15.841     17.841
REMARK  Name = 75536572
REMARK  9 active torsions:
REMARK  status: ('A' for Active; 'I' for Inactive)
REMARK    1  A    between atoms: O_2  and  C_8
REMARK    2  A    between atoms: O_4  and  C_15
REMARK    3  A    between atoms: O_4  and  C_16
REMARK    4  A    between atoms: N_5  and  C_7
REMARK    5  A    between atoms: N_5  and  C_12
REMARK    6  A    between atoms: N_5  and  C_13
REMARK    7  A    between atoms: N_6  and  C_11
REMARK    8  A    between atoms: C_9  and  C_11
REMARK    9  A    between atoms: C_14  and  C_15
REMARK                            x       y       z     vdW  Elec       q    Type
REMARK                         _______ _______ _______ _____ _____    ______ ____
ROOT
ATOM      1  O   UNL     1      11.596   7.436  18.980  0.00  0.00    -0.371 OA
ATOM      7  C   UNL     1      13.533   7.910  17.691  0.00  0.00    +0.113 C 
ATOM      8  C   UNL     1      13.955   7.558  19.106  0.00  0.00    +0.164 C 
ATOM      9  C   UNL     1      12.728   6.801  19.596  0.00  0.00    +0.165 C 
ATOM     10  C   UNL     1      12.065   8.247  17.889  0.00  0.00    +0.181 C 
ENDROOT
BRANCH   7   5
ATOM      5  N   UNL     1      14.293   9.006  17.111  0.00  0.00    -0.301 NA
ATOM     12  C   UNL     1      13.725   9.409  15.822  0.00  0.00    +0.105 C 
ATOM     13  C   UNL     1      14.333  10.152  18.024  0.00  0.00    +0.105 C 
ENDBRANCH   7   5
BRANCH   8   2
ATOM      2  O   UNL     1      15.120   6.757  19.145  0.00  0.00    -0.388 OA
ATOM     17  H   UNL     1      14.956   6.009  19.742  0.00  0.00    +0.210 HD
ENDBRANCH   8   2
BRANCH   9  11
ATOM     11  C   UNL     1      12.572   6.827  21.107  0.00  0.00    +0.138 C 
BRANCH  11   6
ATOM      3  O   UNL     1      10.405   8.124  22.517  0.00  0.00    -0.273 OA
ATOM      6  N   UNL     1      12.546   8.172  21.605  0.00  0.00    -0.311 N 
ATOM     14  C   UNL     1      11.453   8.715  22.276  0.00  0.00    +0.239 C 
ATOM     18  H   UNL     1      13.364   8.752  21.447  0.00  0.00    +0.149 HD
BRANCH  14  15
ATOM     15  C   UNL     1      11.699  10.150  22.691  0.00  0.00    +0.255 C 
BRANCH  15   4
ATOM      4  O   UNL     1      10.640  10.624  23.496  0.00  0.00    -0.374 OA
ATOM     16  C   UNL     1      11.115  11.265  24.676  0.00  0.00    +0.194 C 
ENDBRANCH  15   4
ENDBRANCH  14  15
ENDBRANCH  11   6
ENDBRANCH   9  11
TORSDOF 6
ENDMDL
MODEL 10
REMARK VINA RESULT:      -4.7     18.392     20.762
REMARK  Name = 75536572
REMARK  9 active torsions:
REMARK  status: ('A' for Active; 'I' for Inactive)
REMARK    1  A    between atoms: O_2  and  C_8
REMARK    2  A    between atoms: O_4  and  C_15
REMARK    3  A    between atoms: O_4  and  C_16
REMARK    4  A    between atoms: N_5  and  C_7
REMARK    5  A    between atoms: N_5  and  C_12
REMARK    6  A    between atoms: N_5  and  C_13
REMARK    7  A    between atoms: N_6  and  C_11
REMARK    8  A    between atoms: C_9  and  C_11
REMARK    9  A    between atoms: C_14  and  C_15
REMARK                            x       y       z     vdW  Elec       q    Type
REMARK                         _______ _______ _______ _____ _____    ______ ____
ROOT
ATOM      1  O   UNL     1      17.076   8.011  21.060  0.00  0.00    -0.371 OA
ATOM      7  C   UNL     1      19.096   6.879  20.532  0.00  0.00    +0.113 C 
ATOM      8  C   UNL     1      17.922   6.044  20.054  0.00  0.00    +0.164 C 
ATOM      9  C   UNL     1      16.826   7.099  19.978  0.00  0.00    +0.165 C 
ATOM     10  C   UNL     1      18.420   7.807  21.528  0.00  0.00    +0.181 C 
ENDROOT
BRANCH   7   5
ATOM      5  N   UNL     1      20.166   6.093  21.125  0.00  0.00    -0.301 NA
ATOM     12  C   UNL     1      21.453   6.407  20.496  0.00  0.00    +0.105 C 
ATOM     13  C   UNL     1      20.243   6.325  22.571  0.00  0.00    +0.105 C 
ENDBRANCH   7   5
BRANCH   8   2
ATOM      2  O   UNL     1      18.159   5.438  18.798  0.00  0.00    -0.388 OA
ATOM     17  H   UNL     1      19.119   5.333  18.686  0.00  0.00    +0.210 HD
ENDBRANCH   8   2
BRANCH   9  11
ATOM     11  C   UNL     1      15.428   6.520  20.107  0.00  0.00    +0.138 C 
BRANCH  11   6
ATOM      3  O   UNL     1      12.796   7.722  20.164  0.00  0.00    -0.273 OA
ATOM      6  N   UNL     1      14.612   6.872  18.980  0.00  0.00    -0.311 N 
ATOM     14  C   UNL     1      13.351   7.449  19.102  0.00  0.00    +0.239 C 
ATOM     18  H   UNL     1      14.975   6.676  18.052  0.00  0.00    +0.149 HD
BRANCH  14  15
ATOM     15  C   UNL     1      12.716   7.716  17.754  0.00  0.00    +0.255 C 
BRANCH  15   4
ATOM      4  O   UNL     1      11.323   7.904  17.888  0.00  0.00    -0.374 OA
ATOM     16  C   UNL     1      10.772   8.607  16.778  0.00  0.00    +0.194 C 
ENDBRANCH  15   4
ENDBRANCH  14  15
ENDBRANCH  11   6
ENDBRANCH   9  11
TORSDOF 6
ENDMDL
