MODEL 1
REMARK VINA RESULT:      -8.0      0.000      0.000
REMARK  Name = 45360654
REMARK  10 active torsions:
REMARK  status: ('A' for Active; 'I' for Inactive)
REMARK    1  A    between atoms: O_4  and  C_26
REMARK    2  A    between atoms: O_4  and  C_32
REMARK    3  A    between atoms: N_7  and  C_10
REMARK    4  A    between atoms: N_7  and  C_18
REMARK    5  A    between atoms: N_8  and  C_23
REMARK    6  A    between atoms: C_12  and  C_16
REMARK    7  A    between atoms: C_16  and  C_17
REMARK    8  A    between atoms: C_17  and  C_19
REMARK    9  A    between atoms: C_18  and  C_20
REMARK   10  A    between atoms: C_23  and  C_27
REMARK                            x       y       z     vdW  Elec       q    Type
REMARK                         _______ _______ _______ _____ _____    ______ ____
ROOT
ATOM      2  O   UNL     1     -17.517   1.555  22.190  0.00  0.00    -0.274 OA
ATOM      5  N   UNL     1     -17.096   3.237  25.402  0.00  0.00    -0.286 NA
ATOM      6  N   UNL     1     -17.242   0.673  24.268  0.00  0.00    -0.313 N 
ATOM      9  C   UNL     1     -17.513   3.133  23.998  0.00  0.00    +0.145 C 
ATOM     10  C   UNL     1     -15.667   4.676  24.327  0.00  0.00    +0.070 C 
ATOM     11  C   UNL     1     -16.595   4.112  23.250  0.00  0.00    +0.048 C 
ATOM     12  C   UNL     1     -17.511   2.114  26.236  0.00  0.00    +0.075 C 
ATOM     13  C   UNL     1     -15.681   3.601  25.405  0.00  0.00    +0.104 C 
ATOM     14  C   UNL     1     -16.977   0.803  25.683  0.00  0.00    +0.123 C 
ATOM     15  C   UNL     1     -17.402   1.732  23.406  0.00  0.00    +0.230 C 
ATOM     34  H   UNL     1     -17.189  -0.256  23.865  0.00  0.00    +0.149 HD
ENDROOT
BRANCH  10   7
ATOM      7  N   UNL     1     -14.335   4.981  23.830  0.00  0.00    -0.308 NA
ATOM     35  H   UNL     1     -14.057   5.902  24.170  0.00  0.00    +0.123 HD
BRANCH   7  18
ATOM     18  C   UNL     1     -14.311   4.989  22.372  0.00  0.00    +0.116 C 
BRANCH  18  20
ATOM     20  C   UNL     1     -13.601   6.201  21.831  0.00  0.00    -0.033 A 
ATOM     21  C   UNL     1     -14.211   7.454  21.896  0.00  0.00    +0.008 A 
ATOM     22  C   UNL     1     -12.334   6.071  21.263  0.00  0.00    +0.008 A 
ATOM     24  C   UNL     1     -13.553   8.577  21.395  0.00  0.00    +0.046 A 
ATOM     25  C   UNL     1     -11.676   7.194  20.761  0.00  0.00    +0.046 A 
ATOM     26  C   UNL     1     -12.286   8.447  20.826  0.00  0.00    +0.120 A 
BRANCH  26   4
ATOM      4  O   UNL     1     -11.644   9.543  20.338  0.00  0.00    -0.495 OA
ATOM     32  C   UNL     1     -10.532   9.313  19.473  0.00  0.00    +0.277 C 
ENDBRANCH  26   4
ENDBRANCH  18  20
ENDBRANCH   7  18
ENDBRANCH  10   7
BRANCH  12  16
ATOM     16  C   UNL     1     -17.122   2.290  27.704  0.00  0.00    +0.029 C 
BRANCH  16  17
ATOM     17  C   UNL     1     -17.316   0.998  28.485  0.00  0.00    +0.097 C 
BRANCH  17  19
ATOM      3  O   UNL     1     -16.051  -0.329  30.066  0.00  0.00    -0.276 OA
ATOM      8  N   UNL     1     -15.187   1.705  29.352  0.00  0.00    -0.311 N 
ATOM     19  C   UNL     1     -16.136   0.693  29.390  0.00  0.00    +0.213 C 
ATOM     36  H   UNL     1     -15.350   2.532  28.787  0.00  0.00    +0.149 HD
BRANCH   8  23
ATOM     23  C   UNL     1     -13.971   1.650  30.129  0.00  0.00    +0.139 C 
BRANCH  23  27
ATOM      1  F   UNL     1     -14.549   4.207  35.117  0.00  0.00    -0.205 F 
ATOM     27  C   UNL     1     -14.126   2.334  31.462  0.00  0.00    -0.030 A 
ATOM     28  C   UNL     1     -14.548   1.605  32.573  0.00  0.00    +0.008 A 
ATOM     29  C   UNL     1     -13.846   3.694  31.584  0.00  0.00    +0.008 A 
ATOM     30  C   UNL     1     -14.691   2.237  33.809  0.00  0.00    +0.038 A 
ATOM     31  C   UNL     1     -13.989   4.328  32.819  0.00  0.00    +0.038 A 
ATOM     33  C   UNL     1     -14.411   3.599  33.931  0.00  0.00    +0.123 A 
ENDBRANCH  23  27
ENDBRANCH   8  23
ENDBRANCH  17  19
ENDBRANCH  16  17
ENDBRANCH  12  16
TORSDOF 9
ENDMDL
MODEL 2
REMARK VINA RESULT:      -7.5     18.849     21.719
REMARK  Name = 45360654
REMARK  10 active torsions:
REMARK  status: ('A' for Active; 'I' for Inactive)
REMARK    1  A    between atoms: O_4  and  C_26
REMARK    2  A    between atoms: O_4  and  C_32
REMARK    3  A    between atoms: N_7  and  C_10
REMARK    4  A    between atoms: N_7  and  C_18
REMARK    5  A    between atoms: N_8  and  C_23
REMARK    6  A    between atoms: C_12  and  C_16
REMARK    7  A    between atoms: C_16  and  C_17
REMARK    8  A    between atoms: C_17  and  C_19
REMARK    9  A    between atoms: C_18  and  C_20
REMARK   10  A    between atoms: C_23  and  C_27
REMARK                            x       y       z     vdW  Elec       q    Type
REMARK                         _______ _______ _______ _____ _____    ______ ____
ROOT
ATOM      2  O   UNL     1      -7.218 -14.385  16.933  0.00  0.00    -0.274 OA
ATOM      5  N   UNL     1      -4.850 -11.745  17.794  0.00  0.00    -0.286 NA
ATOM      6  N   UNL     1      -5.974 -13.049  15.578  0.00  0.00    -0.313 N 
ATOM      9  C   UNL     1      -5.642 -12.956  18.043  0.00  0.00    +0.145 C 
ATOM     10  C   UNL     1      -6.370 -11.057  19.369  0.00  0.00    +0.070 C 
ATOM     11  C   UNL     1      -6.654 -12.539  19.121  0.00  0.00    +0.048 C 
ATOM     12  C   UNL     1      -4.121 -11.753  16.531  0.00  0.00    +0.075 C 
ATOM     13  C   UNL     1      -5.713 -10.600  18.074  0.00  0.00    +0.104 C 
ATOM     14  C   UNL     1      -5.071 -11.942  15.359  0.00  0.00    +0.123 C 
ATOM     15  C   UNL     1      -6.360 -13.506  16.815  0.00  0.00    +0.230 C 
ATOM     34  H   UNL     1      -6.444 -13.438  14.766  0.00  0.00    +0.149 HD
ENDROOT
BRANCH  10   7
ATOM      7  N   UNL     1      -7.562 -10.298  19.713  0.00  0.00    -0.308 NA
ATOM     35  H   UNL     1      -7.656 -10.270  20.728  0.00  0.00    +0.123 HD
BRANCH   7  18
ATOM     18  C   UNL     1      -8.755 -10.912  19.144  0.00  0.00    +0.116 C 
BRANCH  18  20
ATOM     20  C   UNL     1      -9.590  -9.916  18.384  0.00  0.00    -0.033 A 
ATOM     21  C   UNL     1     -10.976  -9.901  18.543  0.00  0.00    +0.008 A 
ATOM     22  C   UNL     1      -8.977  -9.010  17.519  0.00  0.00    +0.008 A 
ATOM     24  C   UNL     1     -11.748  -8.977  17.838  0.00  0.00    +0.046 A 
ATOM     25  C   UNL     1      -9.750  -8.086  16.815  0.00  0.00    +0.046 A 
ATOM     26  C   UNL     1     -11.136  -8.071  16.974  0.00  0.00    +0.120 A 
BRANCH  26   4
ATOM      4  O   UNL     1     -11.890  -7.170  16.287  0.00  0.00    -0.495 OA
ATOM     32  C   UNL     1     -11.207  -6.054  15.715  0.00  0.00    +0.277 C 
ENDBRANCH  26   4
ENDBRANCH  18  20
ENDBRANCH   7  18
ENDBRANCH  10   7
BRANCH  12  16
ATOM     16  C   UNL     1      -3.252 -10.510  16.338  0.00  0.00    +0.029 C 
BRANCH  16  17
ATOM     17  C   UNL     1      -1.825 -10.887  15.965  0.00  0.00    +0.097 C 
BRANCH  17  19
ATOM      3  O   UNL     1      -1.489 -12.513  14.203  0.00  0.00    -0.276 OA
ATOM      8  N   UNL     1      -1.894 -10.298  13.634  0.00  0.00    -0.311 N 
ATOM     19  C   UNL     1      -1.714 -11.348  14.523  0.00  0.00    +0.213 C 
ATOM     36  H   UNL     1      -2.047  -9.358  13.984  0.00  0.00    +0.149 HD
BRANCH   8  23
ATOM     23  C   UNL     1      -1.834 -10.481  12.203  0.00  0.00    +0.139 C 
BRANCH  23  27
ATOM      1  F   UNL     1      -6.428  -8.471   9.634  0.00  0.00    -0.205 F 
ATOM     27  C   UNL     1      -3.061  -9.943  11.516  0.00  0.00    -0.030 A 
ATOM     28  C   UNL     1      -4.314 -10.094  12.110  0.00  0.00    +0.008 A 
ATOM     29  C   UNL     1      -2.945  -9.295  10.287  0.00  0.00    +0.008 A 
ATOM     30  C   UNL     1      -5.452  -9.597  11.475  0.00  0.00    +0.038 A 
ATOM     31  C   UNL     1      -4.083  -8.797   9.651  0.00  0.00    +0.038 A 
ATOM     33  C   UNL     1      -5.336  -8.948  10.245  0.00  0.00    +0.123 A 
ENDBRANCH  23  27
ENDBRANCH   8  23
ENDBRANCH  17  19
ENDBRANCH  16  17
ENDBRANCH  12  16
TORSDOF 9
ENDMDL
MODEL 3
REMARK VINA RESULT:      -7.5     18.350     21.119
REMARK  Name = 45360654
REMARK  10 active torsions:
REMARK  status: ('A' for Active; 'I' for Inactive)
REMARK    1  A    between atoms: O_4  and  C_26
REMARK    2  A    between atoms: O_4  and  C_32
REMARK    3  A    between atoms: N_7  and  C_10
REMARK    4  A    between atoms: N_7  and  C_18
REMARK    5  A    between atoms: N_8  and  C_23
REMARK    6  A    between atoms: C_12  and  C_16
REMARK    7  A    between atoms: C_16  and  C_17
REMARK    8  A    between atoms: C_17  and  C_19
REMARK    9  A    between atoms: C_18  and  C_20
REMARK   10  A    between atoms: C_23  and  C_27
REMARK                            x       y       z     vdW  Elec       q    Type
REMARK                         _______ _______ _______ _____ _____    ______ ____
ROOT
ATOM      2  O   UNL     1      -7.571 -12.129  19.897  0.00  0.00    -0.274 OA
ATOM      5  N   UNL     1      -5.345 -10.734  17.363  0.00  0.00    -0.286 NA
ATOM      6  N   UNL     1      -6.118 -13.181  18.499  0.00  0.00    -0.313 N 
ATOM      9  C   UNL     1      -6.176 -10.693  18.572  0.00  0.00    +0.145 C 
ATOM     10  C   UNL     1      -7.088  -9.373  16.750  0.00  0.00    +0.070 C 
ATOM     11  C   UNL     1      -7.342  -9.761  18.207  0.00  0.00    +0.048 C 
ATOM     12  C   UNL     1      -4.427 -11.866  17.303  0.00  0.00    +0.075 C 
ATOM     13  C   UNL     1      -6.232 -10.516  16.222  0.00  0.00    +0.104 C 
ATOM     14  C   UNL     1      -5.183 -13.182  17.397  0.00  0.00    +0.123 C 
ATOM     15  C   UNL     1      -6.697 -12.053  19.029  0.00  0.00    +0.230 C 
ATOM     34  H   UNL     1      -6.459 -14.080  18.826  0.00  0.00    +0.149 HD
ENDROOT
BRANCH  10   7
ATOM      7  N   UNL     1      -8.313  -9.169  15.993  0.00  0.00    -0.308 NA
ATOM     35  H   UNL     1      -8.111  -8.575  15.189  0.00  0.00    +0.123 HD
BRANCH   7  18
ATOM     18  C   UNL     1      -9.333  -8.527  16.812  0.00  0.00    +0.116 C 
BRANCH  18  20
ATOM     20  C   UNL     1     -10.364  -7.822  15.971  0.00  0.00    -0.033 A 
ATOM     21  C   UNL     1     -10.868  -8.436  14.824  0.00  0.00    +0.008 A 
ATOM     22  C   UNL     1     -10.813  -6.553  16.337  0.00  0.00    +0.008 A 
ATOM     24  C   UNL     1     -11.823  -7.782  14.046  0.00  0.00    +0.046 A 
ATOM     25  C   UNL     1     -11.768  -5.899  15.558  0.00  0.00    +0.046 A 
ATOM     26  C   UNL     1     -12.272  -6.513  14.412  0.00  0.00    +0.120 A 
BRANCH  26   4
ATOM      4  O   UNL     1     -13.204  -5.876  13.652  0.00  0.00    -0.495 OA
ATOM     32  C   UNL     1     -12.945  -4.515  13.313  0.00  0.00    +0.277 C 
ENDBRANCH  26   4
ENDBRANCH  18  20
ENDBRANCH   7  18
ENDBRANCH  10   7
BRANCH  12  16
ATOM     16  C   UNL     1      -3.529 -11.837  16.066  0.00  0.00    +0.029 C 
BRANCH  16  17
ATOM     17  C   UNL     1      -2.443 -10.779  16.199  0.00  0.00    +0.097 C 
BRANCH  17  19
ATOM      3  O   UNL     1      -0.987  -9.530  14.720  0.00  0.00    -0.276 OA
ATOM      8  N   UNL     1      -2.485 -11.053  13.810  0.00  0.00    -0.311 N 
ATOM     19  C   UNL     1      -1.875 -10.368  14.851  0.00  0.00    +0.213 C 
ATOM     36  H   UNL     1      -3.234 -11.710  14.004  0.00  0.00    +0.149 HD
BRANCH   8  23
ATOM     23  C   UNL     1      -2.121 -10.838  12.429  0.00  0.00    +0.139 C 
BRANCH  23  27
ATOM      1  F   UNL     1      -6.180  -8.165   9.579  0.00  0.00    -0.205 F 
ATOM     27  C   UNL     1      -3.206 -10.124  11.668  0.00  0.00    -0.030 A 
ATOM     28  C   UNL     1      -2.916  -9.518  10.446  0.00  0.00    +0.008 A 
ATOM     29  C   UNL     1      -4.501 -10.069  12.184  0.00  0.00    +0.008 A 
ATOM     30  C   UNL     1      -3.921  -8.856   9.739  0.00  0.00    +0.038 A 
ATOM     31  C   UNL     1      -5.506  -9.407  11.478  0.00  0.00    +0.038 A 
ATOM     33  C   UNL     1      -5.215  -8.801  10.256  0.00  0.00    +0.123 A 
ENDBRANCH  23  27
ENDBRANCH   8  23
ENDBRANCH  17  19
ENDBRANCH  16  17
ENDBRANCH  12  16
TORSDOF 9
ENDMDL
MODEL 4
REMARK VINA RESULT:      -7.1     18.407     21.167
REMARK  Name = 45360654
REMARK  10 active torsions:
REMARK  status: ('A' for Active; 'I' for Inactive)
REMARK    1  A    between atoms: O_4  and  C_26
REMARK    2  A    between atoms: O_4  and  C_32
REMARK    3  A    between atoms: N_7  and  C_10
REMARK    4  A    between atoms: N_7  and  C_18
REMARK    5  A    between atoms: N_8  and  C_23
REMARK    6  A    between atoms: C_12  and  C_16
REMARK    7  A    between atoms: C_16  and  C_17
REMARK    8  A    between atoms: C_17  and  C_19
REMARK    9  A    between atoms: C_18  and  C_20
REMARK   10  A    between atoms: C_23  and  C_27
REMARK                            x       y       z     vdW  Elec       q    Type
REMARK                         _______ _______ _______ _____ _____    ______ ____
ROOT
ATOM      2  O   UNL     1      -8.955 -11.552  13.905  0.00  0.00    -0.274 OA
ATOM      5  N   UNL     1      -6.630 -10.784  16.612  0.00  0.00    -0.286 NA
ATOM      6  N   UNL     1      -6.851 -10.694  13.816  0.00  0.00    -0.313 N 
ATOM      9  C   UNL     1      -7.779 -11.459  15.995  0.00  0.00    +0.145 C 
ATOM     10  C   UNL     1      -8.422  -9.897  17.740  0.00  0.00    +0.070 C 
ATOM     11  C   UNL     1      -9.000 -10.910  16.751  0.00  0.00    +0.048 C 
ATOM     12  C   UNL     1      -5.417 -10.805  15.803  0.00  0.00    +0.075 C 
ATOM     13  C   UNL     1      -7.101  -9.490  17.100  0.00  0.00    +0.104 C 
ATOM     14  C   UNL     1      -5.661 -10.168  14.445  0.00  0.00    +0.123 C 
ATOM     15  C   UNL     1      -7.923 -11.220  14.495  0.00  0.00    +0.230 C 
ATOM     34  H   UNL     1      -6.951 -10.559  12.815  0.00  0.00    +0.149 HD
ENDROOT
BRANCH  10   7
ATOM      7  N   UNL     1      -9.313  -8.776  17.994  0.00  0.00    -0.308 NA
ATOM     35  H   UNL     1      -9.264  -8.531  18.983  0.00  0.00    +0.123 HD
BRANCH   7  18
ATOM     18  C   UNL     1     -10.690  -9.117  17.659  0.00  0.00    +0.116 C 
BRANCH  18  20
ATOM     20  C   UNL     1     -11.330  -8.067  16.789  0.00  0.00    -0.033 A 
ATOM     21  C   UNL     1     -12.659  -8.207  16.391  0.00  0.00    +0.008 A 
ATOM     22  C   UNL     1     -10.592  -6.957  16.380  0.00  0.00    +0.008 A 
ATOM     24  C   UNL     1     -13.252  -7.234  15.585  0.00  0.00    +0.046 A 
ATOM     25  C   UNL     1     -11.185  -5.984  15.574  0.00  0.00    +0.046 A 
ATOM     26  C   UNL     1     -12.514  -6.124  15.176  0.00  0.00    +0.120 A 
BRANCH  26   4
ATOM      4  O   UNL     1     -13.093  -5.175  14.391  0.00  0.00    -0.495 OA
ATOM     32  C   UNL     1     -13.768  -5.626  13.218  0.00  0.00    +0.277 C 
ENDBRANCH  26   4
ENDBRANCH  18  20
ENDBRANCH   7  18
ENDBRANCH  10   7
BRANCH  12  16
ATOM     16  C   UNL     1      -4.224 -10.157  16.507  0.00  0.00    +0.029 C 
BRANCH  16  17
ATOM     17  C   UNL     1      -3.055 -11.126  16.617  0.00  0.00    +0.097 C 
BRANCH  17  19
ATOM      3  O   UNL     1      -1.210 -10.218  15.339  0.00  0.00    -0.276 OA
ATOM      8  N   UNL     1      -2.434 -11.983  14.457  0.00  0.00    -0.311 N 
ATOM     19  C   UNL     1      -2.123 -11.037  15.423  0.00  0.00    +0.213 C 
ATOM     36  H   UNL     1      -3.225 -12.605  14.593  0.00  0.00    +0.149 HD
BRANCH   8  23
ATOM     23  C   UNL     1      -1.693 -12.100  13.224  0.00  0.00    +0.139 C 
BRANCH  23  27
ATOM      1  F   UNL     1      -3.795  -8.778   9.187  0.00  0.00    -0.205 F 
ATOM     27  C   UNL     1      -2.255 -11.213  12.146  0.00  0.00    -0.030 A 
ATOM     28  C   UNL     1      -1.586 -10.042  11.788  0.00  0.00    +0.008 A 
ATOM     29  C   UNL     1      -3.443 -11.561  11.504  0.00  0.00    +0.008 A 
ATOM     30  C   UNL     1      -2.106  -9.220  10.788  0.00  0.00    +0.038 A 
ATOM     31  C   UNL     1      -3.964 -10.738  10.505  0.00  0.00    +0.038 A 
ATOM     33  C   UNL     1      -3.295  -9.568  10.147  0.00  0.00    +0.123 A 
ENDBRANCH  23  27
ENDBRANCH   8  23
ENDBRANCH  17  19
ENDBRANCH  16  17
ENDBRANCH  12  16
TORSDOF 9
ENDMDL
MODEL 5
REMARK VINA RESULT:      -7.0     19.676     21.634
REMARK  Name = 45360654
REMARK  10 active torsions:
REMARK  status: ('A' for Active; 'I' for Inactive)
REMARK    1  A    between atoms: O_4  and  C_26
REMARK    2  A    between atoms: O_4  and  C_32
REMARK    3  A    between atoms: N_7  and  C_10
REMARK    4  A    between atoms: N_7  and  C_18
REMARK    5  A    between atoms: N_8  and  C_23
REMARK    6  A    between atoms: C_12  and  C_16
REMARK    7  A    between atoms: C_16  and  C_17
REMARK    8  A    between atoms: C_17  and  C_19
REMARK    9  A    between atoms: C_18  and  C_20
REMARK   10  A    between atoms: C_23  and  C_27
REMARK                            x       y       z     vdW  Elec       q    Type
REMARK                         _______ _______ _______ _____ _____    ______ ____
ROOT
ATOM      2  O   UNL     1      -6.929 -12.506  10.872  0.00  0.00    -0.274 OA
ATOM      5  N   UNL     1      -4.290 -10.140  11.747  0.00  0.00    -0.286 NA
ATOM      6  N   UNL     1      -4.673 -12.791  10.906  0.00  0.00    -0.313 N 
ATOM      9  C   UNL     1      -5.661 -10.667  11.751  0.00  0.00    +0.145 C 
ATOM     10  C   UNL     1      -5.453  -8.577  10.534  0.00  0.00    +0.070 C 
ATOM     11  C   UNL     1      -6.477  -9.625  10.971  0.00  0.00    +0.048 C 
ATOM     12  C   UNL     1      -3.264 -11.134  12.042  0.00  0.00    +0.075 C 
ATOM     13  C   UNL     1      -4.138  -9.345  10.531  0.00  0.00    +0.104 C 
ATOM     14  C   UNL     1      -3.326 -12.287  11.053  0.00  0.00    +0.123 C 
ATOM     15  C   UNL     1      -5.810 -12.049  11.121  0.00  0.00    +0.230 C 
ATOM     34  H   UNL     1      -4.786 -13.716  10.505  0.00  0.00    +0.149 HD
ENDROOT
BRANCH  10   7
ATOM      7  N   UNL     1      -5.772  -7.968   9.252  0.00  0.00    -0.308 NA
ATOM     35  H   UNL     1      -5.916  -6.968   9.386  0.00  0.00    +0.123 HD
BRANCH   7  18
ATOM     18  C   UNL     1      -6.982  -8.549   8.685  0.00  0.00    +0.116 C 
BRANCH  18  20
ATOM     20  C   UNL     1      -8.136  -7.583   8.719  0.00  0.00    -0.033 A 
ATOM     21  C   UNL     1      -9.378  -7.995   9.202  0.00  0.00    +0.008 A 
ATOM     22  C   UNL     1      -7.963  -6.275   8.267  0.00  0.00    +0.008 A 
ATOM     24  C   UNL     1     -10.447  -7.099   9.234  0.00  0.00    +0.046 A 
ATOM     25  C   UNL     1      -9.032  -5.379   8.298  0.00  0.00    +0.046 A 
ATOM     26  C   UNL     1     -10.274  -5.791   8.781  0.00  0.00    +0.120 A 
BRANCH  26   4
ATOM      4  O   UNL     1     -11.316  -4.917   8.813  0.00  0.00    -0.495 OA
ATOM     32  C   UNL     1     -11.041  -3.595   9.273  0.00  0.00    +0.277 C 
ENDBRANCH  26   4
ENDBRANCH  18  20
ENDBRANCH   7  18
ENDBRANCH  10   7
BRANCH  12  16
ATOM     16  C   UNL     1      -1.858 -10.535  12.099  0.00  0.00    +0.029 C 
BRANCH  16  17
ATOM     17  C   UNL     1      -1.588  -9.892  13.452  0.00  0.00    +0.097 C 
BRANCH  17  19
ATOM      3  O   UNL     1      -1.443 -11.959  14.705  0.00  0.00    -0.276 OA
ATOM      8  N   UNL     1      -2.781 -10.241  15.511  0.00  0.00    -0.311 N 
ATOM     19  C   UNL     1      -1.908 -10.826  14.605  0.00  0.00    +0.213 C 
ATOM     36  H   UNL     1      -3.143  -9.308  15.337  0.00  0.00    +0.149 HD
BRANCH   8  23
ATOM     23  C   UNL     1      -3.240 -10.929  16.694  0.00  0.00    +0.139 C 
BRANCH  23  27
ATOM      1  F   UNL     1      -8.512  -9.481  18.056  0.00  0.00    -0.205 F 
ATOM     27  C   UNL     1      -4.649 -10.542  17.057  0.00  0.00    -0.030 A 
ATOM     28  C   UNL     1      -5.142 -10.824  18.331  0.00  0.00    +0.008 A 
ATOM     29  C   UNL     1      -5.460  -9.902  16.121  0.00  0.00    +0.008 A 
ATOM     30  C   UNL     1      -6.447 -10.465  18.669  0.00  0.00    +0.038 A 
ATOM     31  C   UNL     1      -6.766  -9.544  16.458  0.00  0.00    +0.038 A 
ATOM     33  C   UNL     1      -7.259  -9.825  17.732  0.00  0.00    +0.123 A 
ENDBRANCH  23  27
ENDBRANCH   8  23
ENDBRANCH  17  19
ENDBRANCH  16  17
ENDBRANCH  12  16
TORSDOF 9
ENDMDL
MODEL 6
REMARK VINA RESULT:      -6.9     18.826     22.185
REMARK  Name = 45360654
REMARK  10 active torsions:
REMARK  status: ('A' for Active; 'I' for Inactive)
REMARK    1  A    between atoms: O_4  and  C_26
REMARK    2  A    between atoms: O_4  and  C_32
REMARK    3  A    between atoms: N_7  and  C_10
REMARK    4  A    between atoms: N_7  and  C_18
REMARK    5  A    between atoms: N_8  and  C_23
REMARK    6  A    between atoms: C_12  and  C_16
REMARK    7  A    between atoms: C_16  and  C_17
REMARK    8  A    between atoms: C_17  and  C_19
REMARK    9  A    between atoms: C_18  and  C_20
REMARK   10  A    between atoms: C_23  and  C_27
REMARK                            x       y       z     vdW  Elec       q    Type
REMARK                         _______ _______ _______ _____ _____    ______ ____
ROOT
ATOM      2  O   UNL     1      -7.542 -14.530  17.135  0.00  0.00    -0.274 OA
ATOM      5  N   UNL     1      -5.332 -11.721  17.875  0.00  0.00    -0.286 NA
ATOM      6  N   UNL     1      -6.389 -13.175  15.720  0.00  0.00    -0.313 N 
ATOM      9  C   UNL     1      -6.048 -12.967  18.177  0.00  0.00    +0.145 C 
ATOM     10  C   UNL     1      -6.882 -11.066  19.437  0.00  0.00    +0.070 C 
ATOM     11  C   UNL     1      -7.077 -12.571  19.247  0.00  0.00    +0.048 C 
ATOM     12  C   UNL     1      -4.612 -11.735  16.607  0.00  0.00    +0.075 C 
ATOM     13  C   UNL     1      -6.261 -10.621  18.119  0.00  0.00    +0.104 C 
ATOM     14  C   UNL     1      -5.557 -12.025  15.451  0.00  0.00    +0.123 C 
ATOM     15  C   UNL     1      -6.739 -13.607  16.977  0.00  0.00    +0.230 C 
ATOM     34  H   UNL     1      -6.840 -13.622  14.928  0.00  0.00    +0.149 HD
ENDROOT
BRANCH  10   7
ATOM      7  N   UNL     1      -8.115 -10.367  19.762  0.00  0.00    -0.308 NA
ATOM     35  H   UNL     1      -8.374 -10.583  20.724  0.00  0.00    +0.123 HD
BRANCH   7  18
ATOM     18  C   UNL     1      -9.198 -10.780  18.877  0.00  0.00    +0.116 C 
BRANCH  18  20
ATOM     20  C   UNL     1     -10.468 -11.055  19.637  0.00  0.00    -0.033 A 
ATOM     21  C   UNL     1     -10.798 -12.362  19.995  0.00  0.00    +0.008 A 
ATOM     22  C   UNL     1     -11.315 -10.003  19.983  0.00  0.00    +0.008 A 
ATOM     24  C   UNL     1     -11.975 -12.616  20.699  0.00  0.00    +0.046 A 
ATOM     25  C   UNL     1     -12.492 -10.257  20.688  0.00  0.00    +0.046 A 
ATOM     26  C   UNL     1     -12.822 -11.564  21.045  0.00  0.00    +0.120 A 
BRANCH  26   4
ATOM      4  O   UNL     1     -13.969 -11.813  21.733  0.00  0.00    -0.495 OA
ATOM     32  C   UNL     1     -13.833 -12.296  23.069  0.00  0.00    +0.277 C 
ENDBRANCH  26   4
ENDBRANCH  18  20
ENDBRANCH   7  18
ENDBRANCH  10   7
BRANCH  12  16
ATOM     16  C   UNL     1      -3.821 -10.450  16.360  0.00  0.00    +0.029 C 
BRANCH  16  17
ATOM     17  C   UNL     1      -2.333 -10.737  16.219  0.00  0.00    +0.097 C 
BRANCH  17  19
ATOM      3  O   UNL     1      -1.520 -12.300  14.559  0.00  0.00    -0.276 OA
ATOM      8  N   UNL     1      -2.200 -10.186  13.882  0.00  0.00    -0.311 N 
ATOM     19  C   UNL     1      -1.967 -11.185  14.816  0.00  0.00    +0.213 C 
ATOM     36  H   UNL     1      -2.545  -9.280  14.183  0.00  0.00    +0.149 HD
BRANCH   8  23
ATOM     23  C   UNL     1      -1.930 -10.367  12.475  0.00  0.00    +0.139 C 
BRANCH  23  27
ATOM      1  F   UNL     1      -6.297  -8.801   9.278  0.00  0.00    -0.205 F 
ATOM     27  C   UNL     1      -3.097  -9.949  11.621  0.00  0.00    -0.030 A 
ATOM     28  C   UNL     1      -2.875  -9.410  10.354  0.00  0.00    +0.008 A 
ATOM     29  C   UNL     1      -4.399 -10.100  12.097  0.00  0.00    +0.008 A 
ATOM     30  C   UNL     1      -3.956  -9.023   9.562  0.00  0.00    +0.038 A 
ATOM     31  C   UNL     1      -5.481  -9.711  11.305  0.00  0.00    +0.038 A 
ATOM     33  C   UNL     1      -5.259  -9.173  10.038  0.00  0.00    +0.123 A 
ENDBRANCH  23  27
ENDBRANCH   8  23
ENDBRANCH  17  19
ENDBRANCH  16  17
ENDBRANCH  12  16
TORSDOF 9
ENDMDL
MODEL 7
REMARK VINA RESULT:      -6.9     20.567     22.435
REMARK  Name = 45360654
REMARK  10 active torsions:
REMARK  status: ('A' for Active; 'I' for Inactive)
REMARK    1  A    between atoms: O_4  and  C_26
REMARK    2  A    between atoms: O_4  and  C_32
REMARK    3  A    between atoms: N_7  and  C_10
REMARK    4  A    between atoms: N_7  and  C_18
REMARK    5  A    between atoms: N_8  and  C_23
REMARK    6  A    between atoms: C_12  and  C_16
REMARK    7  A    between atoms: C_16  and  C_17
REMARK    8  A    between atoms: C_17  and  C_19
REMARK    9  A    between atoms: C_18  and  C_20
REMARK   10  A    between atoms: C_23  and  C_27
REMARK                            x       y       z     vdW  Elec       q    Type
REMARK                         _______ _______ _______ _____ _____    ______ ____
ROOT
ATOM      2  O   UNL     1      -7.772 -10.367  11.922  0.00  0.00    -0.274 OA
ATOM      5  N   UNL     1      -4.197  -9.694  11.628  0.00  0.00    -0.286 NA
ATOM      6  N   UNL     1      -5.996 -11.669  12.489  0.00  0.00    -0.313 N 
ATOM      9  C   UNL     1      -5.617  -9.331  11.721  0.00  0.00    +0.145 C 
ATOM     10  C   UNL     1      -4.651  -8.829   9.551  0.00  0.00    +0.070 C 
ATOM     11  C   UNL     1      -5.948  -8.717  10.352  0.00  0.00    +0.048 C 
ATOM     12  C   UNL     1      -3.760 -10.668  12.622  0.00  0.00    +0.075 C 
ATOM     13  C   UNL     1      -3.917  -9.982  10.223  0.00  0.00    +0.104 C 
ATOM     14  C   UNL     1      -4.578 -11.945  12.524  0.00  0.00    +0.123 C 
ATOM     15  C   UNL     1      -6.550 -10.498  12.028  0.00  0.00    +0.230 C 
ATOM     34  H   UNL     1      -6.628 -12.432  12.709  0.00  0.00    +0.149 HD
ENDROOT
BRANCH  10   7
ATOM      7  N   UNL     1      -4.875  -9.036   8.129  0.00  0.00    -0.308 NA
ATOM     35  H   UNL     1      -4.894  -8.130   7.661  0.00  0.00    +0.123 HD
BRANCH   7  18
ATOM     18  C   UNL     1      -6.143  -9.716   7.894  0.00  0.00    +0.116 C 
BRANCH  18  20
ATOM     20  C   UNL     1      -6.970  -9.012   6.851  0.00  0.00    -0.033 A 
ATOM     21  C   UNL     1      -6.799  -9.319   5.501  0.00  0.00    +0.008 A 
ATOM     22  C   UNL     1      -7.906  -8.052   7.234  0.00  0.00    +0.008 A 
ATOM     24  C   UNL     1      -7.566  -8.666   4.535  0.00  0.00    +0.046 A 
ATOM     25  C   UNL     1      -8.672  -7.400   6.269  0.00  0.00    +0.046 A 
ATOM     26  C   UNL     1      -8.501  -7.707   4.919  0.00  0.00    +0.120 A 
BRANCH  26   4
ATOM      4  O   UNL     1      -9.250  -7.071   3.976  0.00  0.00    -0.495 OA
ATOM     32  C   UNL     1      -9.810  -7.877   2.940  0.00  0.00    +0.277 C 
ENDBRANCH  26   4
ENDBRANCH  18  20
ENDBRANCH   7  18
ENDBRANCH  10   7
BRANCH  12  16
ATOM     16  C   UNL     1      -2.262 -10.967  12.540  0.00  0.00    +0.029 C 
BRANCH  16  17
ATOM     17  C   UNL     1      -1.810 -11.841  13.702  0.00  0.00    +0.097 C 
BRANCH  17  19
ATOM      3  O   UNL     1      -1.165 -10.165  15.327  0.00  0.00    -0.276 OA
ATOM      8  N   UNL     1      -2.873 -11.649  15.851  0.00  0.00    -0.311 N 
ATOM     19  C   UNL     1      -1.891 -11.112  15.031  0.00  0.00    +0.213 C 
ATOM     36  H   UNL     1      -3.410 -12.452  15.540  0.00  0.00    +0.149 HD
BRANCH   8  23
ATOM     23  C   UNL     1      -3.144 -11.130  17.171  0.00  0.00    +0.139 C 
BRANCH  23  27
ATOM      1  F   UNL     1      -8.453  -9.310  17.663  0.00  0.00    -0.205 F 
ATOM     27  C   UNL     1      -4.562 -10.644  17.302  0.00  0.00    -0.030 A 
ATOM     28  C   UNL     1      -5.250 -10.817  18.503  0.00  0.00    +0.008 A 
ATOM     29  C   UNL     1      -5.189 -10.019  16.223  0.00  0.00    +0.008 A 
ATOM     30  C   UNL     1      -6.565 -10.366  18.626  0.00  0.00    +0.038 A 
ATOM     31  C   UNL     1      -6.504  -9.569  16.345  0.00  0.00    +0.038 A 
ATOM     33  C   UNL     1      -7.191  -9.742  17.546  0.00  0.00    +0.123 A 
ENDBRANCH  23  27
ENDBRANCH   8  23
ENDBRANCH  17  19
ENDBRANCH  16  17
ENDBRANCH  12  16
TORSDOF 9
ENDMDL
MODEL 8
REMARK VINA RESULT:      -6.9     20.037     22.931
REMARK  Name = 45360654
REMARK  10 active torsions:
REMARK  status: ('A' for Active; 'I' for Inactive)
REMARK    1  A    between atoms: O_4  and  C_26
REMARK    2  A    between atoms: O_4  and  C_32
REMARK    3  A    between atoms: N_7  and  C_10
REMARK    4  A    between atoms: N_7  and  C_18
REMARK    5  A    between atoms: N_8  and  C_23
REMARK    6  A    between atoms: C_12  and  C_16
REMARK    7  A    between atoms: C_16  and  C_17
REMARK    8  A    between atoms: C_17  and  C_19
REMARK    9  A    between atoms: C_18  and  C_20
REMARK   10  A    between atoms: C_23  and  C_27
REMARK                            x       y       z     vdW  Elec       q    Type
REMARK                         _______ _______ _______ _____ _____    ______ ____
ROOT
ATOM      2  O   UNL     1      -1.915 -14.458  13.399  0.00  0.00    -0.274 OA
ATOM      5  N   UNL     1      -2.178 -10.892  12.670  0.00  0.00    -0.286 NA
ATOM      6  N   UNL     1      -3.045 -13.393  11.738  0.00  0.00    -0.313 N 
ATOM      9  C   UNL     1      -1.559 -12.089  13.252  0.00  0.00    +0.145 C 
ATOM     10  C   UNL     1      -2.442 -10.570  14.928  0.00  0.00    +0.070 C 
ATOM     11  C   UNL     1      -1.690 -11.893  14.770  0.00  0.00    +0.048 C 
ATOM     12  C   UNL     1      -2.562 -11.033  11.271  0.00  0.00    +0.075 C 
ATOM     13  C   UNL     1      -3.197 -10.433  13.612  0.00  0.00    +0.104 C 
ATOM     14  C   UNL     1      -3.526 -12.195  11.088  0.00  0.00    +0.123 C 
ATOM     15  C   UNL     1      -2.201 -13.405  12.822  0.00  0.00    +0.230 C 
ATOM     34  H   UNL     1      -3.450 -14.278  11.449  0.00  0.00    +0.149 HD
ENDROOT
BRANCH  10   7
ATOM      7  N   UNL     1      -3.306 -10.542  16.097  0.00  0.00    -0.308 NA
ATOM     35  H   UNL     1      -2.732 -10.416  16.931  0.00  0.00    +0.123 HD
BRANCH   7  18
ATOM     18  C   UNL     1      -4.055 -11.787  16.223  0.00  0.00    +0.116 C 
BRANCH  18  20
ATOM     20  C   UNL     1      -5.142 -11.683  17.260  0.00  0.00    -0.033 A 
ATOM     21  C   UNL     1      -6.129 -12.666  17.338  0.00  0.00    +0.008 A 
ATOM     22  C   UNL     1      -5.163 -10.603  18.142  0.00  0.00    +0.008 A 
ATOM     24  C   UNL     1      -7.135 -12.569  18.299  0.00  0.00    +0.046 A 
ATOM     25  C   UNL     1      -6.170 -10.506  19.103  0.00  0.00    +0.046 A 
ATOM     26  C   UNL     1      -7.156 -11.488  19.181  0.00  0.00    +0.120 A 
BRANCH  26   4
ATOM      4  O   UNL     1      -8.138 -11.395  20.118  0.00  0.00    -0.495 OA
ATOM     32  C   UNL     1      -9.439 -11.846  19.743  0.00  0.00    +0.277 C 
ENDBRANCH  26   4
ENDBRANCH  18  20
ENDBRANCH   7  18
ENDBRANCH  10   7
BRANCH  12  16
ATOM     16  C   UNL     1      -3.137  -9.745  10.680  0.00  0.00    +0.029 C 
BRANCH  16  17
ATOM     17  C   UNL     1      -4.229 -10.045   9.662  0.00  0.00    +0.097 C 
BRANCH  17  19
ATOM      3  O   UNL     1      -5.733  -8.149   9.751  0.00  0.00    -0.276 OA
ATOM      8  N   UNL     1      -6.440 -10.192  10.597  0.00  0.00    -0.311 N 
ATOM     19  C   UNL     1      -5.530  -9.336   9.994  0.00  0.00    +0.213 C 
ATOM     36  H   UNL     1      -6.181 -11.155  10.789  0.00  0.00    +0.149 HD
BRANCH   8  23
ATOM     23  C   UNL     1      -7.753  -9.755  11.009  0.00  0.00    +0.139 C 
BRANCH  23  27
ATOM      1  F   UNL     1      -8.361  -9.927  16.608  0.00  0.00    -0.205 F 
ATOM     27  C   UNL     1      -7.915  -9.801  12.506  0.00  0.00    -0.030 A 
ATOM     28  C   UNL     1      -9.187  -9.721  13.071  0.00  0.00    +0.008 A 
ATOM     29  C   UNL     1      -6.794  -9.924  13.326  0.00  0.00    +0.008 A 
ATOM     30  C   UNL     1      -9.339  -9.764  14.457  0.00  0.00    +0.038 A 
ATOM     31  C   UNL     1      -6.944  -9.966  14.712  0.00  0.00    +0.038 A 
ATOM     33  C   UNL     1      -8.217  -9.886  15.278  0.00  0.00    +0.123 A 
ENDBRANCH  23  27
ENDBRANCH   8  23
ENDBRANCH  17  19
ENDBRANCH  16  17
ENDBRANCH  12  16
TORSDOF 9
ENDMDL
MODEL 9
REMARK VINA RESULT:      -6.9     21.235     23.152
REMARK  Name = 45360654
REMARK  10 active torsions:
REMARK  status: ('A' for Active; 'I' for Inactive)
REMARK    1  A    between atoms: O_4  and  C_26
REMARK    2  A    between atoms: O_4  and  C_32
REMARK    3  A    between atoms: N_7  and  C_10
REMARK    4  A    between atoms: N_7  and  C_18
REMARK    5  A    between atoms: N_8  and  C_23
REMARK    6  A    between atoms: C_12  and  C_16
REMARK    7  A    between atoms: C_16  and  C_17
REMARK    8  A    between atoms: C_17  and  C_19
REMARK    9  A    between atoms: C_18  and  C_20
REMARK   10  A    between atoms: C_23  and  C_27
REMARK                            x       y       z     vdW  Elec       q    Type
REMARK                         _______ _______ _______ _____ _____    ______ ____
ROOT
ATOM      2  O   UNL     1      -6.958 -12.295  11.149  0.00  0.00    -0.274 OA
ATOM      5  N   UNL     1      -4.227  -9.954  11.763  0.00  0.00    -0.286 NA
ATOM      6  N   UNL     1      -4.718 -12.670  11.257  0.00  0.00    -0.313 N 
ATOM      9  C   UNL     1      -5.620 -10.416  11.810  0.00  0.00    +0.145 C 
ATOM     10  C   UNL     1      -5.305  -8.508  10.343  0.00  0.00    +0.070 C 
ATOM     11  C   UNL     1      -6.379  -9.447  10.891  0.00  0.00    +0.048 C 
ATOM     12  C   UNL     1      -3.250 -10.945  12.199  0.00  0.00    +0.075 C 
ATOM     13  C   UNL     1      -4.026  -9.326  10.459  0.00  0.00    +0.104 C 
ATOM     14  C   UNL     1      -3.352 -12.210  11.362  0.00  0.00    +0.123 C 
ATOM     15  C   UNL     1      -5.823 -11.859  11.357  0.00  0.00    +0.230 C 
ATOM     34  H   UNL     1      -4.868 -13.633  10.974  0.00  0.00    +0.149 HD
ENDROOT
BRANCH  10   7
ATOM      7  N   UNL     1      -5.581  -8.054   8.989  0.00  0.00    -0.308 NA
ATOM     35  H   UNL     1      -5.781  -7.054   9.009  0.00  0.00    +0.123 HD
BRANCH   7  18
ATOM     18  C   UNL     1      -6.729  -8.754   8.427  0.00  0.00    +0.116 C 
BRANCH  18  20
ATOM     20  C   UNL     1      -6.348  -9.584   7.230  0.00  0.00    -0.033 A 
ATOM     21  C   UNL     1      -6.989  -9.381   6.008  0.00  0.00    +0.008 A 
ATOM     22  C   UNL     1      -5.354 -10.555   7.343  0.00  0.00    +0.008 A 
ATOM     24  C   UNL     1      -6.635 -10.150   4.899  0.00  0.00    +0.046 A 
ATOM     25  C   UNL     1      -5.000 -11.324   6.234  0.00  0.00    +0.046 A 
ATOM     26  C   UNL     1      -5.642 -11.122   5.012  0.00  0.00    +0.120 A 
BRANCH  26   4
ATOM      4  O   UNL     1      -5.296 -11.871   3.930  0.00  0.00    -0.495 OA
ATOM     32  C   UNL     1      -6.208 -12.893   3.530  0.00  0.00    +0.277 C 
ENDBRANCH  26   4
ENDBRANCH  18  20
ENDBRANCH   7  18
ENDBRANCH  10   7
BRANCH  12  16
ATOM     16  C   UNL     1      -1.819 -10.404  12.204  0.00  0.00    +0.029 C 
BRANCH  16  17
ATOM     17  C   UNL     1      -1.446  -9.847  13.571  0.00  0.00    +0.097 C 
BRANCH  17  19
ATOM      3  O   UNL     1      -1.357 -11.941  14.784  0.00  0.00    -0.276 OA
ATOM      8  N   UNL     1      -2.695 -10.223  15.591  0.00  0.00    -0.311 N 
ATOM     19  C   UNL     1      -1.806 -10.801  14.696  0.00  0.00    +0.213 C 
ATOM     36  H   UNL     1      -3.040  -9.282  15.428  0.00  0.00    +0.149 HD
BRANCH   8  23
ATOM     23  C   UNL     1      -3.191 -10.929  16.749  0.00  0.00    +0.139 C 
BRANCH  23  27
ATOM      1  F   UNL     1      -8.490  -9.467  17.985  0.00  0.00    -0.205 F 
ATOM     27  C   UNL     1      -4.607 -10.538  17.079  0.00  0.00    -0.030 A 
ATOM     28  C   UNL     1      -5.397  -9.906  16.120  0.00  0.00    +0.008 A 
ATOM     29  C   UNL     1      -5.128 -10.809  18.344  0.00  0.00    +0.008 A 
ATOM     30  C   UNL     1      -6.710  -9.544  16.425  0.00  0.00    +0.038 A 
ATOM     31  C   UNL     1      -6.440 -10.446  18.651  0.00  0.00    +0.038 A 
ATOM     33  C   UNL     1      -7.231  -9.815  17.691  0.00  0.00    +0.123 A 
ENDBRANCH  23  27
ENDBRANCH   8  23
ENDBRANCH  17  19
ENDBRANCH  16  17
ENDBRANCH  12  16
TORSDOF 9
ENDMDL
MODEL 10
REMARK VINA RESULT:      -6.8     21.647     23.522
REMARK  Name = 45360654
REMARK  10 active torsions:
REMARK  status: ('A' for Active; 'I' for Inactive)
REMARK    1  A    between atoms: O_4  and  C_26
REMARK    2  A    between atoms: O_4  and  C_32
REMARK    3  A    between atoms: N_7  and  C_10
REMARK    4  A    between atoms: N_7  and  C_18
REMARK    5  A    between atoms: N_8  and  C_23
REMARK    6  A    between atoms: C_12  and  C_16
REMARK    7  A    between atoms: C_16  and  C_17
REMARK    8  A    between atoms: C_17  and  C_19
REMARK    9  A    between atoms: C_18  and  C_20
REMARK   10  A    between atoms: C_23  and  C_27
REMARK                            x       y       z     vdW  Elec       q    Type
REMARK                         _______ _______ _______ _____ _____    ______ ____
ROOT
ATOM      2  O   UNL     1      -7.856 -10.480  11.752  0.00  0.00    -0.274 OA
ATOM      5  N   UNL     1      -4.280  -9.804  11.481  0.00  0.00    -0.286 NA
ATOM      6  N   UNL     1      -6.083 -11.810  12.258  0.00  0.00    -0.313 N 
ATOM      9  C   UNL     1      -5.698  -9.442  11.593  0.00  0.00    +0.145 C 
ATOM     10  C   UNL     1      -4.735  -8.847   9.445  0.00  0.00    +0.070 C 
ATOM     11  C   UNL     1      -6.030  -8.767  10.253  0.00  0.00    +0.048 C 
ATOM     12  C   UNL     1      -3.843 -10.822  12.430  0.00  0.00    +0.075 C 
ATOM     13  C   UNL     1      -4.004 -10.031  10.065  0.00  0.00    +0.104 C 
ATOM     14  C   UNL     1      -4.666 -12.092  12.278  0.00  0.00    +0.123 C 
ATOM     15  C   UNL     1      -6.634 -10.619  11.850  0.00  0.00    +0.230 C 
ATOM     34  H   UNL     1      -6.717 -12.580  12.445  0.00  0.00    +0.149 HD
ENDROOT
BRANCH  10   7
ATOM      7  N   UNL     1      -4.962  -8.991   8.016  0.00  0.00    -0.308 NA
ATOM     35  H   UNL     1      -5.322  -8.110   7.648  0.00  0.00    +0.123 HD
BRANCH   7  18
ATOM     18  C   UNL     1      -5.929 -10.048   7.744  0.00  0.00    +0.116 C 
BRANCH  18  20
ATOM     20  C   UNL     1      -5.635 -10.755   6.448  0.00  0.00    -0.033 A 
ATOM     21  C   UNL     1      -4.445 -11.467   6.295  0.00  0.00    +0.008 A 
ATOM     22  C   UNL     1      -6.551 -10.696   5.399  0.00  0.00    +0.008 A 
ATOM     24  C   UNL     1      -4.173 -12.121   5.094  0.00  0.00    +0.046 A 
ATOM     25  C   UNL     1      -6.279 -11.351   4.197  0.00  0.00    +0.046 A 
ATOM     26  C   UNL     1      -5.089 -12.063   4.045  0.00  0.00    +0.120 A 
BRANCH  26   4
ATOM      4  O   UNL     1      -4.824 -12.703   2.873  0.00  0.00    -0.495 OA
ATOM     32  C   UNL     1      -4.366 -14.052   2.960  0.00  0.00    +0.277 C 
ENDBRANCH  26   4
ENDBRANCH  18  20
ENDBRANCH   7  18
ENDBRANCH  10   7
BRANCH  12  16
ATOM     16  C   UNL     1      -2.347 -11.122  12.332  0.00  0.00    +0.029 C 
BRANCH  16  17
ATOM     17  C   UNL     1      -1.862 -11.905  13.543  0.00  0.00    +0.097 C 
BRANCH  17  19
ATOM      3  O   UNL     1      -1.293 -10.060  15.004  0.00  0.00    -0.276 OA
ATOM      8  N   UNL     1      -2.815 -11.653  15.737  0.00  0.00    -0.311 N 
ATOM     19  C   UNL     1      -1.938 -11.089  14.821  0.00  0.00    +0.213 C 
ATOM     36  H   UNL     1      -3.287 -12.524  15.518  0.00  0.00    +0.149 HD
BRANCH   8  23
ATOM     23  C   UNL     1      -3.060 -11.064  17.032  0.00  0.00    +0.139 C 
BRANCH  23  27
ATOM      1  F   UNL     1      -8.420  -9.425  17.613  0.00  0.00    -0.205 F 
ATOM     27  C   UNL     1      -4.492 -10.626  17.187  0.00  0.00    -0.030 A 
ATOM     28  C   UNL     1      -5.150 -10.812  18.402  0.00  0.00    +0.008 A 
ATOM     29  C   UNL     1      -5.161 -10.033  16.116  0.00  0.00    +0.008 A 
ATOM     30  C   UNL     1      -6.477 -10.406  18.547  0.00  0.00    +0.038 A 
ATOM     31  C   UNL     1      -6.488  -9.628  16.259  0.00  0.00    +0.038 A 
ATOM     33  C   UNL     1      -7.146  -9.814  17.475  0.00  0.00    +0.123 A 
ENDBRANCH  23  27
ENDBRANCH   8  23
ENDBRANCH  17  19
ENDBRANCH  16  17
ENDBRANCH  12  16
TORSDOF 9
ENDMDL
