MODEL 1
REMARK VINA RESULT:      -7.2      0.000      0.000
REMARK  Name = 11913358
REMARK  5 active torsions:
REMARK  status: ('A' for Active; 'I' for Inactive)
REMARK    1  A    between atoms: N_5  and  C_12
REMARK    2  A    between atoms: N_6  and  C_13
REMARK    3  A    between atoms: N_7  and  C_19
REMARK    4  A    between atoms: C_18  and  C_22
REMARK    5  A    between atoms: C_19  and  C_23
REMARK                            x       y       z     vdW  Elec       q    Type
REMARK                         _______ _______ _______ _____ _____    ______ ____
ROOT
ATOM      2  O   UNL     1      10.858  13.135  23.590  0.00  0.00    -0.370 OA
ATOM      3  O   UNL     1      13.871  12.345  23.392  0.00  0.00    -0.370 OA
ATOM     10  C   UNL     1      12.663  11.585  23.573  0.00  0.00    +0.171 C 
ATOM     11  C   UNL     1      11.744  12.406  24.456  0.00  0.00    +0.171 C 
ATOM     12  C   UNL     1      11.915  11.471  22.266  0.00  0.00    +0.130 C 
ATOM     13  C   UNL     1      12.675  13.355  25.176  0.00  0.00    +0.131 C 
ATOM     14  C   UNL     1      11.111  12.756  22.229  0.00  0.00    +0.185 C 
ATOM     15  C   UNL     1      13.784  13.555  24.158  0.00  0.00    +0.185 C 
ENDROOT
BRANCH  12   5
ATOM      5  N   UNL     1      11.030  10.326  22.302  0.00  0.00    -0.306 N 
ATOM      8  N   UNL     1      12.723   8.856  21.611  0.00  0.00    -0.214 NA
ATOM      9  N   UNL     1      10.494   8.055  22.057  0.00  0.00    -0.223 NA
ATOM     16  C   UNL     1      11.428   9.041  21.981  0.00  0.00    +0.216 A 
ATOM     18  C   UNL     1      13.076   7.590  21.306  0.00  0.00    +0.076 A 
ATOM     20  C   UNL     1      10.916   6.814  21.737  0.00  0.00    +0.116 A 
ATOM     21  C   UNL     1      12.207   6.519  21.351  0.00  0.00    +0.048 A 
ATOM     30  H   UNL     1      10.076  10.445  22.625  0.00  0.00    +0.149 HD
BRANCH  18  22
ATOM      1  F   UNL     1      16.410   5.816  18.295  0.00  0.00    -0.205 F 
ATOM     22  C   UNL     1      14.456   7.416  20.918  0.00  0.00    +0.003 A 
ATOM     24  C   UNL     1      14.774   6.685  19.771  0.00  0.00    +0.048 A 
ATOM     25  C   UNL     1      15.476   7.977  21.689  0.00  0.00    +0.010 A 
ATOM     26  C   UNL     1      16.107   6.517  19.396  0.00  0.00    +0.124 A 
ATOM     27  C   UNL     1      16.810   7.808  21.314  0.00  0.00    +0.003 A 
ATOM     29  C   UNL     1      17.125   7.078  20.168  0.00  0.00    +0.038 A 
ENDBRANCH  18  22
ENDBRANCH  12   5
BRANCH  13   6
ATOM      4  O   UNL     1      13.943  14.728  27.375  0.00  0.00    -0.253 OA
ATOM      6  N   UNL     1      13.180  12.767  26.392  0.00  0.00    -0.292 N 
ATOM      7  N   UNL     1      14.178  12.693  28.464  0.00  0.00    -0.296 N 
ATOM     17  C   UNL     1      13.783  13.509  27.407  0.00  0.00    +0.300 C 
ATOM     31  H   UNL     1      13.036  11.774  26.546  0.00  0.00    +0.151 HD
ATOM     32  H   UNL     1      13.986  11.698  28.411  0.00  0.00    +0.151 HD
BRANCH   7  19
ATOM     19  C   UNL     1      14.828  13.205  29.647  0.00  0.00    +0.132 C 
BRANCH  19  23
ATOM     23  C   UNL     1      13.908  13.056  30.813  0.00  0.00    -0.016 C 
ATOM     28  C   UNL     1      13.886  11.984  31.614  0.00  0.00    +0.005 C 
ENDBRANCH  19  23
ENDBRANCH   7  19
ENDBRANCH  13   6
TORSDOF 5
ENDMDL
MODEL 2
REMARK VINA RESULT:      -7.1     28.118     31.616
REMARK  Name = 11913358
REMARK  5 active torsions:
REMARK  status: ('A' for Active; 'I' for Inactive)
REMARK    1  A    between atoms: N_5  and  C_12
REMARK    2  A    between atoms: N_6  and  C_13
REMARK    3  A    between atoms: N_7  and  C_19
REMARK    4  A    between atoms: C_18  and  C_22
REMARK    5  A    between atoms: C_19  and  C_23
REMARK                            x       y       z     vdW  Elec       q    Type
REMARK                         _______ _______ _______ _____ _____    ______ ____
ROOT
ATOM      2  O   UNL     1      -4.590  -8.737  10.070  0.00  0.00    -0.370 OA
ATOM      3  O   UNL     1      -6.226 -11.393   9.995  0.00  0.00    -0.370 OA
ATOM     10  C   UNL     1      -4.853 -11.090  10.294  0.00  0.00    +0.171 C 
ATOM     11  C   UNL     1      -4.424  -9.975   9.360  0.00  0.00    +0.171 C 
ATOM     12  C   UNL     1      -4.737 -10.483  11.672  0.00  0.00    +0.130 C 
ATOM     13  C   UNL     1      -5.405 -10.059   8.212  0.00  0.00    +0.131 C 
ATOM     14  C   UNL     1      -5.012  -9.015  11.413  0.00  0.00    +0.185 C 
ATOM     15  C   UNL     1      -6.657 -10.581   8.893  0.00  0.00    +0.185 C 
ENDROOT
BRANCH  12   5
ATOM      5  N   UNL     1      -3.393 -10.660  12.179  0.00  0.00    -0.306 N 
ATOM      8  N   UNL     1      -4.101 -10.542  14.413  0.00  0.00    -0.214 NA
ATOM      9  N   UNL     1      -1.776 -10.863  13.867  0.00  0.00    -0.223 NA
ATOM     16  C   UNL     1      -3.081 -10.689  13.526  0.00  0.00    +0.216 A 
ATOM     18  C   UNL     1      -3.761 -10.576  15.717  0.00  0.00    +0.076 A 
ATOM     20  C   UNL     1      -1.507 -10.887  15.188  0.00  0.00    +0.116 A 
ATOM     21  C   UNL     1      -2.468 -10.747  16.169  0.00  0.00    +0.048 A 
ATOM     30  H   UNL     1      -2.633 -10.822  11.528  0.00  0.00    +0.149 HD
BRANCH  18  22
ATOM      1  F   UNL     1      -8.095  -8.761  16.835  0.00  0.00    -0.205 F 
ATOM     22  C   UNL     1      -4.859 -10.419  16.641  0.00  0.00    +0.003 A 
ATOM     24  C   UNL     1      -5.969  -9.650  16.286  0.00  0.00    +0.048 A 
ATOM     25  C   UNL     1      -4.813 -11.035  17.894  0.00  0.00    +0.010 A 
ATOM     26  C   UNL     1      -7.030  -9.499  17.179  0.00  0.00    +0.124 A 
ATOM     27  C   UNL     1      -5.875 -10.883  18.787  0.00  0.00    +0.003 A 
ATOM     29  C   UNL     1      -6.983 -10.115  18.430  0.00  0.00    +0.038 A 
ENDBRANCH  18  22
ENDBRANCH  12   5
BRANCH  13   6
ATOM      4  O   UNL     1      -6.246 -10.165   5.453  0.00  0.00    -0.253 OA
ATOM      6  N   UNL     1      -4.941 -10.973   7.197  0.00  0.00    -0.292 N 
ATOM      7  N   UNL     1      -4.793 -11.942   5.115  0.00  0.00    -0.296 N 
ATOM     17  C   UNL     1      -5.405 -10.954   5.882  0.00  0.00    +0.300 C 
ATOM     31  H   UNL     1      -4.197 -11.622   7.433  0.00  0.00    +0.151 HD
ATOM     32  H   UNL     1      -4.095 -12.536   5.552  0.00  0.00    +0.151 HD
BRANCH   7  19
ATOM     19  C   UNL     1      -5.090 -12.144   3.717  0.00  0.00    +0.132 C 
BRANCH  19  23
ATOM     23  C   UNL     1      -3.949 -12.860   3.074  0.00  0.00    -0.016 C 
ATOM     28  C   UNL     1      -2.668 -12.498   3.211  0.00  0.00    +0.005 C 
ENDBRANCH  19  23
ENDBRANCH   7  19
ENDBRANCH  13   6
TORSDOF 5
ENDMDL
MODEL 3
REMARK VINA RESULT:      -6.9     27.560     30.142
REMARK  Name = 11913358
REMARK  5 active torsions:
REMARK  status: ('A' for Active; 'I' for Inactive)
REMARK    1  A    between atoms: N_5  and  C_12
REMARK    2  A    between atoms: N_6  and  C_13
REMARK    3  A    between atoms: N_7  and  C_19
REMARK    4  A    between atoms: C_18  and  C_22
REMARK    5  A    between atoms: C_19  and  C_23
REMARK                            x       y       z     vdW  Elec       q    Type
REMARK                         _______ _______ _______ _____ _____    ______ ____
ROOT
ATOM      2  O   UNL     1      -7.039 -11.515  18.296  0.00  0.00    -0.370 OA
ATOM      3  O   UNL     1      -7.732 -11.297  15.261  0.00  0.00    -0.370 OA
ATOM     10  C   UNL     1      -6.648 -10.797  16.061  0.00  0.00    +0.171 C 
ATOM     11  C   UNL     1      -7.226 -10.401  17.407  0.00  0.00    +0.171 C 
ATOM     12  C   UNL     1      -5.680 -11.910  16.388  0.00  0.00    +0.130 C 
ATOM     13  C   UNL     1      -8.698 -10.193  17.127  0.00  0.00    +0.131 C 
ATOM     14  C   UNL     1      -6.305 -12.544  17.616  0.00  0.00    +0.185 C 
ATOM     15  C   UNL     1      -8.956 -11.177  16.000  0.00  0.00    +0.185 C 
ENDROOT
BRANCH  12   5
ATOM      5  N   UNL     1      -4.383 -11.358  16.714  0.00  0.00    -0.306 N 
ATOM      8  N   UNL     1      -3.781 -11.148  14.456  0.00  0.00    -0.214 NA
ATOM      9  N   UNL     1      -2.268 -10.476  16.207  0.00  0.00    -0.223 NA
ATOM     16  C   UNL     1      -3.451 -10.982  15.764  0.00  0.00    +0.216 A 
ATOM     18  C   UNL     1      -2.849 -10.772  13.557  0.00  0.00    +0.076 A 
ATOM     20  C   UNL     1      -1.382 -10.120  15.254  0.00  0.00    +0.116 A 
ATOM     21  C   UNL     1      -1.620 -10.247  13.901  0.00  0.00    +0.048 A 
ATOM     30  H   UNL     1      -4.146 -11.182  17.684  0.00  0.00    +0.149 HD
BRANCH  18  22
ATOM      1  F   UNL     1      -3.693  -8.979   9.152  0.00  0.00    -0.205 F 
ATOM     22  C   UNL     1      -3.222 -10.954  12.174  0.00  0.00    +0.003 A 
ATOM     24  C   UNL     1      -3.279  -9.857  11.313  0.00  0.00    +0.048 A 
ATOM     25  C   UNL     1      -3.526 -12.230  11.694  0.00  0.00    +0.010 A 
ATOM     26  C   UNL     1      -3.639 -10.034   9.977  0.00  0.00    +0.124 A 
ATOM     27  C   UNL     1      -3.886 -12.407  10.357  0.00  0.00    +0.003 A 
ATOM     29  C   UNL     1      -3.943 -11.308   9.499  0.00  0.00    +0.038 A 
ENDBRANCH  18  22
ENDBRANCH  12   5
BRANCH  13   6
ATOM      4  O   UNL     1     -11.172  -8.736  17.416  0.00  0.00    -0.253 OA
ATOM      6  N   UNL     1      -8.962  -8.838  16.710  0.00  0.00    -0.292 N 
ATOM      7  N   UNL     1     -10.174  -6.907  16.395  0.00  0.00    -0.296 N 
ATOM     17  C   UNL     1     -10.193  -8.209  16.888  0.00  0.00    +0.300 C 
ATOM     31  H   UNL     1      -8.197  -8.292  16.323  0.00  0.00    +0.151 HD
ATOM     32  H   UNL     1      -9.313  -6.551  15.992  0.00  0.00    +0.151 HD
BRANCH   7  19
ATOM     19  C   UNL     1     -11.320  -6.031  16.452  0.00  0.00    +0.132 C 
BRANCH  19  23
ATOM     23  C   UNL     1     -12.134  -6.210  15.214  0.00  0.00    -0.016 C 
ATOM     28  C   UNL     1     -12.046  -5.415  14.142  0.00  0.00    +0.005 C 
ENDBRANCH  19  23
ENDBRANCH   7  19
ENDBRANCH  13   6
TORSDOF 5
ENDMDL
MODEL 4
REMARK VINA RESULT:      -6.8      5.880      9.247
REMARK  Name = 11913358
REMARK  5 active torsions:
REMARK  status: ('A' for Active; 'I' for Inactive)
REMARK    1  A    between atoms: N_5  and  C_12
REMARK    2  A    between atoms: N_6  and  C_13
REMARK    3  A    between atoms: N_7  and  C_19
REMARK    4  A    between atoms: C_18  and  C_22
REMARK    5  A    between atoms: C_19  and  C_23
REMARK                            x       y       z     vdW  Elec       q    Type
REMARK                         _______ _______ _______ _____ _____    ______ ____
ROOT
ATOM      2  O   UNL     1      19.055   8.541  22.387  0.00  0.00    -0.370 OA
ATOM      3  O   UNL     1      19.294   6.485  20.052  0.00  0.00    -0.370 OA
ATOM     10  C   UNL     1      18.398   6.605  21.170  0.00  0.00    +0.171 C 
ATOM     11  C   UNL     1      19.211   7.113  22.345  0.00  0.00    +0.171 C 
ATOM     12  C   UNL     1      17.389   7.700  20.919  0.00  0.00    +0.130 C 
ATOM     13  C   UNL     1      20.636   6.751  21.991  0.00  0.00    +0.131 C 
ATOM     14  C   UNL     1      18.129   8.945  21.367  0.00  0.00    +0.185 C 
ATOM     15  C   UNL     1      20.622   6.824  20.475  0.00  0.00    +0.185 C 
ENDROOT
BRANCH  12   5
ATOM      5  N   UNL     1      16.217   7.490  21.741  0.00  0.00    -0.306 N 
ATOM      8  N   UNL     1      14.761   8.188  20.038  0.00  0.00    -0.214 NA
ATOM      9  N   UNL     1      13.911   7.489  22.183  0.00  0.00    -0.223 NA
ATOM     16  C   UNL     1      14.925   7.729  21.307  0.00  0.00    +0.216 A 
ATOM     18  C   UNL     1      13.489   8.410  19.649  0.00  0.00    +0.076 A 
ATOM     20  C   UNL     1      12.666   7.733  21.727  0.00  0.00    +0.116 A 
ATOM     21  C   UNL     1      12.391   8.198  20.457  0.00  0.00    +0.048 A 
ATOM     30  H   UNL     1      16.324   7.099  22.671  0.00  0.00    +0.149 HD
BRANCH  18  22
ATOM      1  F   UNL     1      10.793   9.096  15.700  0.00  0.00    -0.205 F 
ATOM     22  C   UNL     1      13.337   8.894  18.297  0.00  0.00    +0.003 A 
ATOM     24  C   UNL     1      12.114   8.758  17.637  0.00  0.00    +0.048 A 
ATOM     25  C   UNL     1      14.414   9.501  17.646  0.00  0.00    +0.010 A 
ATOM     26  C   UNL     1      11.968   9.228  16.332  0.00  0.00    +0.124 A 
ATOM     27  C   UNL     1      14.267   9.970  16.340  0.00  0.00    +0.003 A 
ATOM     29  C   UNL     1      13.044   9.833  15.682  0.00  0.00    +0.038 A 
ENDBRANCH  18  22
ENDBRANCH  12   5
BRANCH  13   6
ATOM      4  O   UNL     1      23.241   5.509  22.002  0.00  0.00    -0.253 OA
ATOM      6  N   UNL     1      20.964   5.422  22.448  0.00  0.00    -0.292 N 
ATOM      7  N   UNL     1      22.289   3.600  22.914  0.00  0.00    -0.296 N 
ATOM     17  C   UNL     1      22.256   4.899  22.416  0.00  0.00    +0.300 C 
ATOM     31  H   UNL     1      20.231   4.860  22.871  0.00  0.00    +0.151 HD
ATOM     32  H   UNL     1      21.427   3.184  23.251  0.00  0.00    +0.151 HD
BRANCH   7  19
ATOM     19  C   UNL     1      23.504   2.823  22.994  0.00  0.00    +0.132 C 
BRANCH  19  23
ATOM     23  C   UNL     1      23.628   1.982  21.767  0.00  0.00    -0.016 C 
ATOM     28  C   UNL     1      24.578   1.057  21.591  0.00  0.00    +0.005 C 
ENDBRANCH  19  23
ENDBRANCH   7  19
ENDBRANCH  13   6
TORSDOF 5
ENDMDL
MODEL 5
REMARK VINA RESULT:      -6.5      2.801      3.164
REMARK  Name = 11913358
REMARK  5 active torsions:
REMARK  status: ('A' for Active; 'I' for Inactive)
REMARK    1  A    between atoms: N_5  and  C_12
REMARK    2  A    between atoms: N_6  and  C_13
REMARK    3  A    between atoms: N_7  and  C_19
REMARK    4  A    between atoms: C_18  and  C_22
REMARK    5  A    between atoms: C_19  and  C_23
REMARK                            x       y       z     vdW  Elec       q    Type
REMARK                         _______ _______ _______ _____ _____    ______ ____
ROOT
ATOM      2  O   UNL     1      11.320  12.252  25.431  0.00  0.00    -0.370 OA
ATOM      3  O   UNL     1      13.376  12.782  23.144  0.00  0.00    -0.370 OA
ATOM     10  C   UNL     1      12.794  11.585  23.687  0.00  0.00    +0.171 C 
ATOM     11  C   UNL     1      12.658  11.789  25.184  0.00  0.00    +0.171 C 
ATOM     12  C   UNL     1      11.372  11.427  23.205  0.00  0.00    +0.130 C 
ATOM     13  C   UNL     1      13.658  12.879  25.499  0.00  0.00    +0.131 C 
ATOM     14  C   UNL     1      10.589  12.266  24.196  0.00  0.00    +0.185 C 
ATOM     15  C   UNL     1      13.668  13.691  24.216  0.00  0.00    +0.185 C 
ENDROOT
BRANCH  12   5
ATOM      5  N   UNL     1      10.970  10.040  23.295  0.00  0.00    -0.306 N 
ATOM      8  N   UNL     1      11.793   9.546  21.154  0.00  0.00    -0.214 NA
ATOM      9  N   UNL     1      10.752   7.841  22.503  0.00  0.00    -0.223 NA
ATOM     16  C   UNL     1      11.178   9.115  22.288  0.00  0.00    +0.216 A 
ATOM     18  C   UNL     1      11.980   8.619  20.193  0.00  0.00    +0.076 A 
ATOM     20  C   UNL     1      10.970   6.967  21.500  0.00  0.00    +0.116 A 
ATOM     21  C   UNL     1      11.586   7.302  20.311  0.00  0.00    +0.048 A 
ATOM     30  H   UNL     1      10.558   9.696  24.156  0.00  0.00    +0.149 HD
BRANCH  18  22
ATOM      1  F   UNL     1      12.054   9.284  15.410  0.00  0.00    -0.205 F 
ATOM     22  C   UNL     1      12.636   9.097  18.999  0.00  0.00    +0.003 A 
ATOM     24  C   UNL     1      12.017   8.957  17.756  0.00  0.00    +0.048 A 
ATOM     25  C   UNL     1      13.893   9.701  19.085  0.00  0.00    +0.010 A 
ATOM     26  C   UNL     1      12.651   9.420  16.602  0.00  0.00    +0.124 A 
ATOM     27  C   UNL     1      14.527  10.163  17.931  0.00  0.00    +0.003 A 
ATOM     29  C   UNL     1      13.906  10.022  16.689  0.00  0.00    +0.038 A 
ENDBRANCH  18  22
ENDBRANCH  12   5
BRANCH  13   6
ATOM      4  O   UNL     1      14.615  11.878  28.031  0.00  0.00    -0.253 OA
ATOM      6  N   UNL     1      14.961  12.325  25.779  0.00  0.00    -0.292 N 
ATOM      7  N   UNL     1      16.648  11.384  27.028  0.00  0.00    -0.296 N 
ATOM     17  C   UNL     1      15.341  11.865  27.038  0.00  0.00    +0.300 C 
ATOM     31  H   UNL     1      15.613  12.208  25.009  0.00  0.00    +0.151 HD
ATOM     32  H   UNL     1      17.166  11.396  26.155  0.00  0.00    +0.151 HD
BRANCH   7  19
ATOM     19  C   UNL     1      17.293  10.847  28.202  0.00  0.00    +0.132 C 
BRANCH  19  23
ATOM     23  C   UNL     1      18.506  11.662  28.509  0.00  0.00    -0.016 C 
ATOM     28  C   UNL     1      18.784  12.834  27.927  0.00  0.00    +0.005 C 
ENDBRANCH  19  23
ENDBRANCH   7  19
ENDBRANCH  13   6
TORSDOF 5
ENDMDL
MODEL 6
REMARK VINA RESULT:      -6.5     28.662     30.623
REMARK  Name = 11913358
REMARK  5 active torsions:
REMARK  status: ('A' for Active; 'I' for Inactive)
REMARK    1  A    between atoms: N_5  and  C_12
REMARK    2  A    between atoms: N_6  and  C_13
REMARK    3  A    between atoms: N_7  and  C_19
REMARK    4  A    between atoms: C_18  and  C_22
REMARK    5  A    between atoms: C_19  and  C_23
REMARK                            x       y       z     vdW  Elec       q    Type
REMARK                         _______ _______ _______ _____ _____    ______ ____
ROOT
ATOM      2  O   UNL     1      -1.659  -9.885  12.907  0.00  0.00    -0.370 OA
ATOM      3  O   UNL     1      -2.689 -12.783  12.377  0.00  0.00    -0.370 OA
ATOM     10  C   UNL     1      -3.343 -11.505  12.463  0.00  0.00    +0.171 C 
ATOM     11  C   UNL     1      -2.642 -10.713  13.550  0.00  0.00    +0.171 C 
ATOM     12  C   UNL     1      -3.098 -10.705  11.206  0.00  0.00    +0.130 C 
ATOM     13  C   UNL     1      -1.969 -11.768  14.398  0.00  0.00    +0.131 C 
ATOM     14  C   UNL     1      -1.761 -10.048  11.485  0.00  0.00    +0.185 C 
ATOM     15  C   UNL     1      -1.669 -12.857  13.384  0.00  0.00    +0.185 C 
ENDROOT
BRANCH  12   5
ATOM      5  N   UNL     1      -4.128  -9.700  11.051  0.00  0.00    -0.306 N 
ATOM      8  N   UNL     1      -4.639 -10.401   8.870  0.00  0.00    -0.214 NA
ATOM      9  N   UNL     1      -5.823  -8.566   9.890  0.00  0.00    -0.223 NA
ATOM     16  C   UNL     1      -4.886  -9.552   9.903  0.00  0.00    +0.216 A 
ATOM     18  C   UNL     1      -5.396 -10.228   7.768  0.00  0.00    +0.076 A 
ATOM     20  C   UNL     1      -6.543  -8.449   8.755  0.00  0.00    +0.116 A 
ATOM     21  C   UNL     1      -6.372  -9.260   7.652  0.00  0.00    +0.048 A 
ATOM     30  H   UNL     1      -4.356  -9.096  11.833  0.00  0.00    +0.149 HD
BRANCH  18  22
ATOM      1  F   UNL     1      -6.013 -11.640   3.191  0.00  0.00    -0.205 F 
ATOM     22  C   UNL     1      -5.119 -11.141   6.685  0.00  0.00    +0.003 A 
ATOM     24  C   UNL     1      -5.712 -10.947   5.435  0.00  0.00    +0.048 A 
ATOM     25  C   UNL     1      -4.256 -12.222   6.883  0.00  0.00    +0.010 A 
ATOM     26  C   UNL     1      -5.443 -11.829   4.389  0.00  0.00    +0.124 A 
ATOM     27  C   UNL     1      -3.988 -13.105   5.836  0.00  0.00    +0.003 A 
ATOM     29  C   UNL     1      -4.582 -12.908   4.589  0.00  0.00    +0.038 A 
ENDBRANCH  18  22
ENDBRANCH  12   5
BRANCH  13   6
ATOM      4  O   UNL     1      -2.543 -10.488  16.921  0.00  0.00    -0.253 OA
ATOM      6  N   UNL     1      -2.853 -12.245  15.434  0.00  0.00    -0.292 N 
ATOM      7  N   UNL     1      -3.967 -12.243  17.448  0.00  0.00    -0.296 N 
ATOM     17  C   UNL     1      -3.071 -11.560  16.628  0.00  0.00    +0.300 C 
ATOM     31  H   UNL     1      -3.390 -13.090  15.261  0.00  0.00    +0.151 HD
ATOM     32  H   UNL     1      -4.367 -13.113  17.113  0.00  0.00    +0.151 HD
BRANCH   7  19
ATOM     19  C   UNL     1      -4.370 -11.754  18.745  0.00  0.00    +0.132 C 
BRANCH  19  23
ATOM     23  C   UNL     1      -5.509 -10.805  18.576  0.00  0.00    -0.016 C 
ATOM     28  C   UNL     1      -6.481 -10.638  19.480  0.00  0.00    +0.005 C 
ENDBRANCH  19  23
ENDBRANCH   7  19
ENDBRANCH  13   6
TORSDOF 5
ENDMDL
MODEL 7
REMARK VINA RESULT:      -6.5     12.402     14.033
REMARK  Name = 11913358
REMARK  5 active torsions:
REMARK  status: ('A' for Active; 'I' for Inactive)
REMARK    1  A    between atoms: N_5  and  C_12
REMARK    2  A    between atoms: N_6  and  C_13
REMARK    3  A    between atoms: N_7  and  C_19
REMARK    4  A    between atoms: C_18  and  C_22
REMARK    5  A    between atoms: C_19  and  C_23
REMARK                            x       y       z     vdW  Elec       q    Type
REMARK                         _______ _______ _______ _____ _____    ______ ____
ROOT
ATOM      2  O   UNL     1      19.165  -2.501  31.949  0.00  0.00    -0.370 OA
ATOM      3  O   UNL     1      16.644  -2.306  30.120  0.00  0.00    -0.370 OA
ATOM     10  C   UNL     1      17.954  -1.717  30.057  0.00  0.00    +0.171 C 
ATOM     11  C   UNL     1      18.372  -1.398  31.480  0.00  0.00    +0.171 C 
ATOM     12  C   UNL     1      18.966  -2.737  29.595  0.00  0.00    +0.130 C 
ATOM     13  C   UNL     1      17.067  -1.326  32.240  0.00  0.00    +0.131 C 
ATOM     14  C   UNL     1      19.338  -3.446  30.883  0.00  0.00    +0.185 C 
ATOM     15  C   UNL     1      16.197  -2.314  31.483  0.00  0.00    +0.185 C 
ENDROOT
BRANCH  12   5
ATOM      5  N   UNL     1      20.123  -2.070  29.038  0.00  0.00    -0.306 N 
ATOM      8  N   UNL     1      19.262  -2.154  26.857  0.00  0.00    -0.214 NA
ATOM      9  N   UNL     1      21.407  -1.148  27.303  0.00  0.00    -0.223 NA
ATOM     16  C   UNL     1      20.268  -1.782  27.693  0.00  0.00    +0.216 A 
ATOM     18  C   UNL     1      19.436  -1.857  25.553  0.00  0.00    +0.076 A 
ATOM     20  C   UNL     1      21.515  -0.884  25.985  0.00  0.00    +0.116 A 
ATOM     21  C   UNL     1      20.552  -1.218  25.054  0.00  0.00    +0.048 A 
ATOM     30  H   UNL     1      20.855  -1.742  29.659  0.00  0.00    +0.149 HD
BRANCH  18  22
ATOM      1  F   UNL     1      15.999  -0.780  22.336  0.00  0.00    -0.205 F 
ATOM     22  C   UNL     1      18.356  -2.259  24.684  0.00  0.00    +0.003 A 
ATOM     24  C   UNL     1      17.684  -1.307  23.914  0.00  0.00    +0.048 A 
ATOM     25  C   UNL     1      17.978  -3.602  24.611  0.00  0.00    +0.010 A 
ATOM     26  C   UNL     1      16.641  -1.696  23.074  0.00  0.00    +0.124 A 
ATOM     27  C   UNL     1      16.934  -3.991  23.771  0.00  0.00    +0.003 A 
ATOM     29  C   UNL     1      16.265  -3.037  23.002  0.00  0.00    +0.038 A 
ENDBRANCH  18  22
ENDBRANCH  12   5
BRANCH  13   6
ATOM      4  O   UNL     1      17.777   0.913  33.917  0.00  0.00    -0.253 OA
ATOM      6  N   UNL     1      16.511   0.004  32.195  0.00  0.00    -0.292 N 
ATOM      7  N   UNL     1      16.214   2.207  32.790  0.00  0.00    -0.296 N 
ATOM     17  C   UNL     1      16.913   1.031  33.048  0.00  0.00    +0.300 C 
ATOM     31  H   UNL     1      15.837   0.223  31.467  0.00  0.00    +0.151 HD
ATOM     32  H   UNL     1      15.532   2.214  32.038  0.00  0.00    +0.151 HD
BRANCH   7  19
ATOM     19  C   UNL     1      16.436   3.427  33.529  0.00  0.00    +0.132 C 
BRANCH  19  23
ATOM     23  C   UNL     1      17.064   4.437  32.627  0.00  0.00    -0.016 C 
ATOM     28  C   UNL     1      16.792   4.543  31.322  0.00  0.00    +0.005 C 
ENDBRANCH  19  23
ENDBRANCH   7  19
ENDBRANCH  13   6
TORSDOF 5
ENDMDL
MODEL 8
REMARK VINA RESULT:      -6.5     28.165     31.023
REMARK  Name = 11913358
REMARK  5 active torsions:
REMARK  status: ('A' for Active; 'I' for Inactive)
REMARK    1  A    between atoms: N_5  and  C_12
REMARK    2  A    between atoms: N_6  and  C_13
REMARK    3  A    between atoms: N_7  and  C_19
REMARK    4  A    between atoms: C_18  and  C_22
REMARK    5  A    between atoms: C_19  and  C_23
REMARK                            x       y       z     vdW  Elec       q    Type
REMARK                         _______ _______ _______ _____ _____    ______ ____
ROOT
ATOM      2  O   UNL     1      -9.992 -10.279  15.808  0.00  0.00    -0.370 OA
ATOM      3  O   UNL     1     -10.070  -7.179  16.150  0.00  0.00    -0.370 OA
ATOM     10  C   UNL     1      -9.904  -8.267  17.074  0.00  0.00    +0.171 C 
ATOM     11  C   UNL     1     -10.799  -9.397  16.604  0.00  0.00    +0.171 C 
ATOM     12  C   UNL     1      -8.508  -8.835  16.970  0.00  0.00    +0.130 C 
ATOM     13  C   UNL     1     -11.836  -8.711  15.743  0.00  0.00    +0.131 C 
ATOM     14  C   UNL     1      -8.633  -9.817  15.822  0.00  0.00    +0.185 C 
ATOM     15  C   UNL     1     -11.060  -7.537  15.174  0.00  0.00    +0.185 C 
ENDROOT
BRANCH  12   5
ATOM      5  N   UNL     1      -8.165  -9.531  18.191  0.00  0.00    -0.306 N 
ATOM      8  N   UNL     1      -6.058 -10.159  17.371  0.00  0.00    -0.214 NA
ATOM      9  N   UNL     1      -6.765 -10.797  19.586  0.00  0.00    -0.223 NA
ATOM     16  C   UNL     1      -6.960 -10.181  18.388  0.00  0.00    +0.216 A 
ATOM     18  C   UNL     1      -4.894 -10.803  17.598  0.00  0.00    +0.076 A 
ATOM     20  C   UNL     1      -5.580 -11.421  19.744  0.00  0.00    +0.116 A 
ATOM     21  C   UNL     1      -4.597 -11.457  18.776  0.00  0.00    +0.048 A 
ATOM     30  H   UNL     1      -8.809  -9.510  18.974  0.00  0.00    +0.149 HD
BRANCH  18  22
ATOM      1  F   UNL     1      -3.930 -10.465  12.878  0.00  0.00    -0.205 F 
ATOM     22  C   UNL     1      -3.951 -10.766  16.506  0.00  0.00    +0.003 A 
ATOM     24  C   UNL     1      -4.404 -10.631  15.193  0.00  0.00    +0.048 A 
ATOM     25  C   UNL     1      -2.581 -10.866  16.761  0.00  0.00    +0.010 A 
ATOM     26  C   UNL     1      -3.492 -10.595  14.138  0.00  0.00    +0.124 A 
ATOM     27  C   UNL     1      -1.669 -10.830  15.706  0.00  0.00    +0.003 A 
ATOM     29  C   UNL     1      -2.124 -10.695  14.394  0.00  0.00    +0.038 A 
ENDBRANCH  18  22
ENDBRANCH  12   5
BRANCH  13   6
ATOM      4  O   UNL     1     -14.556  -8.341  14.851  0.00  0.00    -0.253 OA
ATOM      6  N   UNL     1     -12.957  -8.265  16.534  0.00  0.00    -0.292 N 
ATOM      7  N   UNL     1     -15.131  -7.668  16.996  0.00  0.00    -0.296 N 
ATOM     17  C   UNL     1     -14.243  -8.111  16.019  0.00  0.00    +0.300 C 
ATOM     31  H   UNL     1     -12.818  -8.113  17.529  0.00  0.00    +0.151 HD
ATOM     32  H   UNL     1     -14.785  -7.523  17.939  0.00  0.00    +0.151 HD
BRANCH   7  19
ATOM     19  C   UNL     1     -16.529  -7.427  16.731  0.00  0.00    +0.132 C 
BRANCH  19  23
ATOM     23  C   UNL     1     -16.936  -6.147  17.384  0.00  0.00    -0.016 C 
ATOM     28  C   UNL     1     -16.974  -5.965  18.709  0.00  0.00    +0.005 C 
ENDBRANCH  19  23
ENDBRANCH   7  19
ENDBRANCH  13   6
TORSDOF 5
ENDMDL
MODEL 9
REMARK VINA RESULT:      -6.4     19.208     22.421
REMARK  Name = 11913358
REMARK  5 active torsions:
REMARK  status: ('A' for Active; 'I' for Inactive)
REMARK    1  A    between atoms: N_5  and  C_12
REMARK    2  A    between atoms: N_6  and  C_13
REMARK    3  A    between atoms: N_7  and  C_19
REMARK    4  A    between atoms: C_18  and  C_22
REMARK    5  A    between atoms: C_19  and  C_23
REMARK                            x       y       z     vdW  Elec       q    Type
REMARK                         _______ _______ _______ _____ _____    ______ ____
ROOT
ATOM      2  O   UNL     1       6.954  11.495   1.546  0.00  0.00    -0.370 OA
ATOM      3  O   UNL     1       5.340  10.161   3.859  0.00  0.00    -0.370 OA
ATOM     10  C   UNL     1       6.104   9.635   2.762  0.00  0.00    +0.171 C 
ATOM     11  C   UNL     1       5.873  10.548   1.573  0.00  0.00    +0.171 C 
ATOM     12  C   UNL     1       7.582   9.762   3.043  0.00  0.00    +0.130 C 
ATOM     13  C   UNL     1       4.571  11.246   1.894  0.00  0.00    +0.131 C 
ATOM     14  C   UNL     1       7.888  11.176   2.588  0.00  0.00    +0.185 C 
ATOM     15  C   UNL     1       4.599  11.305   3.411  0.00  0.00    +0.185 C 
ENDROOT
BRANCH  12   5
ATOM      5  N   UNL     1       8.322   8.808   2.245  0.00  0.00    -0.306 N 
ATOM      8  N   UNL     1       8.884   7.510   4.117  0.00  0.00    -0.214 NA
ATOM      9  N   UNL     1       9.621   6.882   1.910  0.00  0.00    -0.223 NA
ATOM     16  C   UNL     1       8.960   7.701   2.773  0.00  0.00    +0.216 A 
ATOM     18  C   UNL     1       9.518   6.421   4.598  0.00  0.00    +0.076 A 
ATOM     20  C   UNL     1      10.232   5.813   2.458  0.00  0.00    +0.116 A 
ATOM     21  C   UNL     1      10.215   5.528   3.809  0.00  0.00    +0.048 A 
ATOM     30  H   UNL     1       8.342   8.912   1.237  0.00  0.00    +0.149 HD
BRANCH  18  22
ATOM      1  F   UNL     1      10.000   3.653   8.526  0.00  0.00    -0.205 F 
ATOM     22  C   UNL     1       9.423   6.236   6.026  0.00  0.00    +0.003 A 
ATOM     24  C   UNL     1       9.763   5.009   6.599  0.00  0.00    +0.048 A 
ATOM     25  C   UNL     1       8.990   7.285   6.840  0.00  0.00    +0.010 A 
ATOM     26  C   UNL     1       9.672   4.832   7.979  0.00  0.00    +0.124 A 
ATOM     27  C   UNL     1       8.898   7.107   8.221  0.00  0.00    +0.003 A 
ATOM     29  C   UNL     1       9.238   5.880   8.791  0.00  0.00    +0.038 A 
ENDBRANCH  18  22
ENDBRANCH  12   5
BRANCH  13   6
ATOM      4  O   UNL     1       2.067  12.283   0.902  0.00  0.00    -0.253 OA
ATOM      6  N   UNL     1       3.441  10.484   1.420  0.00  0.00    -0.292 N 
ATOM      7  N   UNL     1       1.339  10.106   0.564  0.00  0.00    -0.296 N 
ATOM     17  C   UNL     1       2.264  11.070   0.958  0.00  0.00    +0.300 C 
ATOM     31  H   UNL     1       3.528   9.474   1.363  0.00  0.00    +0.151 HD
ATOM     32  H   UNL     1       1.598   9.127   0.628  0.00  0.00    +0.151 HD
BRANCH   7  19
ATOM     19  C   UNL     1       0.034  10.439   0.044  0.00  0.00    +0.132 C 
BRANCH  19  23
ATOM     23  C   UNL     1      -1.003   9.684   0.807  0.00  0.00    -0.016 C 
ATOM     28  C   UNL     1      -1.171   9.779   2.131  0.00  0.00    +0.005 C 
ENDBRANCH  19  23
ENDBRANCH   7  19
ENDBRANCH  13   6
TORSDOF 5
ENDMDL
MODEL 10
REMARK VINA RESULT:      -6.4     28.867     32.032
REMARK  Name = 11913358
REMARK  5 active torsions:
REMARK  status: ('A' for Active; 'I' for Inactive)
REMARK    1  A    between atoms: N_5  and  C_12
REMARK    2  A    between atoms: N_6  and  C_13
REMARK    3  A    between atoms: N_7  and  C_19
REMARK    4  A    between atoms: C_18  and  C_22
REMARK    5  A    between atoms: C_19  and  C_23
REMARK                            x       y       z     vdW  Elec       q    Type
REMARK                         _______ _______ _______ _____ _____    ______ ____
ROOT
ATOM      2  O   UNL     1      -4.797 -11.525  19.639  0.00  0.00    -0.370 OA
ATOM      3  O   UNL     1      -6.399 -10.741  17.078  0.00  0.00    -0.370 OA
ATOM     10  C   UNL     1      -6.331 -11.940  17.868  0.00  0.00    +0.171 C 
ATOM     11  C   UNL     1      -4.893 -12.098  18.324  0.00  0.00    +0.171 C 
ATOM     12  C   UNL     1      -7.109 -11.768  19.151  0.00  0.00    +0.130 C 
ATOM     13  C   UNL     1      -4.101 -11.276  17.333  0.00  0.00    +0.131 C 
ATOM     14  C   UNL     1      -6.100 -11.099  20.065  0.00  0.00    +0.185 C 
ATOM     15  C   UNL     1      -5.083 -10.180  16.961  0.00  0.00    +0.185 C 
ENDROOT
BRANCH  12   5
ATOM      5  N   UNL     1      -7.484 -13.061  19.681  0.00  0.00    -0.306 N 
ATOM      8  N   UNL     1      -9.718 -12.413  19.984  0.00  0.00    -0.214 NA
ATOM      9  N   UNL     1      -8.984 -14.634  20.566  0.00  0.00    -0.223 NA
ATOM     16  C   UNL     1      -8.766 -13.378  20.088  0.00  0.00    +0.216 A 
ATOM     18  C   UNL     1     -10.958 -12.757  20.390  0.00  0.00    +0.076 A 
ATOM     20  C   UNL     1     -10.245 -14.909  20.955  0.00  0.00    +0.116 A 
ATOM     21  C   UNL     1     -11.283 -14.002  20.889  0.00  0.00    +0.048 A 
ATOM     30  H   UNL     1      -6.794 -13.804  19.715  0.00  0.00    +0.149 HD
BRANCH  18  22
ATOM      1  F   UNL     1     -12.740  -8.879  18.130  0.00  0.00    -0.205 F 
ATOM     22  C   UNL     1     -11.953 -11.719  20.269  0.00  0.00    +0.003 A 
ATOM     24  C   UNL     1     -11.864 -10.781  19.238  0.00  0.00    +0.048 A 
ATOM     25  C   UNL     1     -13.007 -11.648  21.183  0.00  0.00    +0.010 A 
ATOM     26  C   UNL     1     -12.827  -9.778  19.120  0.00  0.00    +0.124 A 
ATOM     27  C   UNL     1     -13.969 -10.644  21.065  0.00  0.00    +0.003 A 
ATOM     29  C   UNL     1     -13.878  -9.708  20.034  0.00  0.00    +0.038 A 
ENDBRANCH  18  22
ENDBRANCH  12   5
BRANCH  13   6
ATOM      4  O   UNL     1      -2.213 -10.560  15.270  0.00  0.00    -0.253 OA
ATOM      6  N   UNL     1      -3.733 -12.062  16.181  0.00  0.00    -0.292 N 
ATOM      7  N   UNL     1      -2.642 -12.587  14.224  0.00  0.00    -0.296 N 
ATOM     17  C   UNL     1      -2.808 -11.637  15.228  0.00  0.00    +0.300 C 
ATOM     31  H   UNL     1      -4.119 -12.997  16.089  0.00  0.00    +0.151 HD
ATOM     32  H   UNL     1      -3.162 -13.456  14.283  0.00  0.00    +0.151 HD
BRANCH   7  19
ATOM     19  C   UNL     1      -1.740 -12.400  13.112  0.00  0.00    +0.132 C 
BRANCH  19  23
ATOM     23  C   UNL     1      -2.424 -11.592  12.060  0.00  0.00    -0.016 C 
ATOM     28  C   UNL     1      -2.068 -10.346  11.727  0.00  0.00    +0.005 C 
ENDBRANCH  19  23
ENDBRANCH   7  19
ENDBRANCH  13   6
TORSDOF 5
ENDMDL
