MODEL 1
REMARK VINA RESULT:      -6.0      0.000      0.000
REMARK  Name = 7128128
REMARK  15 active torsions:
REMARK  status: ('A' for Active; 'I' for Inactive)
REMARK    1  A    between atoms: S_1  and  C_20
REMARK    2  A    between atoms: S_1  and  C_26
REMARK    3  A    between atoms: O_5  and  C_22
REMARK    4  A    between atoms: O_5  and  C_29
REMARK    5  A    between atoms: O_7  and  C_30
REMARK    6  A    between atoms: O_7  and  C_33
REMARK    7  A    between atoms: N_9  and  C_12
REMARK    8  A    between atoms: N_10  and  C_18
REMARK    9  A    between atoms: N_11  and  C_25
REMARK   10  A    between atoms: C_13  and  C_16
REMARK   11  A    between atoms: C_17  and  C_20
REMARK   12  A    between atoms: C_18  and  C_19
REMARK   13  A    between atoms: C_18  and  C_22
REMARK   14  A    between atoms: C_19  and  C_23
REMARK   15  A    between atoms: C_19  and  C_24
REMARK                            x       y       z     vdW  Elec       q    Type
REMARK                         _______ _______ _______ _____ _____    ______ ____
ROOT
ATOM      3  O   UNL     1      -5.653 -13.727  14.791  0.00  0.00    -0.275 OA
ATOM      8  N   UNL     1      -5.065 -12.796  16.827  0.00  0.00    -0.287 N 
ATOM     12  C   UNL     1      -5.124 -10.588  17.690  0.00  0.00    +0.105 C 
ATOM     13  C   UNL     1      -5.130 -11.403  16.397  0.00  0.00    +0.182 C 
ATOM     14  C   UNL     1      -4.374 -11.488  18.675  0.00  0.00    +0.043 C 
ATOM     15  C   UNL     1      -4.768 -12.897  18.253  0.00  0.00    +0.110 C 
ATOM     17  C   UNL     1      -5.408 -13.848  15.993  0.00  0.00    +0.226 C 
ENDROOT
BRANCH  12   9
ATOM      4  O   UNL     1      -7.224  -9.357  16.181  0.00  0.00    -0.252 OA
ATOM      9  N   UNL     1      -6.469 -10.324  18.141  0.00  0.00    -0.294 N 
ATOM     11  N   UNL     1      -8.642  -9.589  18.037  0.00  0.00    -0.269 N 
ATOM     21  C   UNL     1      -7.439  -9.716  17.336  0.00  0.00    +0.304 C 
ATOM     34  H   UNL     1      -6.746 -10.651  19.062  0.00  0.00    +0.151 HD
ATOM     36  H   UNL     1      -8.652  -9.938  18.992  0.00  0.00    +0.156 HD
BRANCH  11  25
ATOM     25  C   UNL     1      -9.859  -9.031  17.580  0.00  0.00    +0.038 A 
ATOM     27  C   UNL     1      -9.881  -7.737  17.060  0.00  0.00    +0.069 A 
ATOM     28  C   UNL     1     -11.037  -9.775  17.650  0.00  0.00    +0.023 A 
ATOM     30  C   UNL     1     -11.080  -7.187  16.609  0.00  0.00    +0.122 A 
ATOM     31  C   UNL     1     -12.237  -9.225  17.200  0.00  0.00    +0.005 A 
ATOM     32  C   UNL     1     -12.258  -7.931  16.679  0.00  0.00    +0.046 A 
BRANCH  30   7
ATOM      7  O   UNL     1     -11.102  -5.924  16.102  0.00  0.00    -0.495 OA
ATOM     33  C   UNL     1     -11.845  -5.719  14.901  0.00  0.00    +0.277 C 
ENDBRANCH  30   7
ENDBRANCH  11  25
ENDBRANCH  12   9
BRANCH  13  16
ATOM      2  O   UNL     1      -2.842 -10.783  16.099  0.00  0.00    -0.274 OA
ATOM     10  N   UNL     1      -4.109 -11.354  14.230  0.00  0.00    -0.301 N 
ATOM     16  C   UNL     1      -3.896 -11.150  15.583  0.00  0.00    +0.236 C 
ATOM     35  H   UNL     1      -5.031 -11.637  13.912  0.00  0.00    +0.150 HD
BRANCH  10  18
ATOM     18  C   UNL     1      -3.085 -11.157  13.230  0.00  0.00    +0.184 C 
BRANCH  18  19
ATOM     19  C   UNL     1      -3.662 -10.665  11.885  0.00  0.00    +0.014 C 
ATOM     23  C   UNL     1      -2.660  -9.855  11.056  0.00  0.00    +0.009 C 
ATOM     24  C   UNL     1      -4.943  -9.853  12.095  0.00  0.00    +0.009 C 
ENDBRANCH  18  19
BRANCH  18  22
ATOM      6  O   UNL     1      -1.223 -12.626  13.708  0.00  0.00    -0.249 OA
ATOM     22  C   UNL     1      -2.232 -12.407  13.044  0.00  0.00    +0.328 C 
BRANCH  22   5
ATOM      5  O   UNL     1      -2.722 -13.226  12.072  0.00  0.00    -0.467 OA
ATOM     29  C   UNL     1      -2.793 -14.616  12.406  0.00  0.00    +0.280 C 
ENDBRANCH  22   5
ENDBRANCH  18  22
ENDBRANCH  10  18
ENDBRANCH  13  16
BRANCH  17  20
ATOM     20  C   UNL     1      -5.459 -15.207  16.647  0.00  0.00    +0.164 C 
BRANCH  20   1
ATOM      1  S   UNL     1      -4.870 -16.413  15.450  0.00  0.00    -0.155 S 
ATOM     26  C   UNL     1      -3.222 -16.706  16.137  0.00  0.00    +0.085 C 
ENDBRANCH  20   1
ENDBRANCH  17  20
TORSDOF 10
ENDMDL
MODEL 2
REMARK VINA RESULT:      -6.0     29.863     31.605
REMARK  Name = 7128128
REMARK  15 active torsions:
REMARK  status: ('A' for Active; 'I' for Inactive)
REMARK    1  A    between atoms: S_1  and  C_20
REMARK    2  A    between atoms: S_1  and  C_26
REMARK    3  A    between atoms: O_5  and  C_22
REMARK    4  A    between atoms: O_5  and  C_29
REMARK    5  A    between atoms: O_7  and  C_30
REMARK    6  A    between atoms: O_7  and  C_33
REMARK    7  A    between atoms: N_9  and  C_12
REMARK    8  A    between atoms: N_10  and  C_18
REMARK    9  A    between atoms: N_11  and  C_25
REMARK   10  A    between atoms: C_13  and  C_16
REMARK   11  A    between atoms: C_17  and  C_20
REMARK   12  A    between atoms: C_18  and  C_19
REMARK   13  A    between atoms: C_18  and  C_22
REMARK   14  A    between atoms: C_19  and  C_23
REMARK   15  A    between atoms: C_19  and  C_24
REMARK                            x       y       z     vdW  Elec       q    Type
REMARK                         _______ _______ _______ _____ _____    ______ ____
ROOT
ATOM      3  O   UNL     1      21.135   6.033  24.534  0.00  0.00    -0.275 OA
ATOM      8  N   UNL     1      20.128   7.604  23.164  0.00  0.00    -0.287 N 
ATOM     12  C   UNL     1      18.610   7.453  21.348  0.00  0.00    +0.105 C 
ATOM     13  C   UNL     1      19.625   6.659  22.171  0.00  0.00    +0.182 C 
ATOM     14  C   UNL     1      19.110   8.895  21.462  0.00  0.00    +0.043 C 
ATOM     15  C   UNL     1      19.700   8.967  22.864  0.00  0.00    +0.110 C 
ATOM     17  C   UNL     1      20.787   7.194  24.313  0.00  0.00    +0.226 C 
ENDROOT
BRANCH  12   9
ATOM      4  O   UNL     1      16.151   8.188  20.075  0.00  0.00    -0.252 OA
ATOM      9  N   UNL     1      17.281   7.313  21.893  0.00  0.00    -0.294 N 
ATOM     11  N   UNL     1      14.990   7.445  21.975  0.00  0.00    -0.269 N 
ATOM     21  C   UNL     1      16.127   7.698  21.202  0.00  0.00    +0.304 C 
ATOM     34  H   UNL     1      17.171   6.854  22.793  0.00  0.00    +0.151 HD
ATOM     36  H   UNL     1      15.145   7.036  22.893  0.00  0.00    +0.156 HD
BRANCH  11  25
ATOM     25  C   UNL     1      13.639   7.691  21.639  0.00  0.00    +0.038 A 
ATOM     27  C   UNL     1      12.979   8.801  22.167  0.00  0.00    +0.069 A 
ATOM     28  C   UNL     1      12.965   6.823  20.778  0.00  0.00    +0.023 A 
ATOM     30  C   UNL     1      11.646   9.043  21.834  0.00  0.00    +0.122 A 
ATOM     31  C   UNL     1      11.632   7.065  20.446  0.00  0.00    +0.005 A 
ATOM     32  C   UNL     1      10.973   8.175  20.974  0.00  0.00    +0.046 A 
BRANCH  30   7
ATOM      7  O   UNL     1      11.002  10.126  22.350  0.00  0.00    -0.495 OA
ATOM     33  C   UNL     1      11.358  11.404  21.825  0.00  0.00    +0.277 C 
ENDBRANCH  30   7
ENDBRANCH  11  25
ENDBRANCH  12   9
BRANCH  13  16
ATOM      2  O   UNL     1      21.170   6.899  20.366  0.00  0.00    -0.274 OA
ATOM     10  N   UNL     1      21.374   5.068  21.789  0.00  0.00    -0.301 N 
ATOM     16  C   UNL     1      20.803   6.246  21.340  0.00  0.00    +0.236 C 
ATOM     35  H   UNL     1      20.971   4.599  22.596  0.00  0.00    +0.150 HD
BRANCH  10  18
ATOM     18  C   UNL     1      22.509   4.444  21.148  0.00  0.00    +0.184 C 
BRANCH  18  19
ATOM     19  C   UNL     1      22.674   2.962  21.551  0.00  0.00    +0.014 C 
ATOM     23  C   UNL     1      22.760   2.752  23.066  0.00  0.00    +0.009 C 
ATOM     24  C   UNL     1      23.890   2.334  20.866  0.00  0.00    +0.009 C 
ENDBRANCH  18  19
BRANCH  18  22
ATOM      6  O   UNL     1      24.171   5.554  22.510  0.00  0.00    -0.249 OA
ATOM     22  C   UNL     1      23.793   5.231  21.388  0.00  0.00    +0.328 C 
BRANCH  22   5
ATOM      5  O   UNL     1      24.445   5.520  20.228  0.00  0.00    -0.467 OA
ATOM     29  C   UNL     1      25.107   6.789  20.186  0.00  0.00    +0.280 C 
ENDBRANCH  22   5
ENDBRANCH  18  22
ENDBRANCH  10  18
ENDBRANCH  13  16
BRANCH  17  20
ATOM     20  C   UNL     1      21.080   8.281  25.317  0.00  0.00    +0.164 C 
BRANCH  20   1
ATOM      1  S   UNL     1      20.287   7.824  26.865  0.00  0.00    -0.155 S 
ATOM     26  C   UNL     1      19.843   9.477  27.452  0.00  0.00    +0.085 C 
ENDBRANCH  20   1
ENDBRANCH  17  20
TORSDOF 10
ENDMDL
MODEL 3
REMARK VINA RESULT:      -5.8     25.433     28.254
REMARK  Name = 7128128
REMARK  15 active torsions:
REMARK  status: ('A' for Active; 'I' for Inactive)
REMARK    1  A    between atoms: S_1  and  C_20
REMARK    2  A    between atoms: S_1  and  C_26
REMARK    3  A    between atoms: O_5  and  C_22
REMARK    4  A    between atoms: O_5  and  C_29
REMARK    5  A    between atoms: O_7  and  C_30
REMARK    6  A    between atoms: O_7  and  C_33
REMARK    7  A    between atoms: N_9  and  C_12
REMARK    8  A    between atoms: N_10  and  C_18
REMARK    9  A    between atoms: N_11  and  C_25
REMARK   10  A    between atoms: C_13  and  C_16
REMARK   11  A    between atoms: C_17  and  C_20
REMARK   12  A    between atoms: C_18  and  C_19
REMARK   13  A    between atoms: C_18  and  C_22
REMARK   14  A    between atoms: C_19  and  C_23
REMARK   15  A    between atoms: C_19  and  C_24
REMARK                            x       y       z     vdW  Elec       q    Type
REMARK                         _______ _______ _______ _____ _____    ______ ____
ROOT
ATOM      3  O   UNL     1      11.755   9.371   5.356  0.00  0.00    -0.275 OA
ATOM      8  N   UNL     1      11.089   7.453   6.469  0.00  0.00    -0.287 N 
ATOM     12  C   UNL     1       9.597   5.690   5.933  0.00  0.00    +0.105 C 
ATOM     13  C   UNL     1       9.969   7.132   5.589  0.00  0.00    +0.182 C 
ATOM     14  C   UNL     1      10.032   5.548   7.393  0.00  0.00    +0.043 C 
ATOM     15  C   UNL     1      11.271   6.427   7.492  0.00  0.00    +0.110 C 
ATOM     17  C   UNL     1      11.940   8.521   6.230  0.00  0.00    +0.226 C 
ENDROOT
BRANCH  12   9
ATOM      4  O   UNL     1      10.251   6.052   3.167  0.00  0.00    -0.252 OA
ATOM      9  N   UNL     1      10.299   4.758   5.083  0.00  0.00    -0.294 N 
ATOM     11  N   UNL     1      11.267   3.936   3.170  0.00  0.00    -0.269 N 
ATOM     21  C   UNL     1      10.580   5.013   3.737  0.00  0.00    +0.304 C 
ATOM     34  H   UNL     1      10.664   3.905   5.496  0.00  0.00    +0.151 HD
ATOM     36  H   UNL     1      11.461   3.147   3.783  0.00  0.00    +0.156 HD
BRANCH  11  25
ATOM     25  C   UNL     1      11.729   3.803   1.840  0.00  0.00    +0.038 A 
ATOM     27  C   UNL     1      10.848   3.983   0.774  0.00  0.00    +0.069 A 
ATOM     28  C   UNL     1      13.067   3.490   1.595  0.00  0.00    +0.023 A 
ATOM     30  C   UNL     1      11.304   3.853  -0.537  0.00  0.00    +0.122 A 
ATOM     31  C   UNL     1      13.523   3.359   0.283  0.00  0.00    +0.005 A 
ATOM     32  C   UNL     1      12.642   3.540  -0.782  0.00  0.00    +0.046 A 
BRANCH  30   7
ATOM      7  O   UNL     1      10.445   4.029  -1.578  0.00  0.00    -0.495 OA
ATOM     33  C   UNL     1      10.755   3.357  -2.797  0.00  0.00    +0.277 C 
ENDBRANCH  30   7
ENDBRANCH  11  25
ENDBRANCH  12   9
BRANCH  13  16
ATOM      2  O   UNL     1       8.103   7.874   6.881  0.00  0.00    -0.274 OA
ATOM     10  N   UNL     1       8.811   9.165   5.078  0.00  0.00    -0.301 N 
ATOM     16  C   UNL     1       8.864   8.083   5.940  0.00  0.00    +0.236 C 
ATOM     35  H   UNL     1       9.481   9.225   4.316  0.00  0.00    +0.150 HD
BRANCH  10  18
ATOM     18  C   UNL     1       7.823  10.214   5.186  0.00  0.00    +0.184 C 
BRANCH  18  19
ATOM     19  C   UNL     1       7.046  10.431   3.869  0.00  0.00    +0.014 C 
ATOM     23  C   UNL     1       5.529  10.505   4.065  0.00  0.00    +0.009 C 
ATOM     24  C   UNL     1       7.388   9.350   2.839  0.00  0.00    +0.009 C 
ENDBRANCH  18  19
BRANCH  18  22
ATOM      6  O   UNL     1       7.973  12.617   5.412  0.00  0.00    -0.249 OA
ATOM     22  C   UNL     1       8.437  11.516   5.689  0.00  0.00    +0.328 C 
BRANCH  22   5
ATOM      5  O   UNL     1       9.536  11.302   6.465  0.00  0.00    -0.467 OA
ATOM     29  C   UNL     1       9.332  11.407   7.877  0.00  0.00    +0.280 C 
ENDBRANCH  22   5
ENDBRANCH  18  22
ENDBRANCH  10  18
ENDBRANCH  13  16
BRANCH  17  20
ATOM     20  C   UNL     1      13.147   8.604   7.130  0.00  0.00    +0.164 C 
BRANCH  20   1
ATOM      1  S   UNL     1      14.557   9.067   6.113  0.00  0.00    -0.155 S 
ATOM     26  C   UNL     1      14.984   7.431   5.466  0.00  0.00    +0.085 C 
ENDBRANCH  20   1
ENDBRANCH  17  20
TORSDOF 10
ENDMDL
MODEL 4
REMARK VINA RESULT:      -5.8      1.757      2.121
REMARK  Name = 7128128
REMARK  15 active torsions:
REMARK  status: ('A' for Active; 'I' for Inactive)
REMARK    1  A    between atoms: S_1  and  C_20
REMARK    2  A    between atoms: S_1  and  C_26
REMARK    3  A    between atoms: O_5  and  C_22
REMARK    4  A    between atoms: O_5  and  C_29
REMARK    5  A    between atoms: O_7  and  C_30
REMARK    6  A    between atoms: O_7  and  C_33
REMARK    7  A    between atoms: N_9  and  C_12
REMARK    8  A    between atoms: N_10  and  C_18
REMARK    9  A    between atoms: N_11  and  C_25
REMARK   10  A    between atoms: C_13  and  C_16
REMARK   11  A    between atoms: C_17  and  C_20
REMARK   12  A    between atoms: C_18  and  C_19
REMARK   13  A    between atoms: C_18  and  C_22
REMARK   14  A    between atoms: C_19  and  C_23
REMARK   15  A    between atoms: C_19  and  C_24
REMARK                            x       y       z     vdW  Elec       q    Type
REMARK                         _______ _______ _______ _____ _____    ______ ____
ROOT
ATOM      3  O   UNL     1      -6.732 -13.085  15.171  0.00  0.00    -0.275 OA
ATOM      8  N   UNL     1      -6.395 -12.340  17.337  0.00  0.00    -0.287 N 
ATOM     12  C   UNL     1      -6.258 -10.186  18.320  0.00  0.00    +0.105 C 
ATOM     13  C   UNL     1      -6.153 -10.942  16.995  0.00  0.00    +0.182 C 
ATOM     14  C   UNL     1      -5.861 -11.235  19.361  0.00  0.00    +0.043 C 
ATOM     15  C   UNL     1      -6.390 -12.541  18.783  0.00  0.00    +0.110 C 
ATOM     17  C   UNL     1      -6.740 -13.289  16.387  0.00  0.00    +0.226 C 
ENDROOT
BRANCH  12   9
ATOM      4  O   UNL     1      -8.078  -9.220  16.330  0.00  0.00    -0.252 OA
ATOM      9  N   UNL     1      -7.604  -9.712  18.538  0.00  0.00    -0.294 N 
ATOM     11  N   UNL     1      -9.672  -8.862  18.016  0.00  0.00    -0.269 N 
ATOM     21  C   UNL     1      -8.431  -9.256  17.506  0.00  0.00    +0.304 C 
ATOM     34  H   UNL     1      -7.994  -9.773  19.475  0.00  0.00    +0.151 HD
ATOM     36  H   UNL     1      -9.802  -8.955  19.020  0.00  0.00    +0.156 HD
BRANCH  11  25
ATOM     25  C   UNL     1     -10.779  -8.345  17.303  0.00  0.00    +0.038 A 
ATOM     27  C   UNL     1     -10.650  -7.161  16.578  0.00  0.00    +0.069 A 
ATOM     28  C   UNL     1     -12.000  -9.021  17.326  0.00  0.00    +0.023 A 
ATOM     30  C   UNL     1     -11.742  -6.652  15.874  0.00  0.00    +0.122 A 
ATOM     31  C   UNL     1     -13.092  -8.511  16.623  0.00  0.00    +0.005 A 
ATOM     32  C   UNL     1     -12.962  -7.327  15.897  0.00  0.00    +0.046 A 
BRANCH  30   7
ATOM      7  O   UNL     1     -11.617  -5.496  15.166  0.00  0.00    -0.495 OA
ATOM     33  C   UNL     1     -12.446  -5.346  14.016  0.00  0.00    +0.277 C 
ENDBRANCH  30   7
ENDBRANCH  11  25
ENDBRANCH  12   9
BRANCH  13  16
ATOM      2  O   UNL     1      -3.781 -10.702  17.152  0.00  0.00    -0.274 OA
ATOM     10  N   UNL     1      -4.748 -11.003  15.055  0.00  0.00    -0.301 N 
ATOM     16  C   UNL     1      -4.763 -10.875  16.434  0.00  0.00    +0.236 C 
ATOM     35  H   UNL     1      -5.627 -11.119  14.560  0.00  0.00    +0.150 HD
BRANCH  10  18
ATOM     18  C   UNL     1      -3.536 -10.950  14.270  0.00  0.00    +0.184 C 
BRANCH  18  19
ATOM     19  C   UNL     1      -3.819 -10.859  12.755  0.00  0.00    +0.014 C 
ATOM     23  C   UNL     1      -2.640 -10.303  11.950  0.00  0.00    +0.009 C 
ATOM     24  C   UNL     1      -5.078 -10.034  12.474  0.00  0.00    +0.009 C 
ENDBRANCH  18  19
BRANCH  18  22
ATOM      6  O   UNL     1      -2.983 -13.282  14.592  0.00  0.00    -0.249 OA
ATOM     22  C   UNL     1      -2.606 -12.114  14.592  0.00  0.00    +0.328 C 
BRANCH  22   5
ATOM      5  O   UNL     1      -1.339 -11.701  14.872  0.00  0.00    -0.467 OA
ATOM     29  C   UNL     1      -1.213 -10.354  15.341  0.00  0.00    +0.280 C 
ENDBRANCH  22   5
ENDBRANCH  18  22
ENDBRANCH  10  18
ENDBRANCH  13  16
BRANCH  17  20
ATOM     20  C   UNL     1      -7.131 -14.640  16.930  0.00  0.00    +0.164 C 
BRANCH  20   1
ATOM      1  S   UNL     1      -8.925 -14.757  16.867  0.00  0.00    -0.155 S 
ATOM     26  C   UNL     1      -9.087 -15.791  15.391  0.00  0.00    +0.085 C 
ENDBRANCH  20   1
ENDBRANCH  17  20
TORSDOF 10
ENDMDL
MODEL 5
REMARK VINA RESULT:      -5.5     25.074     30.006
REMARK  Name = 7128128
REMARK  15 active torsions:
REMARK  status: ('A' for Active; 'I' for Inactive)
REMARK    1  A    between atoms: S_1  and  C_20
REMARK    2  A    between atoms: S_1  and  C_26
REMARK    3  A    between atoms: O_5  and  C_22
REMARK    4  A    between atoms: O_5  and  C_29
REMARK    5  A    between atoms: O_7  and  C_30
REMARK    6  A    between atoms: O_7  and  C_33
REMARK    7  A    between atoms: N_9  and  C_12
REMARK    8  A    between atoms: N_10  and  C_18
REMARK    9  A    between atoms: N_11  and  C_25
REMARK   10  A    between atoms: C_13  and  C_16
REMARK   11  A    between atoms: C_17  and  C_20
REMARK   12  A    between atoms: C_18  and  C_19
REMARK   13  A    between atoms: C_18  and  C_22
REMARK   14  A    between atoms: C_19  and  C_23
REMARK   15  A    between atoms: C_19  and  C_24
REMARK                            x       y       z     vdW  Elec       q    Type
REMARK                         _______ _______ _______ _____ _____    ______ ____
ROOT
ATOM      3  O   UNL     1      15.977  -5.841  -3.280  0.00  0.00    -0.275 OA
ATOM      8  N   UNL     1      16.901  -7.920  -3.709  0.00  0.00    -0.287 N 
ATOM     12  C   UNL     1      18.083  -9.487  -2.377  0.00  0.00    +0.105 C 
ATOM     13  C   UNL     1      17.668  -8.019  -2.470  0.00  0.00    +0.182 C 
ATOM     14  C   UNL     1      18.135  -9.936  -3.840  0.00  0.00    +0.043 C 
ATOM     15  C   UNL     1      17.023  -9.138  -4.506  0.00  0.00    +0.110 C 
ATOM     17  C   UNL     1      16.054  -6.856  -3.976  0.00  0.00    +0.226 C 
ENDROOT
BRANCH  12   9
ATOM      4  O   UNL     1      18.615 -11.229  -0.165  0.00  0.00    -0.252 OA
ATOM      9  N   UNL     1      17.114 -10.251  -1.628  0.00  0.00    -0.294 N 
ATOM     11  N   UNL     1      16.318 -11.691  -0.026  0.00  0.00    -0.269 N 
ATOM     21  C   UNL     1      17.459 -11.082  -0.556  0.00  0.00    +0.304 C 
ATOM     34  H   UNL     1      16.129 -10.132  -1.845  0.00  0.00    +0.151 HD
ATOM     36  H   UNL     1      15.432 -11.462  -0.470  0.00  0.00    +0.156 HD
BRANCH  11  25
ATOM     25  C   UNL     1      16.240 -12.596   1.058  0.00  0.00    +0.038 A 
ATOM     27  C   UNL     1      15.504 -12.263   2.194  0.00  0.00    +0.069 A 
ATOM     28  C   UNL     1      16.902 -13.823   0.990  0.00  0.00    +0.023 A 
ATOM     30  C   UNL     1      15.427 -13.156   3.262  0.00  0.00    +0.122 A 
ATOM     31  C   UNL     1      16.826 -14.716   2.060  0.00  0.00    +0.005 A 
ATOM     32  C   UNL     1      16.088 -14.382   3.195  0.00  0.00    +0.046 A 
BRANCH  30   7
ATOM      7  O   UNL     1      14.707 -12.830   4.371  0.00  0.00    -0.495 OA
ATOM     33  C   UNL     1      15.414 -12.214   5.446  0.00  0.00    +0.277 C 
ENDBRANCH  30   7
ENDBRANCH  11  25
ENDBRANCH  12   9
BRANCH  13  16
ATOM      2  O   UNL     1      19.745  -7.361  -3.449  0.00  0.00    -0.274 OA
ATOM     10  N   UNL     1      18.830  -6.049  -1.757  0.00  0.00    -0.301 N 
ATOM     16  C   UNL     1      18.858  -7.121  -2.633  0.00  0.00    +0.236 C 
ATOM     35  H   UNL     1      18.054  -5.962  -1.106  0.00  0.00    +0.150 HD
BRANCH  10  18
ATOM     18  C   UNL     1      19.872  -5.050  -1.697  0.00  0.00    +0.184 C 
BRANCH  18  19
ATOM     19  C   UNL     1      20.587  -5.025  -0.328  0.00  0.00    +0.014 C 
ATOM     23  C   UNL     1      21.598  -6.162  -0.151  0.00  0.00    +0.009 C 
ATOM     24  C   UNL     1      19.579  -5.039   0.825  0.00  0.00    +0.009 C 
ENDBRANCH  18  19
BRANCH  18  22
ATOM      6  O   UNL     1      20.062  -2.669  -2.077  0.00  0.00    -0.249 OA
ATOM     22  C   UNL     1      19.350  -3.669  -2.075  0.00  0.00    +0.328 C 
BRANCH  22   5
ATOM      5  O   UNL     1      18.027  -3.689  -2.401  0.00  0.00    -0.467 OA
ATOM     29  C   UNL     1      17.354  -2.427  -2.351  0.00  0.00    +0.280 C 
ENDBRANCH  22   5
ENDBRANCH  18  22
ENDBRANCH  10  18
ENDBRANCH  13  16
BRANCH  17  20
ATOM     20  C   UNL     1      15.203  -6.998  -5.213  0.00  0.00    +0.164 C 
BRANCH  20   1
ATOM      1  S   UNL     1      16.039  -6.137  -6.554  0.00  0.00    -0.155 S 
ATOM     26  C   UNL     1      15.053  -4.620  -6.571  0.00  0.00    +0.085 C 
ENDBRANCH  20   1
ENDBRANCH  17  20
TORSDOF 10
ENDMDL
MODEL 6
REMARK VINA RESULT:      -5.5     25.552     28.873
REMARK  Name = 7128128
REMARK  15 active torsions:
REMARK  status: ('A' for Active; 'I' for Inactive)
REMARK    1  A    between atoms: S_1  and  C_20
REMARK    2  A    between atoms: S_1  and  C_26
REMARK    3  A    between atoms: O_5  and  C_22
REMARK    4  A    between atoms: O_5  and  C_29
REMARK    5  A    between atoms: O_7  and  C_30
REMARK    6  A    between atoms: O_7  and  C_33
REMARK    7  A    between atoms: N_9  and  C_12
REMARK    8  A    between atoms: N_10  and  C_18
REMARK    9  A    between atoms: N_11  and  C_25
REMARK   10  A    between atoms: C_13  and  C_16
REMARK   11  A    between atoms: C_17  and  C_20
REMARK   12  A    between atoms: C_18  and  C_19
REMARK   13  A    between atoms: C_18  and  C_22
REMARK   14  A    between atoms: C_19  and  C_23
REMARK   15  A    between atoms: C_19  and  C_24
REMARK                            x       y       z     vdW  Elec       q    Type
REMARK                         _______ _______ _______ _____ _____    ______ ____
ROOT
ATOM      3  O   UNL     1      10.981   9.535   5.059  0.00  0.00    -0.275 OA
ATOM      8  N   UNL     1      10.586   7.350   5.713  0.00  0.00    -0.287 N 
ATOM     12  C   UNL     1       9.956   5.385   4.544  0.00  0.00    +0.105 C 
ATOM     13  C   UNL     1       9.974   6.911   4.462  0.00  0.00    +0.182 C 
ATOM     14  C   UNL     1       9.900   5.110   6.048  0.00  0.00    +0.043 C 
ATOM     15  C   UNL     1      10.714   6.244   6.657  0.00  0.00    +0.110 C 
ATOM     17  C   UNL     1      11.108   8.623   5.878  0.00  0.00    +0.226 C 
ENDROOT
BRANCH  12   9
ATOM      4  O   UNL     1      10.758   5.576   1.800  0.00  0.00    -0.252 OA
ATOM      9  N   UNL     1      11.146   4.822   3.951  0.00  0.00    -0.294 N 
ATOM     11  N   UNL     1      12.670   4.315   2.311  0.00  0.00    -0.269 N 
ATOM     21  C   UNL     1      11.465   4.963   2.596  0.00  0.00    +0.304 C 
ATOM     34  H   UNL     1      11.816   4.357   4.557  0.00  0.00    +0.151 HD
ATOM     36  H   UNL     1      13.132   3.849   3.088  0.00  0.00    +0.156 HD
BRANCH  11  25
ATOM     25  C   UNL     1      13.334   4.224   1.065  0.00  0.00    +0.038 A 
ATOM     27  C   UNL     1      14.634   4.710   0.929  0.00  0.00    +0.069 A 
ATOM     28  C   UNL     1      12.686   3.648  -0.029  0.00  0.00    +0.023 A 
ATOM     30  C   UNL     1      15.288   4.620  -0.299  0.00  0.00    +0.122 A 
ATOM     31  C   UNL     1      13.340   3.558  -1.258  0.00  0.00    +0.005 A 
ATOM     32  C   UNL     1      14.641   4.044  -1.393  0.00  0.00    +0.046 A 
BRANCH  30   7
ATOM      7  O   UNL     1      16.557   5.094  -0.432  0.00  0.00    -0.495 OA
ATOM     33  C   UNL     1      17.257   4.751  -1.626  0.00  0.00    +0.277 C 
ENDBRANCH  30   7
ENDBRANCH  11  25
ENDBRANCH  12   9
BRANCH  13  16
ATOM      2  O   UNL     1       7.701   7.046   5.182  0.00  0.00    -0.274 OA
ATOM     10  N   UNL     1       8.441   8.485   3.508  0.00  0.00    -0.301 N 
ATOM     16  C   UNL     1       8.585   7.476   4.445  0.00  0.00    +0.236 C 
ATOM     35  H   UNL     1       9.238   8.745   2.935  0.00  0.00    +0.150 HD
BRANCH  10  18
ATOM     18  C   UNL     1       7.194   9.178   3.278  0.00  0.00    +0.184 C 
BRANCH  18  19
ATOM     19  C   UNL     1       7.117   9.802   1.867  0.00  0.00    +0.014 C 
ATOM     23  C   UNL     1       5.750   9.622   1.199  0.00  0.00    +0.009 C 
ATOM     24  C   UNL     1       8.220   9.253   0.958  0.00  0.00    +0.009 C 
ENDBRANCH  18  19
BRANCH  18  22
ATOM      6  O   UNL     1       7.817  10.760   4.999  0.00  0.00    -0.249 OA
ATOM     22  C   UNL     1       6.920  10.218   4.360  0.00  0.00    +0.328 C 
BRANCH  22   5
ATOM      5  O   UNL     1       5.589  10.457   4.520  0.00  0.00    -0.467 OA
ATOM     29  C   UNL     1       5.219  11.830   4.684  0.00  0.00    +0.280 C 
ENDBRANCH  22   5
ENDBRANCH  18  22
ENDBRANCH  10  18
ENDBRANCH  13  16
BRANCH  17  20
ATOM     20  C   UNL     1      11.863   8.854   7.163  0.00  0.00    +0.164 C 
BRANCH  20   1
ATOM      1  S   UNL     1      11.158  10.306   7.958  0.00  0.00    -0.155 S 
ATOM     26  C   UNL     1       9.498   9.666   8.289  0.00  0.00    +0.085 C 
ENDBRANCH  20   1
ENDBRANCH  17  20
TORSDOF 10
ENDMDL
MODEL 7
REMARK VINA RESULT:      -5.3      4.072     10.175
REMARK  Name = 7128128
REMARK  15 active torsions:
REMARK  status: ('A' for Active; 'I' for Inactive)
REMARK    1  A    between atoms: S_1  and  C_20
REMARK    2  A    between atoms: S_1  and  C_26
REMARK    3  A    between atoms: O_5  and  C_22
REMARK    4  A    between atoms: O_5  and  C_29
REMARK    5  A    between atoms: O_7  and  C_30
REMARK    6  A    between atoms: O_7  and  C_33
REMARK    7  A    between atoms: N_9  and  C_12
REMARK    8  A    between atoms: N_10  and  C_18
REMARK    9  A    between atoms: N_11  and  C_25
REMARK   10  A    between atoms: C_13  and  C_16
REMARK   11  A    between atoms: C_17  and  C_20
REMARK   12  A    between atoms: C_18  and  C_19
REMARK   13  A    between atoms: C_18  and  C_22
REMARK   14  A    between atoms: C_19  and  C_23
REMARK   15  A    between atoms: C_19  and  C_24
REMARK                            x       y       z     vdW  Elec       q    Type
REMARK                         _______ _______ _______ _____ _____    ______ ____
ROOT
ATOM      3  O   UNL     1     -12.969  -9.319  13.426  0.00  0.00    -0.275 OA
ATOM      8  N   UNL     1     -12.062  -7.612  14.700  0.00  0.00    -0.287 N 
ATOM     12  C   UNL     1     -10.825  -7.565  16.723  0.00  0.00    +0.105 C 
ATOM     13  C   UNL     1     -11.765  -8.424  15.877  0.00  0.00    +0.182 C 
ATOM     14  C   UNL     1     -11.207  -6.134  16.339  0.00  0.00    +0.043 C 
ATOM     15  C   UNL     1     -11.590  -6.241  14.869  0.00  0.00    +0.110 C 
ATOM     17  C   UNL     1     -12.579  -8.155  13.534  0.00  0.00    +0.226 C 
ENDROOT
BRANCH  12   9
ATOM      4  O   UNL     1      -9.146  -9.532  17.956  0.00  0.00    -0.252 OA
ATOM      9  N   UNL     1      -9.444  -7.844  16.405  0.00  0.00    -0.294 N 
ATOM     11  N   UNL     1      -7.394  -8.868  16.541  0.00  0.00    -0.269 N 
ATOM     21  C   UNL     1      -8.693  -8.826  17.058  0.00  0.00    +0.304 C 
ATOM     34  H   UNL     1      -9.017  -7.349  15.628  0.00  0.00    +0.151 HD
ATOM     36  H   UNL     1      -7.179  -8.210  15.796  0.00  0.00    +0.156 HD
BRANCH  11  25
ATOM     25  C   UNL     1      -6.333  -9.718  16.929  0.00  0.00    +0.038 A 
ATOM     27  C   UNL     1      -5.288  -9.979  16.042  0.00  0.00    +0.069 A 
ATOM     28  C   UNL     1      -6.331 -10.297  18.199  0.00  0.00    +0.023 A 
ATOM     30  C   UNL     1      -4.241 -10.816  16.425  0.00  0.00    +0.122 A 
ATOM     31  C   UNL     1      -5.284 -11.135  18.582  0.00  0.00    +0.005 A 
ATOM     32  C   UNL     1      -4.239 -11.394  17.695  0.00  0.00    +0.046 A 
BRANCH  30   7
ATOM      7  O   UNL     1      -3.221 -11.071  15.560  0.00  0.00    -0.495 OA
ATOM     33  C   UNL     1      -1.912 -10.672  15.964  0.00  0.00    +0.277 C 
ENDBRANCH  30   7
ENDBRANCH  11  25
ENDBRANCH  12   9
BRANCH  13  16
ATOM      2  O   UNL     1     -14.076  -8.001  16.307  0.00  0.00    -0.274 OA
ATOM     10  N   UNL     1     -12.984  -9.652  17.534  0.00  0.00    -0.301 N 
ATOM     16  C   UNL     1     -13.072  -8.657  16.574  0.00  0.00    +0.236 C 
ATOM     35  H   UNL     1     -12.092 -10.114  17.686  0.00  0.00    +0.150 HD
BRANCH  10  18
ATOM     18  C   UNL     1     -14.098 -10.053  18.362  0.00  0.00    +0.184 C 
BRANCH  18  19
ATOM     19  C   UNL     1     -13.721 -10.139  19.857  0.00  0.00    +0.014 C 
ATOM     23  C   UNL     1     -14.515  -9.172  20.739  0.00  0.00    +0.009 C 
ATOM     24  C   UNL     1     -12.219  -9.922  20.063  0.00  0.00    +0.009 C 
ENDBRANCH  18  19
BRANCH  18  22
ATOM      6  O   UNL     1     -14.586 -11.762  16.722  0.00  0.00    -0.249 OA
ATOM     22  C   UNL     1     -14.724 -11.353  17.871  0.00  0.00    +0.328 C 
BRANCH  22   5
ATOM      5  O   UNL     1     -15.437 -11.983  18.846  0.00  0.00    -0.467 OA
ATOM     29  C   UNL     1     -16.570 -12.735  18.402  0.00  0.00    +0.280 C 
ENDBRANCH  22   5
ENDBRANCH  18  22
ENDBRANCH  10  18
ENDBRANCH  13  16
BRANCH  17  20
ATOM     20  C   UNL     1     -12.657  -7.214  12.358  0.00  0.00    +0.164 C 
BRANCH  20   1
ATOM      1  S   UNL     1     -14.359  -6.647  12.222  0.00  0.00    -0.155 S 
ATOM     26  C   UNL     1     -14.172  -5.538  10.804  0.00  0.00    +0.085 C 
ENDBRANCH  20   1
ENDBRANCH  17  20
TORSDOF 10
ENDMDL
MODEL 8
REMARK VINA RESULT:      -5.3     21.924     24.840
REMARK  Name = 7128128
REMARK  15 active torsions:
REMARK  status: ('A' for Active; 'I' for Inactive)
REMARK    1  A    between atoms: S_1  and  C_20
REMARK    2  A    between atoms: S_1  and  C_26
REMARK    3  A    between atoms: O_5  and  C_22
REMARK    4  A    between atoms: O_5  and  C_29
REMARK    5  A    between atoms: O_7  and  C_30
REMARK    6  A    between atoms: O_7  and  C_33
REMARK    7  A    between atoms: N_9  and  C_12
REMARK    8  A    between atoms: N_10  and  C_18
REMARK    9  A    between atoms: N_11  and  C_25
REMARK   10  A    between atoms: C_13  and  C_16
REMARK   11  A    between atoms: C_17  and  C_20
REMARK   12  A    between atoms: C_18  and  C_19
REMARK   13  A    between atoms: C_18  and  C_22
REMARK   14  A    between atoms: C_19  and  C_23
REMARK   15  A    between atoms: C_19  and  C_24
REMARK                            x       y       z     vdW  Elec       q    Type
REMARK                         _______ _______ _______ _____ _____    ______ ____
ROOT
ATOM      3  O   UNL     1      -5.622  -5.677  39.062  0.00  0.00    -0.275 OA
ATOM      8  N   UNL     1      -7.007  -7.293  39.973  0.00  0.00    -0.287 N 
ATOM     12  C   UNL     1      -9.295  -7.841  39.669  0.00  0.00    +0.105 C 
ATOM     13  C   UNL     1      -8.262  -6.729  39.483  0.00  0.00    +0.182 C 
ATOM     14  C   UNL     1      -8.739  -8.650  40.844  0.00  0.00    +0.043 C 
ATOM     15  C   UNL     1      -7.229  -8.556  40.671  0.00  0.00    +0.110 C 
ATOM     17  C   UNL     1      -5.773  -6.748  39.653  0.00  0.00    +0.226 C 
ENDROOT
BRANCH  12   9
ATOM      4  O   UNL     1     -11.442  -9.612  38.990  0.00  0.00    -0.252 OA
ATOM      9  N   UNL     1      -9.402  -8.651  38.479  0.00  0.00    -0.294 N 
ATOM     11  N   UNL     1     -10.318 -10.149  37.000  0.00  0.00    -0.269 N 
ATOM     21  C   UNL     1     -10.489  -9.493  38.222  0.00  0.00    +0.304 C 
ATOM     34  H   UNL     1      -8.687  -8.558  37.763  0.00  0.00    +0.151 HD
ATOM     36  H   UNL     1      -9.466  -9.938  36.485  0.00  0.00    +0.156 HD
BRANCH  11  25
ATOM     25  C   UNL     1     -11.188 -11.079  36.384  0.00  0.00    +0.038 A 
ATOM     27  C   UNL     1     -10.733 -12.360  36.073  0.00  0.00    +0.069 A 
ATOM     28  C   UNL     1     -12.502 -10.713  36.087  0.00  0.00    +0.023 A 
ATOM     30  C   UNL     1     -11.591 -13.277  35.467  0.00  0.00    +0.122 A 
ATOM     31  C   UNL     1     -13.360 -11.630  35.479  0.00  0.00    +0.005 A 
ATOM     32  C   UNL     1     -12.904 -12.912  35.170  0.00  0.00    +0.046 A 
BRANCH  30   7
ATOM      7  O   UNL     1     -11.147 -14.527  35.164  0.00  0.00    -0.495 OA
ATOM     33  C   UNL     1      -9.801 -14.646  34.707  0.00  0.00    +0.277 C 
ENDBRANCH  30   7
ENDBRANCH  11  25
ENDBRANCH  12   9
BRANCH  13  16
ATOM      2  O   UNL     1      -7.915  -5.301  41.366  0.00  0.00    -0.274 OA
ATOM     10  N   UNL     1      -9.650  -4.820  39.890  0.00  0.00    -0.301 N 
ATOM     16  C   UNL     1      -8.566  -5.546  40.353  0.00  0.00    +0.236 C 
ATOM     35  H   UNL     1     -10.130  -5.129  39.049  0.00  0.00    +0.150 HD
BRANCH  10  18
ATOM     18  C   UNL     1     -10.161  -3.647  40.561  0.00  0.00    +0.184 C 
BRANCH  18  19
ATOM     19  C   UNL     1     -11.661  -3.413  40.281  0.00  0.00    +0.014 C 
ATOM     23  C   UNL     1     -12.309  -2.414  41.244  0.00  0.00    +0.009 C 
ATOM     24  C   UNL     1     -12.440  -4.732  40.294  0.00  0.00    +0.009 C 
ENDBRANCH  18  19
BRANCH  18  22
ATOM      6  O   UNL     1      -8.826  -1.703  41.100  0.00  0.00    -0.249 OA
ATOM     22  C   UNL     1      -9.335  -2.407  40.233  0.00  0.00    +0.328 C 
BRANCH  22   5
ATOM      5  O   UNL     1      -9.240  -2.190  38.892  0.00  0.00    -0.467 OA
ATOM     29  C   UNL     1      -9.684  -0.909  38.435  0.00  0.00    +0.280 C 
ENDBRANCH  22   5
ENDBRANCH  18  22
ENDBRANCH  10  18
ENDBRANCH  13  16
BRANCH  17  20
ATOM     20  C   UNL     1      -4.575  -7.554  40.089  0.00  0.00    +0.164 C 
BRANCH  20   1
ATOM      1  S   UNL     1      -3.204  -6.412  40.322  0.00  0.00    -0.155 S 
ATOM     26  C   UNL     1      -3.582  -5.861  42.004  0.00  0.00    +0.085 C 
ENDBRANCH  20   1
ENDBRANCH  17  20
TORSDOF 10
ENDMDL
MODEL 9
REMARK VINA RESULT:      -5.2      3.103      5.429
REMARK  Name = 7128128
REMARK  15 active torsions:
REMARK  status: ('A' for Active; 'I' for Inactive)
REMARK    1  A    between atoms: S_1  and  C_20
REMARK    2  A    between atoms: S_1  and  C_26
REMARK    3  A    between atoms: O_5  and  C_22
REMARK    4  A    between atoms: O_5  and  C_29
REMARK    5  A    between atoms: O_7  and  C_30
REMARK    6  A    between atoms: O_7  and  C_33
REMARK    7  A    between atoms: N_9  and  C_12
REMARK    8  A    between atoms: N_10  and  C_18
REMARK    9  A    between atoms: N_11  and  C_25
REMARK   10  A    between atoms: C_13  and  C_16
REMARK   11  A    between atoms: C_17  and  C_20
REMARK   12  A    between atoms: C_18  and  C_19
REMARK   13  A    between atoms: C_18  and  C_22
REMARK   14  A    between atoms: C_19  and  C_23
REMARK   15  A    between atoms: C_19  and  C_24
REMARK                            x       y       z     vdW  Elec       q    Type
REMARK                         _______ _______ _______ _____ _____    ______ ____
ROOT
ATOM      3  O   UNL     1      -9.143 -12.591  16.365  0.00  0.00    -0.275 OA
ATOM      8  N   UNL     1      -9.816 -10.513  17.132  0.00  0.00    -0.287 N 
ATOM     12  C   UNL     1      -9.592  -8.309  16.284  0.00  0.00    +0.105 C 
ATOM     13  C   UNL     1      -9.024  -9.725  16.192  0.00  0.00    +0.182 C 
ATOM     14  C   UNL     1     -10.151  -8.241  17.708  0.00  0.00    +0.043 C 
ATOM     15  C   UNL     1     -10.649  -9.656  17.972  0.00  0.00    +0.110 C 
ATOM     17  C   UNL     1      -9.862 -11.897  17.088  0.00  0.00    +0.226 C 
ENDROOT
BRANCH  12   9
ATOM      4  O   UNL     1     -10.789  -5.811  15.552  0.00  0.00    -0.252 OA
ATOM      9  N   UNL     1     -10.631  -8.104  15.303  0.00  0.00    -0.294 N 
ATOM     11  N   UNL     1     -12.149  -6.956  14.019  0.00  0.00    -0.269 N 
ATOM     21  C   UNL     1     -11.162  -6.845  15.003  0.00  0.00    +0.304 C 
ATOM     34  H   UNL     1     -10.946  -8.901  14.757  0.00  0.00    +0.151 HD
ATOM     36  H   UNL     1     -12.340  -7.891  13.669  0.00  0.00    +0.156 HD
BRANCH  11  25
ATOM     25  C   UNL     1     -12.922  -5.920  13.444  0.00  0.00    +0.038 A 
ATOM     27  C   UNL     1     -12.372  -5.107  12.454  0.00  0.00    +0.069 A 
ATOM     28  C   UNL     1     -14.235  -5.713  13.868  0.00  0.00    +0.023 A 
ATOM     30  C   UNL     1     -13.135  -4.086  11.886  0.00  0.00    +0.122 A 
ATOM     31  C   UNL     1     -14.997  -4.691  13.302  0.00  0.00    +0.005 A 
ATOM     32  C   UNL     1     -14.447  -3.878  12.311  0.00  0.00    +0.046 A 
BRANCH  30   7
ATOM      7  O   UNL     1     -12.598  -3.292  10.920  0.00  0.00    -0.495 OA
ATOM     33  C   UNL     1     -11.635  -3.885  10.052  0.00  0.00    +0.277 C 
ENDBRANCH  30   7
ENDBRANCH  11  25
ENDBRANCH  12   9
BRANCH  13  16
ATOM      2  O   UNL     1      -7.248  -9.198  17.699  0.00  0.00    -0.274 OA
ATOM     10  N   UNL     1      -6.793 -10.524  15.840  0.00  0.00    -0.301 N 
ATOM     16  C   UNL     1      -7.606  -9.780  16.678  0.00  0.00    +0.236 C 
ATOM     35  H   UNL     1      -7.195 -10.944  15.007  0.00  0.00    +0.150 HD
BRANCH  10  18
ATOM     18  C   UNL     1      -5.380 -10.713  16.073  0.00  0.00    +0.184 C 
BRANCH  18  19
ATOM     19  C   UNL     1      -4.610 -11.061  14.780  0.00  0.00    +0.014 C 
ATOM     23  C   UNL     1      -3.111 -10.761  14.868  0.00  0.00    +0.009 C 
ATOM     24  C   UNL     1      -5.215 -10.351  13.566  0.00  0.00    +0.009 C 
ENDBRANCH  18  19
BRANCH  18  22
ATOM      6  O   UNL     1      -4.358 -11.537  18.105  0.00  0.00    -0.249 OA
ATOM     22  C   UNL     1      -5.123 -11.743  17.167  0.00  0.00    +0.328 C 
BRANCH  22   5
ATOM      5  O   UNL     1      -5.832 -12.890  16.972  0.00  0.00    -0.467 OA
ATOM     29  C   UNL     1      -5.061 -14.093  16.897  0.00  0.00    +0.280 C 
ENDBRANCH  22   5
ENDBRANCH  18  22
ENDBRANCH  10  18
ENDBRANCH  13  16
BRANCH  17  20
ATOM     20  C   UNL     1     -10.865 -12.544  18.009  0.00  0.00    +0.164 C 
BRANCH  20   1
ATOM      1  S   UNL     1      -9.996 -13.038  19.505  0.00  0.00    -0.155 S 
ATOM     26  C   UNL     1      -9.738 -14.786  19.115  0.00  0.00    +0.085 C 
ENDBRANCH  20   1
ENDBRANCH  17  20
TORSDOF 10
ENDMDL
MODEL 10
REMARK VINA RESULT:      -5.1     24.394     28.575
REMARK  Name = 7128128
REMARK  15 active torsions:
REMARK  status: ('A' for Active; 'I' for Inactive)
REMARK    1  A    between atoms: S_1  and  C_20
REMARK    2  A    between atoms: S_1  and  C_26
REMARK    3  A    between atoms: O_5  and  C_22
REMARK    4  A    between atoms: O_5  and  C_29
REMARK    5  A    between atoms: O_7  and  C_30
REMARK    6  A    between atoms: O_7  and  C_33
REMARK    7  A    between atoms: N_9  and  C_12
REMARK    8  A    between atoms: N_10  and  C_18
REMARK    9  A    between atoms: N_11  and  C_25
REMARK   10  A    between atoms: C_13  and  C_16
REMARK   11  A    between atoms: C_17  and  C_20
REMARK   12  A    between atoms: C_18  and  C_19
REMARK   13  A    between atoms: C_18  and  C_22
REMARK   14  A    between atoms: C_19  and  C_23
REMARK   15  A    between atoms: C_19  and  C_24
REMARK                            x       y       z     vdW  Elec       q    Type
REMARK                         _______ _______ _______ _____ _____    ______ ____
ROOT
ATOM      3  O   UNL     1      11.391   7.476   7.437  0.00  0.00    -0.275 OA
ATOM      8  N   UNL     1       9.540   7.888   6.107  0.00  0.00    -0.287 N 
ATOM     12  C   UNL     1       9.263   8.392   3.806  0.00  0.00    +0.105 C 
ATOM     13  C   UNL     1      10.277   8.391   4.951  0.00  0.00    +0.182 C 
ATOM     14  C   UNL     1       7.920   8.563   4.520  0.00  0.00    +0.043 C 
ATOM     15  C   UNL     1       8.108   7.818   5.835  0.00  0.00    +0.110 C 
ATOM     17  C   UNL     1      10.176   7.400   7.238  0.00  0.00    +0.226 C 
ENDROOT
BRANCH  12   9
ATOM      4  O   UNL     1      11.509   7.341   2.372  0.00  0.00    -0.252 OA
ATOM      9  N   UNL     1       9.314   7.150   3.072  0.00  0.00    -0.294 N 
ATOM     11  N   UNL     1      10.209   5.479   1.777  0.00  0.00    -0.269 N 
ATOM     21  C   UNL     1      10.456   6.708   2.396  0.00  0.00    +0.304 C 
ATOM     34  H   UNL     1       8.504   6.537   3.099  0.00  0.00    +0.151 HD
ATOM     36  H   UNL     1       9.277   5.089   1.894  0.00  0.00    +0.156 HD
BRANCH  11  25
ATOM     25  C   UNL     1      11.101   4.703   1.001  0.00  0.00    +0.038 A 
ATOM     27  C   UNL     1      12.279   4.218   1.568  0.00  0.00    +0.069 A 
ATOM     28  C   UNL     1      10.802   4.423  -0.333  0.00  0.00    +0.023 A 
ATOM     30  C   UNL     1      13.158   3.452   0.802  0.00  0.00    +0.122 A 
ATOM     31  C   UNL     1      11.681   3.658  -1.099  0.00  0.00    +0.005 A 
ATOM     32  C   UNL     1      12.859   3.172  -0.531  0.00  0.00    +0.046 A 
BRANCH  30   7
ATOM      7  O   UNL     1      14.308   2.979   1.356  0.00  0.00    -0.495 OA
ATOM     33  C   UNL     1      15.519   3.649   1.011  0.00  0.00    +0.277 C 
ENDBRANCH  30   7
ENDBRANCH  11  25
ENDBRANCH  12   9
BRANCH  13  16
ATOM      2  O   UNL     1      11.491  10.416   4.585  0.00  0.00    -0.274 OA
ATOM     10  N   UNL     1      10.164  10.224   6.489  0.00  0.00    -0.301 N 
ATOM     16  C   UNL     1      10.714   9.784   5.297  0.00  0.00    +0.236 C 
ATOM     35  H   UNL     1       9.548   9.605   7.009  0.00  0.00    +0.150 HD
BRANCH  10  18
ATOM     18  C   UNL     1      10.444  11.523   7.057  0.00  0.00    +0.184 C 
BRANCH  18  19
ATOM     19  C   UNL     1      10.325  11.532   8.597  0.00  0.00    +0.014 C 
ATOM     23  C   UNL     1      11.674  11.388   9.309  0.00  0.00    +0.009 C 
ATOM     24  C   UNL     1       9.358  10.450   9.085  0.00  0.00    +0.009 C 
ENDBRANCH  18  19
BRANCH  18  22
ATOM      6  O   UNL     1      10.049  13.654   5.983  0.00  0.00    -0.249 OA
ATOM     22  C   UNL     1       9.580  12.610   6.427  0.00  0.00    +0.328 C 
BRANCH  22   5
ATOM      5  O   UNL     1       8.258  12.281   6.423  0.00  0.00    -0.467 OA
ATOM     29  C   UNL     1       7.581  12.442   5.173  0.00  0.00    +0.280 C 
ENDBRANCH  22   5
ENDBRANCH  18  22
ENDBRANCH  10  18
ENDBRANCH  13  16
BRANCH  17  20
ATOM     20  C   UNL     1       9.277   6.753   8.262  0.00  0.00    +0.164 C 
BRANCH  20   1
ATOM      1  S   UNL     1       9.761   5.027   8.403  0.00  0.00    -0.155 S 
ATOM     26  C   UNL     1       9.104   4.685  10.054  0.00  0.00    +0.085 C 
ENDBRANCH  20   1
ENDBRANCH  17  20
TORSDOF 10
ENDMDL
