MODEL 1
REMARK VINA RESULT:      -6.8      0.000      0.000
REMARK  Name = 45361246
REMARK  12 active torsions:
REMARK  status: ('A' for Active; 'I' for Inactive)
REMARK    1  A    between atoms: O_1  and  C_16
REMARK    2  A    between atoms: O_4  and  C_35
REMARK    3  A    between atoms: O_4  and  C_40
REMARK    4  A    between atoms: N_5  and  C_12
REMARK    5  A    between atoms: N_7  and  C_33
REMARK    6  A    between atoms: C_9  and  C_17
REMARK    7  A    between atoms: C_11  and  C_19
REMARK    8  A    between atoms: C_11  and  C_20
REMARK    9  A    between atoms: C_16  and  C_22
REMARK   10  A    between atoms: C_17  and  C_21
REMARK   11  A    between atoms: C_21  and  C_24
REMARK   12  A    between atoms: C_23  and  C_25
REMARK                            x       y       z     vdW  Elec       q    Type
REMARK                         _______ _______ _______ _____ _____    ______ ____
ROOT
ATOM      9  C   UNL     1      14.580   7.885  19.878  0.00  0.00    -0.007 C 
ATOM     10  C   UNL     1      13.331   7.602  18.978  0.00  0.00    +0.005 C 
ATOM     11  C   UNL     1      13.519   8.522  17.711  0.00  0.00    -0.030 C 
ATOM     12  C   UNL     1      14.740   9.408  19.669  0.00  0.00    +0.080 C 
ATOM     13  C   UNL     1      14.536   9.605  18.160  0.00  0.00    +0.029 C 
ATOM     14  C   UNL     1      14.395   7.473  21.358  0.00  0.00    +0.012 C 
ATOM     15  C   UNL     1      11.989   7.867  19.706  0.00  0.00    +0.039 C 
ATOM     16  C   UNL     1      11.900   7.244  21.100  0.00  0.00    +0.064 C 
ATOM     18  C   UNL     1      13.036   7.791  21.964  0.00  0.00    +0.035 C 
ATOM     19  C   UNL     1      12.238   9.204  17.190  0.00  0.00    +0.011 C 
ATOM     20  C   UNL     1      14.071   7.703  16.525  0.00  0.00    +0.011 C 
ATOM     22  C   UNL     1      10.543   7.549  21.737  0.00  0.00    +0.041 C 
ENDROOT
BRANCH  12   5
ATOM      2  O   UNL     1      15.221  10.816  22.125  0.00  0.00    -0.270 OA
ATOM      5  N   UNL     1      15.995   9.949  20.118  0.00  0.00    -0.308 N 
ATOM     23  C   UNL     1      16.133  10.618  21.327  0.00  0.00    +0.246 C 
ATOM     41  H   UNL     1      16.793   9.836  19.502  0.00  0.00    +0.149 HD
BRANCH  23  25
ATOM      8  N   UNL     1      18.955  12.315  23.156  0.00  0.00    -0.263 NA
ATOM     25  C   UNL     1      17.491  11.140  21.633  0.00  0.00    +0.055 A 
ATOM     28  C   UNL     1      18.542  10.970  20.741  0.00  0.00    +0.016 A 
ATOM     29  C   UNL     1      17.747  11.814  22.816  0.00  0.00    +0.123 A 
ATOM     32  C   UNL     1      19.801  11.471  21.055  0.00  0.00    +0.020 A 
ATOM     34  C   UNL     1      19.954  12.130  22.264  0.00  0.00    +0.111 A 
ENDBRANCH  23  25
ENDBRANCH  12   5
BRANCH  16   1
ATOM      1  O   UNL     1      12.018   5.827  20.975  0.00  0.00    -0.389 OA
ATOM     42  H   UNL     1      12.093   5.451  21.870  0.00  0.00    +0.210 HD
ENDBRANCH  16   1
BRANCH   9  17
ATOM     17  C   UNL     1      15.835   7.118  19.383  0.00  0.00    +0.018 C 
BRANCH  17  21
ATOM     21  C   UNL     1      16.700   6.659  20.536  0.00  0.00    +0.096 C 
BRANCH  21  24
ATOM      3  O   UNL     1      18.004   5.459  18.962  0.00  0.00    -0.276 OA
ATOM      6  N   UNL     1      19.102   6.201  20.868  0.00  0.00    -0.298 N 
ATOM      7  N   UNL     1      21.474   7.454  21.743  0.00  0.00    -0.324 N 
ATOM     24  C   UNL     1      17.989   6.050  20.045  0.00  0.00    +0.216 C 
ATOM     26  C   UNL     1      20.394   5.645  20.472  0.00  0.00    +0.126 C 
ATOM     27  C   UNL     1      19.120   6.873  22.169  0.00  0.00    +0.126 C 
ATOM     30  C   UNL     1      21.469   6.730  20.464  0.00  0.00    +0.124 C 
ATOM     31  C   UNL     1      20.177   7.977  22.194  0.00  0.00    +0.124 C 
BRANCH   7  33
ATOM     33  C   UNL     1      22.651   8.118  22.110  0.00  0.00    +0.072 A 
ATOM     35  C   UNL     1      23.538   7.541  23.018  0.00  0.00    +0.141 A 
ATOM     36  C   UNL     1      22.933   9.367  21.558  0.00  0.00    +0.027 A 
ATOM     37  C   UNL     1      24.707   8.214  23.376  0.00  0.00    +0.047 A 
ATOM     38  C   UNL     1      24.101  10.040  21.913  0.00  0.00    +0.002 A 
ATOM     39  C   UNL     1      24.989   9.464  22.823  0.00  0.00    +0.004 A 
BRANCH  35   4
ATOM      4  O   UNL     1      23.281   6.321  23.571  0.00  0.00    -0.493 OA
ATOM     40  C   UNL     1      23.953   5.199  23.004  0.00  0.00    +0.277 C 
ENDBRANCH  35   4
ENDBRANCH   7  33
ENDBRANCH  21  24
ENDBRANCH  17  21
ENDBRANCH   9  17
TORSDOF 8
ENDMDL
MODEL 2
REMARK VINA RESULT:      -6.7      3.051      9.508
REMARK  Name = 45361246
REMARK  12 active torsions:
REMARK  status: ('A' for Active; 'I' for Inactive)
REMARK    1  A    between atoms: O_1  and  C_16
REMARK    2  A    between atoms: O_4  and  C_35
REMARK    3  A    between atoms: O_4  and  C_40
REMARK    4  A    between atoms: N_5  and  C_12
REMARK    5  A    between atoms: N_7  and  C_33
REMARK    6  A    between atoms: C_9  and  C_17
REMARK    7  A    between atoms: C_11  and  C_19
REMARK    8  A    between atoms: C_11  and  C_20
REMARK    9  A    between atoms: C_16  and  C_22
REMARK   10  A    between atoms: C_17  and  C_21
REMARK   11  A    between atoms: C_21  and  C_24
REMARK   12  A    between atoms: C_23  and  C_25
REMARK                            x       y       z     vdW  Elec       q    Type
REMARK                         _______ _______ _______ _____ _____    ______ ____
ROOT
ATOM      9  C   UNL     1      21.801   6.428  22.430  0.00  0.00    -0.007 C 
ATOM     10  C   UNL     1      22.502   5.686  21.244  0.00  0.00    +0.005 C 
ATOM     11  C   UNL     1      22.646   4.189  21.722  0.00  0.00    -0.030 C 
ATOM     12  C   UNL     1      22.484   5.745  23.636  0.00  0.00    +0.080 C 
ATOM     13  C   UNL     1      22.500   4.255  23.266  0.00  0.00    +0.029 C 
ATOM     14  C   UNL     1      21.975   7.965  22.400  0.00  0.00    +0.012 C 
ATOM     15  C   UNL     1      23.865   6.315  20.859  0.00  0.00    +0.039 C 
ATOM     16  C   UNL     1      23.830   7.835  20.700  0.00  0.00    +0.064 C 
ATOM     18  C   UNL     1      23.361   8.462  22.013  0.00  0.00    +0.035 C 
ATOM     19  C   UNL     1      23.976   3.501  21.359  0.00  0.00    +0.011 C 
ATOM     20  C   UNL     1      21.536   3.314  21.099  0.00  0.00    +0.011 C 
ATOM     22  C   UNL     1      25.212   8.366  20.313  0.00  0.00    +0.041 C 
ENDROOT
BRANCH  12   5
ATOM      2  O   UNL     1      23.473   7.373  25.784  0.00  0.00    -0.270 OA
ATOM      5  N   UNL     1      21.843   5.979  24.903  0.00  0.00    -0.308 N 
ATOM     23  C   UNL     1      22.399   6.786  25.886  0.00  0.00    +0.246 C 
ATOM     41  H   UNL     1      20.957   5.512  25.064  0.00  0.00    +0.149 HD
BRANCH  23  25
ATOM      8  N   UNL     1      19.975   5.976  28.653  0.00  0.00    -0.263 NA
ATOM     25  C   UNL     1      21.625   6.904  27.150  0.00  0.00    +0.055 A 
ATOM     28  C   UNL     1      21.794   7.994  27.995  0.00  0.00    +0.016 A 
ATOM     29  C   UNL     1      20.711   5.931  27.521  0.00  0.00    +0.123 A 
ATOM     32  C   UNL     1      21.054   8.077  29.170  0.00  0.00    +0.020 A 
ATOM     34  C   UNL     1      20.166   7.051  29.451  0.00  0.00    +0.111 A 
ENDBRANCH  23  25
ENDBRANCH  12   5
BRANCH  16   1
ATOM      1  O   UNL     1      22.923   8.164  19.648  0.00  0.00    -0.389 OA
ATOM     42  H   UNL     1      22.018   8.104  20.001  0.00  0.00    +0.210 HD
ENDBRANCH  16   1
BRANCH   9  17
ATOM     17  C   UNL     1      20.269   6.181  22.441  0.00  0.00    +0.018 C 
BRANCH  17  21
ATOM     21  C   UNL     1      19.535   7.180  21.574  0.00  0.00    +0.096 C 
BRANCH  21  24
ATOM      3  O   UNL     1      18.993   5.401  20.105  0.00  0.00    -0.276 OA
ATOM      6  N   UNL     1      17.458   7.137  20.242  0.00  0.00    -0.298 N 
ATOM      7  N   UNL     1      14.696   7.675  20.465  0.00  0.00    -0.324 N 
ATOM     24  C   UNL     1      18.644   6.487  20.574  0.00  0.00    +0.216 C 
ATOM     26  C   UNL     1      16.532   6.539  19.284  0.00  0.00    +0.126 C 
ATOM     27  C   UNL     1      17.020   8.436  20.757  0.00  0.00    +0.126 C 
ATOM     30  C   UNL     1      15.140   6.394  19.894  0.00  0.00    +0.124 C 
ATOM     31  C   UNL     1      15.633   8.328  21.391  0.00  0.00    +0.124 C 
BRANCH   7  33
ATOM     33  C   UNL     1      13.320   7.877  20.620  0.00  0.00    +0.072 A 
ATOM     35  C   UNL     1      12.594   8.589  19.665  0.00  0.00    +0.141 A 
ATOM     36  C   UNL     1      12.674   7.357  21.742  0.00  0.00    +0.027 A 
ATOM     37  C   UNL     1      11.223   8.782  19.832  0.00  0.00    +0.047 A 
ATOM     38  C   UNL     1      11.303   7.550  21.909  0.00  0.00    +0.002 A 
ATOM     39  C   UNL     1      10.577   8.263  20.954  0.00  0.00    +0.004 A 
BRANCH  35   4
ATOM      4  O   UNL     1      13.206   9.106  18.562  0.00  0.00    -0.493 OA
ATOM     40  C   UNL     1      13.115   8.350  17.357  0.00  0.00    +0.277 C 
ENDBRANCH  35   4
ENDBRANCH   7  33
ENDBRANCH  21  24
ENDBRANCH  17  21
ENDBRANCH   9  17
TORSDOF 8
ENDMDL
MODEL 3
REMARK VINA RESULT:      -6.6     14.432     16.987
REMARK  Name = 45361246
REMARK  12 active torsions:
REMARK  status: ('A' for Active; 'I' for Inactive)
REMARK    1  A    between atoms: O_1  and  C_16
REMARK    2  A    between atoms: O_4  and  C_35
REMARK    3  A    between atoms: O_4  and  C_40
REMARK    4  A    between atoms: N_5  and  C_12
REMARK    5  A    between atoms: N_7  and  C_33
REMARK    6  A    between atoms: C_9  and  C_17
REMARK    7  A    between atoms: C_11  and  C_19
REMARK    8  A    between atoms: C_11  and  C_20
REMARK    9  A    between atoms: C_16  and  C_22
REMARK   10  A    between atoms: C_17  and  C_21
REMARK   11  A    between atoms: C_21  and  C_24
REMARK   12  A    between atoms: C_23  and  C_25
REMARK                            x       y       z     vdW  Elec       q    Type
REMARK                         _______ _______ _______ _____ _____    ______ ____
ROOT
ATOM      9  C   UNL     1      10.157   7.831   6.319  0.00  0.00    -0.007 C 
ATOM     10  C   UNL     1      10.846   6.539   5.768  0.00  0.00    +0.005 C 
ATOM     11  C   UNL     1      10.632   6.590   4.206  0.00  0.00    -0.030 C 
ATOM     12  C   UNL     1       8.913   7.899   5.404  0.00  0.00    +0.080 C 
ATOM     13  C   UNL     1       9.455   7.580   4.004  0.00  0.00    +0.029 C 
ATOM     14  C   UNL     1       9.822   7.772   7.828  0.00  0.00    +0.012 C 
ATOM     15  C   UNL     1      10.283   5.239   6.398  0.00  0.00    +0.039 C 
ATOM     16  C   UNL     1      10.174   5.279   7.923  0.00  0.00    +0.064 C 
ATOM     18  C   UNL     1       9.270   6.445   8.327  0.00  0.00    +0.035 C 
ATOM     19  C   UNL     1      10.293   5.243   3.538  0.00  0.00    +0.011 C 
ATOM     20  C   UNL     1      11.909   7.098   3.502  0.00  0.00    +0.011 C 
ATOM     22  C   UNL     1       9.618   3.957   8.456  0.00  0.00    +0.041 C 
ENDROOT
BRANCH  12   5
ATOM      2  O   UNL     1       7.072   8.886   3.434  0.00  0.00    -0.270 OA
ATOM      5  N   UNL     1       8.209   9.155   5.437  0.00  0.00    -0.308 N 
ATOM     23  C   UNL     1       7.334   9.549   4.434  0.00  0.00    +0.246 C 
ATOM     41  H   UNL     1       8.389   9.763   6.228  0.00  0.00    +0.149 HD
BRANCH  23  25
ATOM      8  N   UNL     1       4.716  12.255   4.550  0.00  0.00    -0.263 NA
ATOM     25  C   UNL     1       6.708  10.887   4.602  0.00  0.00    +0.055 A 
ATOM     28  C   UNL     1       7.470  11.996   4.953  0.00  0.00    +0.016 A 
ATOM     29  C   UNL     1       5.348  11.068   4.414  0.00  0.00    +0.123 A 
ATOM     32  C   UNL     1       6.855  13.234   5.103  0.00  0.00    +0.020 A 
ATOM     34  C   UNL     1       5.488  13.310   4.892  0.00  0.00    +0.111 A 
ENDBRANCH  23  25
ENDBRANCH  12   5
BRANCH  16   1
ATOM      1  O   UNL     1      11.480   5.459   8.470  0.00  0.00    -0.389 OA
ATOM     42  H   UNL     1      12.112   5.499   7.732  0.00  0.00    +0.210 HD
ENDBRANCH  16   1
BRANCH   9  17
ATOM     17  C   UNL     1      11.053   9.085   6.137  0.00  0.00    +0.018 C 
BRANCH  17  21
ATOM     21  C   UNL     1      12.285   9.024   7.012  0.00  0.00    +0.096 C 
BRANCH  21  24
ATOM      3  O   UNL     1      13.009  11.280   7.006  0.00  0.00    -0.276 OA
ATOM      6  N   UNL     1      14.402   9.741   5.968  0.00  0.00    -0.298 N 
ATOM      7  N   UNL     1      17.106   8.966   5.732  0.00  0.00    -0.324 N 
ATOM     24  C   UNL     1      13.259  10.121   6.666  0.00  0.00    +0.216 C 
ATOM     26  C   UNL     1      15.403  10.737   5.592  0.00  0.00    +0.126 C 
ATOM     27  C   UNL     1      14.723   8.383   5.524  0.00  0.00    +0.126 C 
ATOM     30  C   UNL     1      16.780  10.346   6.122  0.00  0.00    +0.124 C 
ATOM     31  C   UNL     1      16.092   7.950   6.049  0.00  0.00    +0.124 C 
BRANCH   7  33
ATOM     33  C   UNL     1      18.457   8.603   5.691  0.00  0.00    +0.072 A 
ATOM     35  C   UNL     1      19.037   8.155   4.505  0.00  0.00    +0.141 A 
ATOM     36  C   UNL     1      19.227   8.695   6.851  0.00  0.00    +0.027 A 
ATOM     37  C   UNL     1      20.385   7.796   4.478  0.00  0.00    +0.047 A 
ATOM     38  C   UNL     1      20.574   8.337   6.825  0.00  0.00    +0.002 A 
ATOM     39  C   UNL     1      21.153   7.887   5.638  0.00  0.00    +0.004 A 
BRANCH  35   4
ATOM      4  O   UNL     1      18.303   8.057   3.359  0.00  0.00    -0.493 OA
ATOM     40  C   UNL     1      18.949   8.423   2.143  0.00  0.00    +0.277 C 
ENDBRANCH  35   4
ENDBRANCH   7  33
ENDBRANCH  21  24
ENDBRANCH  17  21
ENDBRANCH   9  17
TORSDOF 8
ENDMDL
MODEL 4
REMARK VINA RESULT:      -6.6     29.948     33.566
REMARK  Name = 45361246
REMARK  12 active torsions:
REMARK  status: ('A' for Active; 'I' for Inactive)
REMARK    1  A    between atoms: O_1  and  C_16
REMARK    2  A    between atoms: O_4  and  C_35
REMARK    3  A    between atoms: O_4  and  C_40
REMARK    4  A    between atoms: N_5  and  C_12
REMARK    5  A    between atoms: N_7  and  C_33
REMARK    6  A    between atoms: C_9  and  C_17
REMARK    7  A    between atoms: C_11  and  C_19
REMARK    8  A    between atoms: C_11  and  C_20
REMARK    9  A    between atoms: C_16  and  C_22
REMARK   10  A    between atoms: C_17  and  C_21
REMARK   11  A    between atoms: C_21  and  C_24
REMARK   12  A    between atoms: C_23  and  C_25
REMARK                            x       y       z     vdW  Elec       q    Type
REMARK                         _______ _______ _______ _____ _____    ______ ____
ROOT
ATOM      9  C   UNL     1      -7.051 -11.377  15.983  0.00  0.00    -0.007 C 
ATOM     10  C   UNL     1      -6.968 -11.891  17.459  0.00  0.00    +0.005 C 
ATOM     11  C   UNL     1      -5.678 -11.212  18.060  0.00  0.00    -0.030 C 
ATOM     12  C   UNL     1      -5.555 -11.381  15.598  0.00  0.00    +0.080 C 
ATOM     13  C   UNL     1      -4.848 -10.781  16.821  0.00  0.00    +0.029 C 
ATOM     14  C   UNL     1      -7.937 -12.250  15.062  0.00  0.00    +0.012 C 
ATOM     15  C   UNL     1      -6.923 -13.437  17.559  0.00  0.00    +0.039 C 
ATOM     16  C   UNL     1      -7.980 -14.150  16.716  0.00  0.00    +0.064 C 
ATOM     18  C   UNL     1      -7.799 -13.754  15.251  0.00  0.00    +0.035 C 
ATOM     19  C   UNL     1      -4.817 -12.111  18.969  0.00  0.00    +0.011 C 
ATOM     20  C   UNL     1      -6.061  -9.988  18.920  0.00  0.00    +0.011 C 
ATOM     22  C   UNL     1      -7.865 -15.667  16.882  0.00  0.00    +0.041 C 
ENDROOT
BRANCH  12   5
ATOM      2  O   UNL     1      -4.186 -12.415  13.295  0.00  0.00    -0.270 OA
ATOM      5  N   UNL     1      -5.242 -10.665  14.389  0.00  0.00    -0.308 N 
ATOM     23  C   UNL     1      -4.574 -11.251  13.322  0.00  0.00    +0.246 C 
ATOM     41  H   UNL     1      -5.520  -9.690  14.347  0.00  0.00    +0.149 HD
BRANCH  23  25
ATOM      8  N   UNL     1      -5.098  -8.689  10.611  0.00  0.00    -0.263 NA
ATOM     25  C   UNL     1      -4.303 -10.368  12.158  0.00  0.00    +0.055 A 
ATOM     28  C   UNL     1      -3.063 -10.372  11.528  0.00  0.00    +0.016 A 
ATOM     29  C   UNL     1      -5.277  -9.516  11.665  0.00  0.00    +0.123 A 
ATOM     32  C   UNL     1      -2.840  -9.535  10.440  0.00  0.00    +0.020 A 
ATOM     34  C   UNL     1      -3.880  -8.721  10.024  0.00  0.00    +0.111 A 
ENDBRANCH  23  25
ENDBRANCH  12   5
BRANCH  16   1
ATOM      1  O   UNL     1      -9.273 -13.755  17.174  0.00  0.00    -0.389 OA
ATOM     42  H   UNL     1      -9.866 -14.523  17.102  0.00  0.00    +0.210 HD
ENDBRANCH  16   1
BRANCH   9  17
ATOM     17  C   UNL     1      -7.645  -9.946  15.902  0.00  0.00    +0.018 C 
BRANCH  17  21
ATOM     21  C   UNL     1      -9.157  -9.965  15.945  0.00  0.00    +0.096 C 
BRANCH  21  24
ATOM      3  O   UNL     1      -9.120  -8.327  17.658  0.00  0.00    -0.276 OA
ATOM      6  N   UNL     1     -10.848  -8.175  16.115  0.00  0.00    -0.298 N 
ATOM      7  N   UNL     1     -12.266  -6.337  14.511  0.00  0.00    -0.324 N 
ATOM     24  C   UNL     1      -9.700  -8.751  16.655  0.00  0.00    +0.216 C 
ATOM     26  C   UNL     1     -11.443  -6.994  16.735  0.00  0.00    +0.126 C 
ATOM     27  C   UNL     1     -11.579  -8.661  14.943  0.00  0.00    +0.126 C 
ATOM     30  C   UNL     1     -11.578  -5.861  15.721  0.00  0.00    +0.124 C 
ATOM     31  C   UNL     1     -11.722  -7.556  13.897  0.00  0.00    +0.124 C 
BRANCH   7  33
ATOM     33  C   UNL     1     -12.902  -5.384  13.707  0.00  0.00    +0.072 A 
ATOM     35  C   UNL     1     -14.294  -5.306  13.663  0.00  0.00    +0.141 A 
ATOM     36  C   UNL     1     -12.131  -4.506  12.945  0.00  0.00    +0.027 A 
ATOM     37  C   UNL     1     -14.915  -4.352  12.857  0.00  0.00    +0.047 A 
ATOM     38  C   UNL     1     -12.750  -3.551  12.140  0.00  0.00    +0.002 A 
ATOM     39  C   UNL     1     -14.143  -3.474  12.095  0.00  0.00    +0.004 A 
BRANCH  35   4
ATOM      4  O   UNL     1     -15.067  -6.155  14.399  0.00  0.00    -0.493 OA
ATOM     40  C   UNL     1     -16.067  -6.891  13.699  0.00  0.00    +0.277 C 
ENDBRANCH  35   4
ENDBRANCH   7  33
ENDBRANCH  21  24
ENDBRANCH  17  21
ENDBRANCH   9  17
TORSDOF 8
ENDMDL
MODEL 5
REMARK VINA RESULT:      -6.6     15.531     21.336
REMARK  Name = 45361246
REMARK  12 active torsions:
REMARK  status: ('A' for Active; 'I' for Inactive)
REMARK    1  A    between atoms: O_1  and  C_16
REMARK    2  A    between atoms: O_4  and  C_35
REMARK    3  A    between atoms: O_4  and  C_40
REMARK    4  A    between atoms: N_5  and  C_12
REMARK    5  A    between atoms: N_7  and  C_33
REMARK    6  A    between atoms: C_9  and  C_17
REMARK    7  A    between atoms: C_11  and  C_19
REMARK    8  A    between atoms: C_11  and  C_20
REMARK    9  A    between atoms: C_16  and  C_22
REMARK   10  A    between atoms: C_17  and  C_21
REMARK   11  A    between atoms: C_21  and  C_24
REMARK   12  A    between atoms: C_23  and  C_25
REMARK                            x       y       z     vdW  Elec       q    Type
REMARK                         _______ _______ _______ _____ _____    ______ ____
ROOT
ATOM      9  C   UNL     1      10.602   7.334   5.632  0.00  0.00    -0.007 C 
ATOM     10  C   UNL     1      11.436   7.330   6.957  0.00  0.00    +0.005 C 
ATOM     11  C   UNL     1      12.940   7.454   6.497  0.00  0.00    -0.030 C 
ATOM     12  C   UNL     1      11.521   6.493   4.717  0.00  0.00    +0.080 C 
ATOM     13  C   UNL     1      12.932   7.025   5.006  0.00  0.00    +0.029 C 
ATOM     14  C   UNL     1       9.175   6.757   5.786  0.00  0.00    +0.012 C 
ATOM     15  C   UNL     1      11.186   6.070   7.824  0.00  0.00    +0.039 C 
ATOM     16  C   UNL     1       9.709   5.731   8.024  0.00  0.00    +0.064 C 
ATOM     18  C   UNL     1       9.058   5.515   6.657  0.00  0.00    +0.035 C 
ATOM     19  C   UNL     1      13.946   6.584   7.277  0.00  0.00    +0.011 C 
ATOM     20  C   UNL     1      13.434   8.909   6.652  0.00  0.00    +0.011 C 
ATOM     22  C   UNL     1       9.558   4.482   8.895  0.00  0.00    +0.041 C 
ENDROOT
BRANCH  12   5
ATOM      2  O   UNL     1      10.526   4.349   3.087  0.00  0.00    -0.270 OA
ATOM      5  N   UNL     1      11.197   6.557   3.316  0.00  0.00    -0.308 N 
ATOM     23  C   UNL     1      10.719   5.463   2.607  0.00  0.00    +0.246 C 
ATOM     41  H   UNL     1      11.347   7.444   2.849  0.00  0.00    +0.149 HD
BRANCH  23  25
ATOM      8  N   UNL     1      10.037   4.751  -1.028  0.00  0.00    -0.263 NA
ATOM     25  C   UNL     1      10.458   5.686   1.161  0.00  0.00    +0.055 A 
ATOM     28  C   UNL     1      10.390   6.970   0.635  0.00  0.00    +0.016 A 
ATOM     29  C   UNL     1      10.276   4.619   0.295  0.00  0.00    +0.123 A 
ATOM     32  C   UNL     1      10.145   7.147  -0.723  0.00  0.00    +0.020 A 
ATOM     34  C   UNL     1       9.977   6.015  -1.505  0.00  0.00    +0.111 A 
ENDBRANCH  23  25
ENDBRANCH  12   5
BRANCH  16   1
ATOM      1  O   UNL     1       9.078   6.817   8.701  0.00  0.00    -0.389 OA
ATOM     42  H   UNL     1       9.682   7.579   8.676  0.00  0.00    +0.210 HD
ENDBRANCH  16   1
BRANCH   9  17
ATOM     17  C   UNL     1      10.417   8.768   5.071  0.00  0.00    +0.018 C 
BRANCH  17  21
ATOM     21  C   UNL     1       9.668   9.656   6.041  0.00  0.00    +0.096 C 
BRANCH  21  24
ATOM      3  O   UNL     1       9.688  11.950   5.446  0.00  0.00    -0.276 OA
ATOM      6  N   UNL     1       7.925  10.681   4.626  0.00  0.00    -0.298 N 
ATOM      7  N   UNL     1       6.417  10.181   2.294  0.00  0.00    -0.324 N 
ATOM     24  C   UNL     1       9.101  10.869   5.348  0.00  0.00    +0.216 C 
ATOM     26  C   UNL     1       7.305  11.800   3.921  0.00  0.00    +0.126 C 
ATOM     27  C   UNL     1       7.186   9.422   4.506  0.00  0.00    +0.126 C 
ATOM     30  C   UNL     1       7.114  11.468   2.443  0.00  0.00    +0.124 C 
ATOM     31  C   UNL     1       6.988   9.049   3.037  0.00  0.00    +0.124 C 
BRANCH   7  33
ATOM     33  C   UNL     1       5.735   9.946   1.095  0.00  0.00    +0.072 A 
ATOM     35  C   UNL     1       4.347   9.820   1.079  0.00  0.00    +0.141 A 
ATOM     36  C   UNL     1       6.458   9.839  -0.094  0.00  0.00    +0.027 A 
ATOM     37  C   UNL     1       3.679   9.585  -0.123  0.00  0.00    +0.047 A 
ATOM     38  C   UNL     1       5.792   9.605  -1.297  0.00  0.00    +0.002 A 
ATOM     39  C   UNL     1       4.402   9.478  -1.312  0.00  0.00    +0.004 A 
BRANCH  35   4
ATOM      4  O   UNL     1       3.621   9.921   2.230  0.00  0.00    -0.493 OA
ATOM     40  C   UNL     1       2.882  11.123   2.426  0.00  0.00    +0.277 C 
ENDBRANCH  35   4
ENDBRANCH   7  33
ENDBRANCH  21  24
ENDBRANCH  17  21
ENDBRANCH   9  17
TORSDOF 8
ENDMDL
MODEL 6
REMARK VINA RESULT:      -6.5     12.700     17.964
REMARK  Name = 45361246
REMARK  12 active torsions:
REMARK  status: ('A' for Active; 'I' for Inactive)
REMARK    1  A    between atoms: O_1  and  C_16
REMARK    2  A    between atoms: O_4  and  C_35
REMARK    3  A    between atoms: O_4  and  C_40
REMARK    4  A    between atoms: N_5  and  C_12
REMARK    5  A    between atoms: N_7  and  C_33
REMARK    6  A    between atoms: C_9  and  C_17
REMARK    7  A    between atoms: C_11  and  C_19
REMARK    8  A    between atoms: C_11  and  C_20
REMARK    9  A    between atoms: C_16  and  C_22
REMARK   10  A    between atoms: C_17  and  C_21
REMARK   11  A    between atoms: C_21  and  C_24
REMARK   12  A    between atoms: C_23  and  C_25
REMARK                            x       y       z     vdW  Elec       q    Type
REMARK                         _______ _______ _______ _____ _____    ______ ____
ROOT
ATOM      9  C   UNL     1      10.557   7.085   5.225  0.00  0.00    -0.007 C 
ATOM     10  C   UNL     1      11.360   7.320   6.548  0.00  0.00    +0.005 C 
ATOM     11  C   UNL     1      12.848   7.573   6.089  0.00  0.00    -0.030 C 
ATOM     12  C   UNL     1      11.586   6.268   4.411  0.00  0.00    +0.080 C 
ATOM     13  C   UNL     1      12.919   6.992   4.651  0.00  0.00    +0.029 C 
ATOM     14  C   UNL     1       9.205   6.363   5.430  0.00  0.00    +0.012 C 
ATOM     15  C   UNL     1      11.243   6.137   7.543  0.00  0.00    +0.039 C 
ATOM     16  C   UNL     1       9.812   5.648   7.768  0.00  0.00    +0.064 C 
ATOM     18  C   UNL     1       9.218   5.214   6.428  0.00  0.00    +0.035 C 
ATOM     19  C   UNL     1      13.934   6.916   6.964  0.00  0.00    +0.011 C 
ATOM     20  C   UNL     1      13.164   9.084   6.090  0.00  0.00    +0.011 C 
ATOM     22  C   UNL     1       9.793   4.489   8.767  0.00  0.00    +0.041 C 
ENDROOT
BRANCH  12   5
ATOM      2  O   UNL     1      10.917   3.856   3.005  0.00  0.00    -0.270 OA
ATOM      5  N   UNL     1      11.284   6.146   3.010  0.00  0.00    -0.308 N 
ATOM     23  C   UNL     1      10.969   4.931   2.414  0.00  0.00    +0.246 C 
ATOM     41  H   UNL     1      11.324   6.993   2.454  0.00  0.00    +0.149 HD
BRANCH  23  25
ATOM      8  N   UNL     1      10.952   3.926  -1.216  0.00  0.00    -0.263 NA
ATOM     25  C   UNL     1      10.710   4.969   0.951  0.00  0.00    +0.055 A 
ATOM     28  C   UNL     1      10.015   6.026   0.374  0.00  0.00    +0.016 A 
ATOM     29  C   UNL     1      11.153   3.953   0.120  0.00  0.00    +0.123 A 
ATOM     32  C   UNL     1       9.788   6.033  -0.998  0.00  0.00    +0.020 A 
ATOM     34  C   UNL     1      10.273   4.970  -1.742  0.00  0.00    +0.111 A 
ENDBRANCH  23  25
ENDBRANCH  12   5
BRANCH  16   1
ATOM      1  O   UNL     1       9.045   6.717   8.321  0.00  0.00    -0.389 OA
ATOM     42  H   UNL     1       8.384   6.987   7.660  0.00  0.00    +0.210 HD
ENDBRANCH  16   1
BRANCH   9  17
ATOM     17  C   UNL     1      10.215   8.421   4.513  0.00  0.00    +0.018 C 
BRANCH  17  21
ATOM     21  C   UNL     1       9.263   9.264   5.332  0.00  0.00    +0.096 C 
BRANCH  21  24
ATOM      3  O   UNL     1       9.855  11.440   4.605  0.00  0.00    -0.276 OA
ATOM      6  N   UNL     1      10.236  10.955   6.843  0.00  0.00    -0.298 N 
ATOM      7  N   UNL     1       9.939  12.003   9.446  0.00  0.00    -0.324 N 
ATOM     24  C   UNL     1       9.810  10.651   5.552  0.00  0.00    +0.216 C 
ATOM     26  C   UNL     1      10.779  12.276   7.149  0.00  0.00    +0.126 C 
ATOM     27  C   UNL     1      10.222  10.041   7.987  0.00  0.00    +0.126 C 
ATOM     30  C   UNL     1      10.011  12.922   8.300  0.00  0.00    +0.124 C 
ATOM     31  C   UNL     1       9.449  10.648   9.156  0.00  0.00    +0.124 C 
BRANCH   7  33
ATOM     33  C   UNL     1       9.725  12.559  10.713  0.00  0.00    +0.072 A 
ATOM     35  C   UNL     1      10.700  12.464  11.705  0.00  0.00    +0.141 A 
ATOM     36  C   UNL     1       8.521  13.213  10.979  0.00  0.00    +0.027 A 
ATOM     37  C   UNL     1      10.473  13.022  12.963  0.00  0.00    +0.047 A 
ATOM     38  C   UNL     1       8.294  13.771  12.236  0.00  0.00    +0.002 A 
ATOM     39  C   UNL     1       9.270  13.676  13.229  0.00  0.00    +0.004 A 
BRANCH  35   4
ATOM      4  O   UNL     1      11.883  11.829  11.466  0.00  0.00    -0.493 OA
ATOM     40  C   UNL     1      13.076  12.578  11.685  0.00  0.00    +0.277 C 
ENDBRANCH  35   4
ENDBRANCH   7  33
ENDBRANCH  21  24
ENDBRANCH  17  21
ENDBRANCH   9  17
TORSDOF 8
ENDMDL
MODEL 7
REMARK VINA RESULT:      -6.5     17.067     22.135
REMARK  Name = 45361246
REMARK  12 active torsions:
REMARK  status: ('A' for Active; 'I' for Inactive)
REMARK    1  A    between atoms: O_1  and  C_16
REMARK    2  A    between atoms: O_4  and  C_35
REMARK    3  A    between atoms: O_4  and  C_40
REMARK    4  A    between atoms: N_5  and  C_12
REMARK    5  A    between atoms: N_7  and  C_33
REMARK    6  A    between atoms: C_9  and  C_17
REMARK    7  A    between atoms: C_11  and  C_19
REMARK    8  A    between atoms: C_11  and  C_20
REMARK    9  A    between atoms: C_16  and  C_22
REMARK   10  A    between atoms: C_17  and  C_21
REMARK   11  A    between atoms: C_21  and  C_24
REMARK   12  A    between atoms: C_23  and  C_25
REMARK                            x       y       z     vdW  Elec       q    Type
REMARK                         _______ _______ _______ _____ _____    ______ ____
ROOT
ATOM      9  C   UNL     1      10.414   6.820   4.454  0.00  0.00    -0.007 C 
ATOM     10  C   UNL     1      11.093   6.043   5.631  0.00  0.00    +0.005 C 
ATOM     11  C   UNL     1       9.902   5.385   6.431  0.00  0.00    -0.030 C 
ATOM     12  C   UNL     1       9.161   7.375   5.167  0.00  0.00    +0.080 C 
ATOM     13  C   UNL     1       8.649   6.195   6.005  0.00  0.00    +0.029 C 
ATOM     14  C   UNL     1      11.310   7.912   3.823  0.00  0.00    +0.012 C 
ATOM     15  C   UNL     1      11.974   6.951   6.526  0.00  0.00    +0.039 C 
ATOM     16  C   UNL     1      12.933   7.853   5.749  0.00  0.00    +0.064 C 
ATOM     18  C   UNL     1      12.124   8.743   4.805  0.00  0.00    +0.035 C 
ATOM     19  C   UNL     1      10.038   5.415   7.966  0.00  0.00    +0.011 C 
ATOM     20  C   UNL     1       9.754   3.896   6.051  0.00  0.00    +0.011 C 
ATOM     22  C   UNL     1      13.765   8.705   6.711  0.00  0.00    +0.041 C 
ENDROOT
BRANCH  12   5
ATOM      2  O   UNL     1       8.501  10.137   4.740  0.00  0.00    -0.270 OA
ATOM      5  N   UNL     1       8.146   7.891   4.286  0.00  0.00    -0.308 N 
ATOM     23  C   UNL     1       7.898   9.250   4.144  0.00  0.00    +0.246 C 
ATOM     41  H   UNL     1       7.595   7.213   3.771  0.00  0.00    +0.149 HD
BRANCH  23  25
ATOM      8  N   UNL     1       4.559  10.477   2.904  0.00  0.00    -0.263 NA
ATOM     25  C   UNL     1       6.797   9.618   3.215  0.00  0.00    +0.055 A 
ATOM     28  C   UNL     1       6.939   9.466   1.840  0.00  0.00    +0.016 A 
ATOM     29  C   UNL     1       5.599  10.123   3.692  0.00  0.00    +0.123 A 
ATOM     32  C   UNL     1       5.891   9.819   0.997  0.00  0.00    +0.020 A 
ATOM     34  C   UNL     1       4.733  10.315   1.573  0.00  0.00    +0.111 A 
ENDBRANCH  23  25
ENDBRANCH  12   5
BRANCH  16   1
ATOM      1  O   UNL     1      13.830   7.032   5.001  0.00  0.00    -0.389 OA
ATOM     42  H   UNL     1      13.386   6.779   4.173  0.00  0.00    +0.210 HD
ENDBRANCH  16   1
BRANCH   9  17
ATOM     17  C   UNL     1      10.022   5.875   3.288  0.00  0.00    +0.018 C 
BRANCH  17  21
ATOM     21  C   UNL     1      10.808   6.179   2.032  0.00  0.00    +0.096 C 
BRANCH  21  24
ATOM      3  O   UNL     1      11.922   4.119   2.396  0.00  0.00    -0.276 OA
ATOM      6  N   UNL     1      11.899   4.915   0.215  0.00  0.00    -0.298 N 
ATOM      7  N   UNL     1      11.482   4.115  -2.459  0.00  0.00    -0.324 N 
ATOM     24  C   UNL     1      11.593   4.977   1.572  0.00  0.00    +0.216 C 
ATOM     26  C   UNL     1      12.654   3.785  -0.320  0.00  0.00    +0.126 C 
ATOM     27  C   UNL     1      11.548   5.922  -0.788  0.00  0.00    +0.126 C 
ATOM     30  C   UNL     1      11.890   3.116  -1.460  0.00  0.00    +0.124 C 
ATOM     31  C   UNL     1      10.768   5.290  -1.941  0.00  0.00    +0.124 C 
BRANCH   7  33
ATOM     33  C   UNL     1      11.221   3.667  -3.759  0.00  0.00    +0.072 A 
ATOM     35  C   UNL     1      12.203   3.738  -4.746  0.00  0.00    +0.141 A 
ATOM     36  C   UNL     1       9.964   3.143  -4.063  0.00  0.00    +0.027 A 
ATOM     37  C   UNL     1      11.929   3.288  -6.038  0.00  0.00    +0.047 A 
ATOM     38  C   UNL     1       9.689   2.692  -5.353  0.00  0.00    +0.002 A 
ATOM     39  C   UNL     1      10.672   2.765  -6.341  0.00  0.00    +0.004 A 
BRANCH  35   4
ATOM      4  O   UNL     1      13.438   4.247  -4.470  0.00  0.00    -0.493 OA
ATOM     40  C   UNL     1      13.726   5.552  -4.966  0.00  0.00    +0.277 C 
ENDBRANCH  35   4
ENDBRANCH   7  33
ENDBRANCH  21  24
ENDBRANCH  17  21
ENDBRANCH   9  17
TORSDOF 8
ENDMDL
MODEL 8
REMARK VINA RESULT:      -6.5     16.127     20.733
REMARK  Name = 45361246
REMARK  12 active torsions:
REMARK  status: ('A' for Active; 'I' for Inactive)
REMARK    1  A    between atoms: O_1  and  C_16
REMARK    2  A    between atoms: O_4  and  C_35
REMARK    3  A    between atoms: O_4  and  C_40
REMARK    4  A    between atoms: N_5  and  C_12
REMARK    5  A    between atoms: N_7  and  C_33
REMARK    6  A    between atoms: C_9  and  C_17
REMARK    7  A    between atoms: C_11  and  C_19
REMARK    8  A    between atoms: C_11  and  C_20
REMARK    9  A    between atoms: C_16  and  C_22
REMARK   10  A    between atoms: C_17  and  C_21
REMARK   11  A    between atoms: C_21  and  C_24
REMARK   12  A    between atoms: C_23  and  C_25
REMARK                            x       y       z     vdW  Elec       q    Type
REMARK                         _______ _______ _______ _____ _____    ______ ____
ROOT
ATOM      9  C   UNL     1      10.347   6.927   4.530  0.00  0.00    -0.007 C 
ATOM     10  C   UNL     1      11.079   6.086   5.628  0.00  0.00    +0.005 C 
ATOM     11  C   UNL     1       9.927   5.472   6.514  0.00  0.00    -0.030 C 
ATOM     12  C   UNL     1       9.191   7.530   5.360  0.00  0.00    +0.080 C 
ATOM     13  C   UNL     1       8.688   6.358   6.215  0.00  0.00    +0.029 C 
ATOM     14  C   UNL     1      11.244   7.986   3.846  0.00  0.00    +0.012 C 
ATOM     15  C   UNL     1      12.083   6.922   6.461  0.00  0.00    +0.039 C 
ATOM     16  C   UNL     1      13.020   7.792   5.623  0.00  0.00    +0.064 C 
ATOM     18  C   UNL     1      12.184   8.747   4.771  0.00  0.00    +0.035 C 
ATOM     19  C   UNL     1      10.194   5.456   8.032  0.00  0.00    +0.011 C 
ATOM     20  C   UNL     1       9.665   4.003   6.118  0.00  0.00    +0.011 C 
ATOM     22  C   UNL     1      13.977   8.574   6.526  0.00  0.00    +0.041 C 
ENDROOT
BRANCH  12   5
ATOM      2  O   UNL     1       8.321  10.265   5.445  0.00  0.00    -0.270 OA
ATOM      5  N   UNL     1       8.135   8.121   4.581  0.00  0.00    -0.308 N 
ATOM     23  C   UNL     1       7.783   9.460   4.690  0.00  0.00    +0.246 C 
ATOM     41  H   UNL     1       7.634   7.510   3.946  0.00  0.00    +0.149 HD
BRANCH  23  25
ATOM      8  N   UNL     1       4.567  11.115   3.639  0.00  0.00    -0.263 NA
ATOM     25  C   UNL     1       6.652   9.909   3.836  0.00  0.00    +0.055 A 
ATOM     28  C   UNL     1       6.594   9.573   2.489  0.00  0.00    +0.016 A 
ATOM     29  C   UNL     1       5.623  10.675   4.359  0.00  0.00    +0.123 A 
ATOM     32  C   UNL     1       5.523  10.007   1.715  0.00  0.00    +0.020 A 
ATOM     34  C   UNL     1       4.544  10.769   2.333  0.00  0.00    +0.111 A 
ENDBRANCH  23  25
ENDBRANCH  12   5
BRANCH  16   1
ATOM      1  O   UNL     1      13.803   6.944   4.784  0.00  0.00    -0.389 OA
ATOM     42  H   UNL     1      13.899   7.381   3.920  0.00  0.00    +0.210 HD
ENDBRANCH  16   1
BRANCH   9  17
ATOM     17  C   UNL     1       9.805   6.034   3.383  0.00  0.00    +0.018 C 
BRANCH  17  21
ATOM     21  C   UNL     1      10.639   6.167   2.128  0.00  0.00    +0.096 C 
BRANCH  21  24
ATOM      3  O   UNL     1      10.252   3.905   1.538  0.00  0.00    -0.276 OA
ATOM      6  N   UNL     1      12.416   4.695   1.254  0.00  0.00    -0.298 N 
ATOM      7  N   UNL     1      14.580   4.704  -0.558  0.00  0.00    -0.324 N 
ATOM     24  C   UNL     1      11.077   4.819   1.615  0.00  0.00    +0.216 C 
ATOM     26  C   UNL     1      12.928   3.426   0.745  0.00  0.00    +0.126 C 
ATOM     27  C   UNL     1      13.430   5.746   1.354  0.00  0.00    +0.126 C 
ATOM     30  C   UNL     1      13.590   3.618  -0.618  0.00  0.00    +0.124 C 
ATOM     31  C   UNL     1      14.106   5.977   0.003  0.00  0.00    +0.124 C 
BRANCH   7  33
ATOM     33  C   UNL     1      15.600   4.708  -1.516  0.00  0.00    +0.072 A 
ATOM     35  C   UNL     1      15.326   5.025  -2.845  0.00  0.00    +0.141 A 
ATOM     36  C   UNL     1      16.903   4.392  -1.129  0.00  0.00    +0.027 A 
ATOM     37  C   UNL     1      16.352   5.025  -3.790  0.00  0.00    +0.047 A 
ATOM     38  C   UNL     1      17.930   4.393  -2.072  0.00  0.00    +0.002 A 
ATOM     39  C   UNL     1      17.655   4.709  -3.403  0.00  0.00    +0.004 A 
BRANCH  35   4
ATOM      4  O   UNL     1      14.059   5.336  -3.244  0.00  0.00    -0.493 OA
ATOM     40  C   UNL     1      13.570   4.683  -4.413  0.00  0.00    +0.277 C 
ENDBRANCH  35   4
ENDBRANCH   7  33
ENDBRANCH  21  24
ENDBRANCH  17  21
ENDBRANCH   9  17
TORSDOF 8
ENDMDL
MODEL 9
REMARK VINA RESULT:      -6.4      2.729      9.147
REMARK  Name = 45361246
REMARK  12 active torsions:
REMARK  status: ('A' for Active; 'I' for Inactive)
REMARK    1  A    between atoms: O_1  and  C_16
REMARK    2  A    between atoms: O_4  and  C_35
REMARK    3  A    between atoms: O_4  and  C_40
REMARK    4  A    between atoms: N_5  and  C_12
REMARK    5  A    between atoms: N_7  and  C_33
REMARK    6  A    between atoms: C_9  and  C_17
REMARK    7  A    between atoms: C_11  and  C_19
REMARK    8  A    between atoms: C_11  and  C_20
REMARK    9  A    between atoms: C_16  and  C_22
REMARK   10  A    between atoms: C_17  and  C_21
REMARK   11  A    between atoms: C_21  and  C_24
REMARK   12  A    between atoms: C_23  and  C_25
REMARK                            x       y       z     vdW  Elec       q    Type
REMARK                         _______ _______ _______ _____ _____    ______ ____
ROOT
ATOM      9  C   UNL     1      21.744   6.901  21.286  0.00  0.00    -0.007 C 
ATOM     10  C   UNL     1      21.796   6.682  22.834  0.00  0.00    +0.005 C 
ATOM     11  C   UNL     1      21.998   8.122  23.447  0.00  0.00    -0.030 C 
ATOM     12  C   UNL     1      22.816   8.000  21.119  0.00  0.00    +0.080 C 
ATOM     13  C   UNL     1      22.539   8.977  22.271  0.00  0.00    +0.029 C 
ATOM     14  C   UNL     1      22.024   5.623  20.460  0.00  0.00    +0.012 C 
ATOM     15  C   UNL     1      22.910   5.695  23.268  0.00  0.00    +0.039 C 
ATOM     16  C   UNL     1      22.945   4.397  22.460  0.00  0.00    +0.064 C 
ATOM     18  C   UNL     1      23.145   4.736  20.983  0.00  0.00    +0.035 C 
ATOM     19  C   UNL     1      22.975   8.206  24.637  0.00  0.00    +0.011 C 
ATOM     20  C   UNL     1      20.656   8.682  23.966  0.00  0.00    +0.011 C 
ATOM     22  C   UNL     1      24.066   3.484  22.961  0.00  0.00    +0.041 C 
ENDROOT
BRANCH  12   5
ATOM      2  O   UNL     1      25.047   9.264  19.825  0.00  0.00    -0.270 OA
ATOM      5  N   UNL     1      22.808   8.660  19.840  0.00  0.00    -0.308 N 
ATOM     23  C   UNL     1      23.942   9.245  19.291  0.00  0.00    +0.246 C 
ATOM     41  H   UNL     1      21.923   8.698  19.346  0.00  0.00    +0.149 HD
BRANCH  23  25
ATOM      8  N   UNL     1      24.613  10.368  15.759  0.00  0.00    -0.263 NA
ATOM     25  C   UNL     1      23.761   9.911  17.974  0.00  0.00    +0.055 A 
ATOM     28  C   UNL     1      22.631  10.675  17.707  0.00  0.00    +0.016 A 
ATOM     29  C   UNL     1      24.714   9.790  16.976  0.00  0.00    +0.123 A 
ATOM     32  C   UNL     1      22.491  11.286  16.465  0.00  0.00    +0.020 A 
ATOM     34  C   UNL     1      23.500  11.104  15.534  0.00  0.00    +0.111 A 
ENDBRANCH  23  25
ENDBRANCH  12   5
BRANCH  16   1
ATOM      1  O   UNL     1      21.706   3.712  22.642  0.00  0.00    -0.389 OA
ATOM     42  H   UNL     1      21.560   3.602  23.598  0.00  0.00    +0.210 HD
ENDBRANCH  16   1
BRANCH   9  17
ATOM     17  C   UNL     1      20.351   7.403  20.820  0.00  0.00    +0.018 C 
BRANCH  17  21
ATOM     21  C   UNL     1      19.237   6.522  21.339  0.00  0.00    +0.096 C 
BRANCH  21  24
ATOM      3  O   UNL     1      18.416   5.322  19.468  0.00  0.00    -0.276 OA
ATOM      6  N   UNL     1      17.087   7.056  20.252  0.00  0.00    -0.298 N 
ATOM      7  N   UNL     1      14.419   7.729  20.878  0.00  0.00    -0.324 N 
ATOM     24  C   UNL     1      18.216   6.240  20.267  0.00  0.00    +0.216 C 
ATOM     26  C   UNL     1      16.044   6.855  19.249  0.00  0.00    +0.126 C 
ATOM     27  C   UNL     1      16.824   8.170  21.166  0.00  0.00    +0.126 C 
ATOM     30  C   UNL     1      14.686   6.649  19.916  0.00  0.00    +0.124 C 
ATOM     31  C   UNL     1      15.476   7.991  21.864  0.00  0.00    +0.124 C 
BRANCH   7  33
ATOM     33  C   UNL     1      13.084   7.988  21.211  0.00  0.00    +0.072 A 
ATOM     35  C   UNL     1      12.608   9.297  21.276  0.00  0.00    +0.141 A 
ATOM     36  C   UNL     1      12.226   6.921  21.480  0.00  0.00    +0.027 A 
ATOM     37  C   UNL     1      11.276   9.540  21.610  0.00  0.00    +0.047 A 
ATOM     38  C   UNL     1      10.894   7.163  21.813  0.00  0.00    +0.002 A 
ATOM     39  C   UNL     1      10.419   8.473  21.879  0.00  0.00    +0.004 A 
BRANCH  35   4
ATOM      4  O   UNL     1      13.430  10.354  21.018  0.00  0.00    -0.493 OA
ATOM     40  C   UNL     1      13.663  11.268  22.087  0.00  0.00    +0.277 C 
ENDBRANCH  35   4
ENDBRANCH   7  33
ENDBRANCH  21  24
ENDBRANCH  17  21
ENDBRANCH   9  17
TORSDOF 8
ENDMDL
MODEL 10
REMARK VINA RESULT:      -6.2      4.364      7.293
REMARK  Name = 45361246
REMARK  12 active torsions:
REMARK  status: ('A' for Active; 'I' for Inactive)
REMARK    1  A    between atoms: O_1  and  C_16
REMARK    2  A    between atoms: O_4  and  C_35
REMARK    3  A    between atoms: O_4  and  C_40
REMARK    4  A    between atoms: N_5  and  C_12
REMARK    5  A    between atoms: N_7  and  C_33
REMARK    6  A    between atoms: C_9  and  C_17
REMARK    7  A    between atoms: C_11  and  C_19
REMARK    8  A    between atoms: C_11  and  C_20
REMARK    9  A    between atoms: C_16  and  C_22
REMARK   10  A    between atoms: C_17  and  C_21
REMARK   11  A    between atoms: C_21  and  C_24
REMARK   12  A    between atoms: C_23  and  C_25
REMARK                            x       y       z     vdW  Elec       q    Type
REMARK                         _______ _______ _______ _____ _____    ______ ____
ROOT
ATOM      9  C   UNL     1      12.986  10.637  20.747  0.00  0.00    -0.007 C 
ATOM     10  C   UNL     1      11.601  10.465  21.454  0.00  0.00    +0.005 C 
ATOM     11  C   UNL     1      11.640  11.452  22.684  0.00  0.00    -0.030 C 
ATOM     12  C   UNL     1      13.913  10.791  21.974  0.00  0.00    +0.080 C 
ATOM     13  C   UNL     1      13.148  11.740  22.908  0.00  0.00    +0.029 C 
ATOM     14  C   UNL     1      13.368   9.461  19.818  0.00  0.00    +0.012 C 
ATOM     15  C   UNL     1      11.318   9.002  21.881  0.00  0.00    +0.039 C 
ATOM     16  C   UNL     1      11.585   7.968  20.787  0.00  0.00    +0.064 C 
ATOM     18  C   UNL     1      13.046   8.071  20.350  0.00  0.00    +0.035 C 
ATOM     19  C   UNL     1      11.019  10.914  23.988  0.00  0.00    +0.011 C 
ATOM     20  C   UNL     1      10.872  12.751  22.358  0.00  0.00    +0.011 C 
ATOM     22  C   UNL     1      11.273   6.558  21.294  0.00  0.00    +0.041 C 
ENDROOT
BRANCH  12   5
ATOM      2  O   UNL     1      16.330   9.245  21.867  0.00  0.00    -0.270 OA
ATOM      5  N   UNL     1      15.233  11.279  21.674  0.00  0.00    -0.308 N 
ATOM     23  C   UNL     1      16.348  10.452  21.645  0.00  0.00    +0.246 C 
ATOM     41  H   UNL     1      15.328  12.272  21.494  0.00  0.00    +0.149 HD
BRANCH  23  25
ATOM      8  N   UNL     1      19.781  11.923  22.136  0.00  0.00    -0.263 NA
ATOM     25  C   UNL     1      17.645  11.115  21.345  0.00  0.00    +0.055 A 
ATOM     28  C   UNL     1      17.950  11.543  20.058  0.00  0.00    +0.016 A 
ATOM     29  C   UNL     1      18.585  11.327  22.340  0.00  0.00    +0.123 A 
ATOM     32  C   UNL     1      19.171  12.161  19.809  0.00  0.00    +0.020 A 
ATOM     34  C   UNL     1      20.044  12.326  20.873  0.00  0.00    +0.111 A 
ENDBRANCH  23  25
ENDBRANCH  12   5
BRANCH  16   1
ATOM      1  O   UNL     1      10.723   8.239  19.682  0.00  0.00    -0.389 OA
ATOM     42  H   UNL     1       9.973   7.621  19.727  0.00  0.00    +0.210 HD
ENDBRANCH  16   1
BRANCH   9  17
ATOM     17  C   UNL     1      13.025  11.905  19.854  0.00  0.00    +0.018 C 
BRANCH  17  21
ATOM     21  C   UNL     1      13.816  11.672  18.586  0.00  0.00    +0.096 C 
BRANCH  21  24
ATOM      3  O   UNL     1      15.234  13.399  19.375  0.00  0.00    -0.276 OA
ATOM      6  N   UNL     1      15.417  12.853  17.126  0.00  0.00    -0.298 N 
ATOM      7  N   UNL     1      17.302  12.359  15.085  0.00  0.00    -0.324 N 
ATOM     24  C   UNL     1      14.884  12.720  18.406  0.00  0.00    +0.216 C 
ATOM     26  C   UNL     1      16.458  13.842  16.859  0.00  0.00    +0.126 C 
ATOM     27  C   UNL     1      15.012  12.085  15.946  0.00  0.00    +0.126 C 
ATOM     30  C   UNL     1      17.688  13.178  16.243  0.00  0.00    +0.124 C 
ATOM     31  C   UNL     1      16.217  11.393  15.310  0.00  0.00    +0.124 C 
BRANCH   7  33
ATOM     33  C   UNL     1      18.285  12.082  14.127  0.00  0.00    +0.072 A 
ATOM     35  C   UNL     1      18.122  12.488  12.803  0.00  0.00    +0.141 A 
ATOM     36  C   UNL     1      19.437  11.393  14.508  0.00  0.00    +0.027 A 
ATOM     37  C   UNL     1      19.109  12.205  11.859  0.00  0.00    +0.047 A 
ATOM     38  C   UNL     1      20.424  11.110  13.565  0.00  0.00    +0.002 A 
ATOM     39  C   UNL     1      20.261  11.516  12.240  0.00  0.00    +0.004 A 
BRANCH  35   4
ATOM      4  O   UNL     1      17.003  13.162  12.410  0.00  0.00    -0.493 OA
ATOM     40  C   UNL     1      16.006  12.413  11.720  0.00  0.00    +0.277 C 
ENDBRANCH  35   4
ENDBRANCH   7  33
ENDBRANCH  21  24
ENDBRANCH  17  21
ENDBRANCH   9  17
TORSDOF 8
ENDMDL
