MODEL 1
REMARK VINA RESULT:      -7.9      0.000      0.000
REMARK  Name = 7155401
REMARK  5 active torsions:
REMARK  status: ('A' for Active; 'I' for Inactive)
REMARK    1  A    between atoms: S_1  and  C_28
REMARK    2  A    between atoms: S_1  and  C_30
REMARK    3  A    between atoms: N_4  and  C_13
REMARK    4  A    between atoms: C_13  and  C_18
REMARK    5  A    between atoms: C_14  and  C_19
REMARK                            x       y       z     vdW  Elec       q    Type
REMARK                         _______ _______ _______ _____ _____    ______ ____
ROOT
ATOM      3  O   UNL     1      11.674   7.328  19.012  0.00  0.00    -0.268 OA
ATOM      4  N   UNL     1      15.255  10.324  20.734  0.00  0.00    -0.297 NA
ATOM      5  N   UNL     1      12.347   9.418  19.826  0.00  0.00    -0.311 N 
ATOM      6  C   UNL     1      14.083  10.846  18.588  0.00  0.00    +0.024 C 
ATOM      7  C   UNL     1      13.129  11.643  20.694  0.00  0.00    +0.051 C 
ATOM      8  C   UNL     1      13.359  12.015  19.232  0.00  0.00    +0.017 C 
ATOM      9  C   UNL     1      15.426  10.587  19.300  0.00  0.00    +0.090 C 
ATOM     10  C   UNL     1      14.493  11.399  21.384  0.00  0.00    +0.094 C 
ATOM     11  C   UNL     1      13.159   9.626  18.619  0.00  0.00    +0.130 C 
ATOM     12  C   UNL     1      12.225  10.409  20.823  0.00  0.00    +0.034 A 
ATOM     14  C   UNL     1      11.347  10.234  21.846  0.00  0.00    +0.002 A 
ATOM     15  C   UNL     1      11.616   8.218  19.860  0.00  0.00    +0.252 A 
ATOM     16  C   UNL     1      10.579   9.005  21.915  0.00  0.00    +0.015 A 
ATOM     17  C   UNL     1      10.695   8.037  21.005  0.00  0.00    +0.071 A 
ENDROOT
BRANCH  14  19
ATOM     19  C   UNL     1      11.189  11.242  22.859  0.00  0.00    -0.016 A 
ATOM     22  C   UNL     1      11.367  10.909  24.199  0.00  0.00    +0.009 A 
ATOM     23  C   UNL     1      10.858  12.544  22.493  0.00  0.00    +0.009 A 
ATOM     24  C   UNL     1      11.213  11.887  25.182  0.00  0.00    +0.015 A 
ATOM     25  C   UNL     1      10.703  13.522  23.477  0.00  0.00    +0.015 A 
ATOM     28  C   UNL     1      10.881  13.193  24.821  0.00  0.00    +0.008 A 
BRANCH  28   1
ATOM      1  S   UNL     1      10.683  14.442  26.076  0.00  0.00    -0.129 S 
ATOM     30  C   UNL     1      12.397  14.704  26.610  0.00  0.00    +0.090 C 
ENDBRANCH  28   1
ENDBRANCH  14  19
BRANCH   4  13
ATOM     13  C   UNL     1      16.547  10.130  21.387  0.00  0.00    +0.119 C 
BRANCH  13  18
ATOM      2  F   UNL     1      18.823   5.157  20.088  0.00  0.00    -0.205 F 
ATOM     18  C   UNL     1      17.157   8.798  21.039  0.00  0.00    -0.033 A 
ATOM     20  C   UNL     1      18.498   8.568  21.313  0.00  0.00    +0.008 A 
ATOM     21  C   UNL     1      16.370   7.820  20.449  0.00  0.00    +0.008 A 
ATOM     26  C   UNL     1      19.063   7.334  20.990  0.00  0.00    +0.038 A 
ATOM     27  C   UNL     1      16.934   6.585  20.127  0.00  0.00    +0.038 A 
ATOM     29  C   UNL     1      18.281   6.343  20.397  0.00  0.00    +0.123 A 
ENDBRANCH  13  18
ENDBRANCH   4  13
TORSDOF 4
ENDMDL
MODEL 2
REMARK VINA RESULT:      -7.4     25.307     28.279
REMARK  Name = 7155401
REMARK  5 active torsions:
REMARK  status: ('A' for Active; 'I' for Inactive)
REMARK    1  A    between atoms: S_1  and  C_28
REMARK    2  A    between atoms: S_1  and  C_30
REMARK    3  A    between atoms: N_4  and  C_13
REMARK    4  A    between atoms: C_13  and  C_18
REMARK    5  A    between atoms: C_14  and  C_19
REMARK                            x       y       z     vdW  Elec       q    Type
REMARK                         _______ _______ _______ _____ _____    ______ ____
ROOT
ATOM      3  O   UNL     1     -11.179   9.346  20.005  0.00  0.00    -0.268 OA
ATOM      4  N   UNL     1     -14.426  10.158  23.687  0.00  0.00    -0.297 NA
ATOM      5  N   UNL     1     -13.255   8.925  21.001  0.00  0.00    -0.311 N 
ATOM      6  C   UNL     1     -14.988  10.789  21.334  0.00  0.00    +0.024 C 
ATOM      7  C   UNL     1     -15.473   8.520  22.111  0.00  0.00    +0.051 C 
ATOM      8  C   UNL     1     -15.998   9.658  21.240  0.00  0.00    +0.017 C 
ATOM      9  C   UNL     1     -14.833  11.251  22.797  0.00  0.00    +0.090 C 
ATOM     10  C   UNL     1     -15.338   9.011  23.573  0.00  0.00    +0.094 C 
ATOM     11  C   UNL     1     -13.666  10.309  20.729  0.00  0.00    +0.130 C 
ATOM     12  C   UNL     1     -14.132   7.989  21.589  0.00  0.00    +0.034 A 
ATOM     14  C   UNL     1     -13.762   6.684  21.684  0.00  0.00    +0.002 A 
ATOM     15  C   UNL     1     -11.977   8.574  20.535  0.00  0.00    +0.252 A 
ATOM     16  C   UNL     1     -12.447   6.287  21.217  0.00  0.00    +0.015 A 
ATOM     17  C   UNL     1     -11.584   7.155  20.687  0.00  0.00    +0.071 A 
ENDROOT
BRANCH  14  19
ATOM     19  C   UNL     1     -14.649   5.708  22.257  0.00  0.00    -0.016 A 
ATOM     22  C   UNL     1     -15.833   5.382  21.602  0.00  0.00    +0.009 A 
ATOM     23  C   UNL     1     -14.318   5.095  23.463  0.00  0.00    +0.009 A 
ATOM     24  C   UNL     1     -16.694   4.435  22.159  0.00  0.00    +0.015 A 
ATOM     25  C   UNL     1     -15.179   4.149  24.019  0.00  0.00    +0.015 A 
ATOM     28  C   UNL     1     -16.367   3.819  23.366  0.00  0.00    +0.008 A 
BRANCH  28   1
ATOM      1  S   UNL     1     -17.467   2.611  24.077  0.00  0.00    -0.129 S 
ATOM     30  C   UNL     1     -17.958   1.653  22.616  0.00  0.00    +0.090 C 
ENDBRANCH  28   1
ENDBRANCH  14  19
BRANCH   4  13
ATOM     13  C   UNL     1     -14.334  10.617  25.071  0.00  0.00    +0.119 C 
BRANCH  13  18
ATOM      2  F   UNL     1      -9.073  10.326  27.028  0.00  0.00    -0.205 F 
ATOM     18  C   UNL     1     -12.925  10.538  25.595  0.00  0.00    -0.033 A 
ATOM     20  C   UNL     1     -11.884  11.054  24.836  0.00  0.00    +0.008 A 
ATOM     21  C   UNL     1     -12.687   9.952  26.830  0.00  0.00    +0.008 A 
ATOM     26  C   UNL     1     -10.578  10.981  25.321  0.00  0.00    +0.038 A 
ATOM     27  C   UNL     1     -11.381   9.881  27.317  0.00  0.00    +0.038 A 
ATOM     29  C   UNL     1     -10.327  10.395  26.561  0.00  0.00    +0.123 A 
ENDBRANCH  13  18
ENDBRANCH   4  13
TORSDOF 4
ENDMDL
MODEL 3
REMARK VINA RESULT:      -7.1     15.956     18.600
REMARK  Name = 7155401
REMARK  5 active torsions:
REMARK  status: ('A' for Active; 'I' for Inactive)
REMARK    1  A    between atoms: S_1  and  C_28
REMARK    2  A    between atoms: S_1  and  C_30
REMARK    3  A    between atoms: N_4  and  C_13
REMARK    4  A    between atoms: C_13  and  C_18
REMARK    5  A    between atoms: C_14  and  C_19
REMARK                            x       y       z     vdW  Elec       q    Type
REMARK                         _______ _______ _______ _____ _____    ______ ____
ROOT
ATOM      3  O   UNL     1      12.948   9.585   6.384  0.00  0.00    -0.268 OA
ATOM      4  N   UNL     1       9.876   5.815   5.325  0.00  0.00    -0.297 NA
ATOM      5  N   UNL     1      10.772   8.745   6.174  0.00  0.00    -0.311 N 
ATOM      6  C   UNL     1       9.938   6.798   7.624  0.00  0.00    +0.024 C 
ATOM      7  C   UNL     1       8.461   7.785   5.942  0.00  0.00    +0.051 C 
ATOM      8  C   UNL     1       8.573   7.432   7.423  0.00  0.00    +0.017 C 
ATOM      9  C   UNL     1      10.078   5.534   6.752  0.00  0.00    +0.090 C 
ATOM     10  C   UNL     1       8.595   6.497   5.094  0.00  0.00    +0.094 C 
ATOM     11  C   UNL     1      11.010   7.845   7.311  0.00  0.00    +0.130 C 
ATOM     12  C   UNL     1       9.518   8.819   5.532  0.00  0.00    +0.034 A 
ATOM     14  C   UNL     1       9.300   9.770   4.584  0.00  0.00    +0.002 A 
ATOM     15  C   UNL     1      11.840   9.599   5.848  0.00  0.00    +0.252 A 
ATOM     16  C   UNL     1      10.382  10.666   4.220  0.00  0.00    +0.015 A 
ATOM     17  C   UNL     1      11.587  10.598   4.787  0.00  0.00    +0.071 A 
ENDROOT
BRANCH  14  19
ATOM     19  C   UNL     1       8.022   9.880   3.935  0.00  0.00    -0.016 A 
ATOM     22  C   UNL     1       7.842   9.337   2.666  0.00  0.00    +0.009 A 
ATOM     23  C   UNL     1       6.972  10.530   4.580  0.00  0.00    +0.009 A 
ATOM     24  C   UNL     1       6.601   9.446   2.036  0.00  0.00    +0.015 A 
ATOM     25  C   UNL     1       5.732  10.638   3.949  0.00  0.00    +0.015 A 
ATOM     28  C   UNL     1       5.547  10.096   2.678  0.00  0.00    +0.008 A 
BRANCH  28   1
ATOM      1  S   UNL     1       3.963  10.235   1.873  0.00  0.00    -0.129 S 
ATOM     30  C   UNL     1       4.252   9.326   0.329  0.00  0.00    +0.090 C 
ENDBRANCH  28   1
ENDBRANCH  14  19
BRANCH   4  13
ATOM     13  C   UNL     1       9.968   4.591   4.533  0.00  0.00    +0.119 C 
BRANCH  13  18
ATOM      2  F   UNL     1      13.914   4.970   0.548  0.00  0.00    -0.205 F 
ATOM     18  C   UNL     1      11.024   4.693   3.465  0.00  0.00    -0.033 A 
ATOM     20  C   UNL     1      11.709   5.888   3.292  0.00  0.00    +0.008 A 
ATOM     21  C   UNL     1      11.299   3.591   2.668  0.00  0.00    +0.008 A 
ATOM     26  C   UNL     1      12.688   5.982   2.303  0.00  0.00    +0.038 A 
ATOM     27  C   UNL     1      12.279   3.684   1.680  0.00  0.00    +0.038 A 
ATOM     29  C   UNL     1      12.973   4.881   1.497  0.00  0.00    +0.123 A 
ENDBRANCH  13  18
ENDBRANCH   4  13
TORSDOF 4
ENDMDL
MODEL 4
REMARK VINA RESULT:      -7.0     16.268     19.496
REMARK  Name = 7155401
REMARK  5 active torsions:
REMARK  status: ('A' for Active; 'I' for Inactive)
REMARK    1  A    between atoms: S_1  and  C_28
REMARK    2  A    between atoms: S_1  and  C_30
REMARK    3  A    between atoms: N_4  and  C_13
REMARK    4  A    between atoms: C_13  and  C_18
REMARK    5  A    between atoms: C_14  and  C_19
REMARK                            x       y       z     vdW  Elec       q    Type
REMARK                         _______ _______ _______ _____ _____    ______ ____
ROOT
ATOM      3  O   UNL     1      10.437   5.985   8.334  0.00  0.00    -0.268 OA
ATOM      4  N   UNL     1      11.505   9.302   4.780  0.00  0.00    -0.297 NA
ATOM      5  N   UNL     1      11.465   6.507   6.296  0.00  0.00    -0.311 N 
ATOM      6  C   UNL     1      13.328   8.266   6.143  0.00  0.00    +0.024 C 
ATOM      7  C   UNL     1      12.556   7.129   4.119  0.00  0.00    +0.051 C 
ATOM      8  C   UNL     1      13.795   7.448   4.952  0.00  0.00    +0.017 C 
ATOM      9  C   UNL     1      12.644   9.564   5.668  0.00  0.00    +0.090 C 
ATOM     10  C   UNL     1      11.898   8.449   3.650  0.00  0.00    +0.094 C 
ATOM     11  C   UNL     1      12.403   7.396   6.996  0.00  0.00    +0.130 C 
ATOM     12  C   UNL     1      11.557   6.272   4.907  0.00  0.00    +0.034 A 
ATOM     14  C   UNL     1      10.766   5.331   4.328  0.00  0.00    +0.002 A 
ATOM     15  C   UNL     1      10.551   5.828   7.118  0.00  0.00    +0.252 A 
ATOM     16  C   UNL     1       9.807   4.613   5.147  0.00  0.00    +0.015 A 
ATOM     17  C   UNL     1       9.675   4.836   6.455  0.00  0.00    +0.071 A 
ENDROOT
BRANCH  14  19
ATOM     19  C   UNL     1      10.860   5.057   2.919  0.00  0.00    -0.016 A 
ATOM     22  C   UNL     1      10.077   5.776   2.021  0.00  0.00    +0.009 A 
ATOM     23  C   UNL     1      11.735   4.073   2.464  0.00  0.00    +0.009 A 
ATOM     24  C   UNL     1      10.169   5.509   0.655  0.00  0.00    +0.015 A 
ATOM     25  C   UNL     1      11.826   3.807   1.097  0.00  0.00    +0.015 A 
ATOM     28  C   UNL     1      11.043   4.525   0.193  0.00  0.00    +0.008 A 
BRANCH  28   1
ATOM      1  S   UNL     1      11.159   4.183  -1.552  0.00  0.00    -0.129 S 
ATOM     30  C   UNL     1      12.684   3.203  -1.636  0.00  0.00    +0.090 C 
ENDBRANCH  28   1
ENDBRANCH  14  19
BRANCH   4  13
ATOM     13  C   UNL     1      10.909  10.550   4.311  0.00  0.00    +0.119 C 
BRANCH  13  18
ATOM      2  F   UNL     1       5.293  10.328   4.343  0.00  0.00    -0.205 F 
ATOM     18  C   UNL     1       9.404  10.491   4.320  0.00  0.00    -0.033 A 
ATOM     20  C   UNL     1       8.676  11.651   4.544  0.00  0.00    +0.008 A 
ATOM     21  C   UNL     1       8.767   9.277   4.104  0.00  0.00    +0.008 A 
ATOM     26  C   UNL     1       7.282  11.596   4.552  0.00  0.00    +0.038 A 
ATOM     27  C   UNL     1       7.374   9.222   4.112  0.00  0.00    +0.038 A 
ATOM     29  C   UNL     1       6.631  10.382   4.336  0.00  0.00    +0.123 A 
ENDBRANCH  13  18
ENDBRANCH   4  13
TORSDOF 4
ENDMDL
MODEL 5
REMARK VINA RESULT:      -7.0     28.682     31.188
REMARK  Name = 7155401
REMARK  5 active torsions:
REMARK  status: ('A' for Active; 'I' for Inactive)
REMARK    1  A    between atoms: S_1  and  C_28
REMARK    2  A    between atoms: S_1  and  C_30
REMARK    3  A    between atoms: N_4  and  C_13
REMARK    4  A    between atoms: C_13  and  C_18
REMARK    5  A    between atoms: C_14  and  C_19
REMARK                            x       y       z     vdW  Elec       q    Type
REMARK                         _______ _______ _______ _____ _____    ______ ____
ROOT
ATOM      3  O   UNL     1     -11.353 -12.225  19.644  0.00  0.00    -0.268 OA
ATOM      4  N   UNL     1      -8.098 -10.196  16.473  0.00  0.00    -0.297 NA
ATOM      5  N   UNL     1     -10.899 -11.208  17.584  0.00  0.00    -0.311 N 
ATOM      6  C   UNL     1      -9.325 -12.289  15.870  0.00  0.00    +0.024 C 
ATOM      7  C   UNL     1     -10.350 -10.122  15.385  0.00  0.00    +0.051 C 
ATOM      8  C   UNL     1     -10.165 -11.540  14.851  0.00  0.00    +0.017 C 
ATOM      9  C   UNL     1      -7.960 -11.596  16.056  0.00  0.00    +0.090 C 
ATOM     10  C   UNL     1      -8.966  -9.450  15.551  0.00  0.00    +0.094 C 
ATOM     11  C   UNL     1     -10.116 -12.383  17.177  0.00  0.00    +0.130 C 
ATOM     12  C   UNL     1     -11.120 -10.121  16.712  0.00  0.00    +0.034 A 
ATOM     14  C   UNL     1     -11.972  -9.125  17.076  0.00  0.00    +0.002 A 
ATOM     15  C   UNL     1     -11.501 -11.295  18.851  0.00  0.00    +0.252 A 
ATOM     16  C   UNL     1     -12.607  -9.181  18.380  0.00  0.00    +0.015 A 
ATOM     17  C   UNL     1     -12.393 -10.179  19.237  0.00  0.00    +0.071 A 
ENDROOT
BRANCH  14  19
ATOM     19  C   UNL     1     -12.231  -8.020  16.194  0.00  0.00    -0.016 A 
ATOM     22  C   UNL     1     -13.273  -8.099  15.275  0.00  0.00    +0.009 A 
ATOM     23  C   UNL     1     -11.437  -6.878  16.265  0.00  0.00    +0.009 A 
ATOM     24  C   UNL     1     -13.523  -7.026  14.418  0.00  0.00    +0.015 A 
ATOM     25  C   UNL     1     -11.688  -5.806  15.408  0.00  0.00    +0.015 A 
ATOM     28  C   UNL     1     -12.731  -5.880  14.485  0.00  0.00    +0.008 A 
BRANCH  28   1
ATOM      1  S   UNL     1     -13.050  -4.511  13.390  0.00  0.00    -0.129 S 
ATOM     30  C   UNL     1     -14.844  -4.641  13.149  0.00  0.00    +0.090 C 
ENDBRANCH  28   1
ENDBRANCH  14  19
BRANCH   4  13
ATOM     13  C   UNL     1      -6.790  -9.555  16.594  0.00  0.00    +0.119 C 
BRANCH  13  18
ATOM      2  F   UNL     1      -3.319 -12.492  19.898  0.00  0.00    -0.205 F 
ATOM     18  C   UNL     1      -5.860 -10.341  17.479  0.00  0.00    -0.033 A 
ATOM     20  C   UNL     1      -6.260 -10.673  18.766  0.00  0.00    +0.008 A 
ATOM     21  C   UNL     1      -4.617 -10.723  16.996  0.00  0.00    +0.008 A 
ATOM     26  C   UNL     1      -5.398 -11.401  19.586  0.00  0.00    +0.038 A 
ATOM     27  C   UNL     1      -3.756 -11.453  17.815  0.00  0.00    +0.038 A 
ATOM     29  C   UNL     1      -4.147 -11.791  19.111  0.00  0.00    +0.123 A 
ENDBRANCH  13  18
ENDBRANCH   4  13
TORSDOF 4
ENDMDL
MODEL 6
REMARK VINA RESULT:      -7.0     13.399     15.928
REMARK  Name = 7155401
REMARK  5 active torsions:
REMARK  status: ('A' for Active; 'I' for Inactive)
REMARK    1  A    between atoms: S_1  and  C_28
REMARK    2  A    between atoms: S_1  and  C_30
REMARK    3  A    between atoms: N_4  and  C_13
REMARK    4  A    between atoms: C_13  and  C_18
REMARK    5  A    between atoms: C_14  and  C_19
REMARK                            x       y       z     vdW  Elec       q    Type
REMARK                         _______ _______ _______ _____ _____    ______ ____
ROOT
ATOM      3  O   UNL     1      19.594  -5.176  21.287  0.00  0.00    -0.268 OA
ATOM      4  N   UNL     1      18.664  -1.751  24.776  0.00  0.00    -0.297 NA
ATOM      5  N   UNL     1      18.220  -4.344  22.990  0.00  0.00    -0.311 N 
ATOM      6  C   UNL     1      17.127  -2.027  22.823  0.00  0.00    +0.024 C 
ATOM      7  C   UNL     1      16.779  -3.398  24.819  0.00  0.00    +0.051 C 
ATOM      8  C   UNL     1      16.056  -2.635  23.712  0.00  0.00    +0.017 C 
ATOM      9  C   UNL     1      18.027  -1.078  23.638  0.00  0.00    +0.090 C 
ATOM     10  C   UNL     1      17.665  -2.417  25.625  0.00  0.00    +0.094 C 
ATOM     11  C   UNL     1      17.917  -3.163  22.169  0.00  0.00    +0.130 C 
ATOM     12  C   UNL     1      17.618  -4.549  24.250  0.00  0.00    +0.034 A 
ATOM     14  C   UNL     1      17.812  -5.724  24.907  0.00  0.00    +0.002 A 
ATOM     15  C   UNL     1      19.056  -5.299  22.387  0.00  0.00    +0.252 A 
ATOM     16  C   UNL     1      18.673  -6.731  24.315  0.00  0.00    +0.015 A 
ATOM     17  C   UNL     1      19.280  -6.552  23.142  0.00  0.00    +0.071 A 
ENDROOT
BRANCH  14  19
ATOM     19  C   UNL     1      17.189  -5.965  26.180  0.00  0.00    -0.016 A 
ATOM     22  C   UNL     1      17.792  -5.499  27.344  0.00  0.00    +0.009 A 
ATOM     23  C   UNL     1      15.985  -6.663  26.240  0.00  0.00    +0.009 A 
ATOM     24  C   UNL     1      17.188  -5.734  28.580  0.00  0.00    +0.015 A 
ATOM     25  C   UNL     1      15.381  -6.898  27.476  0.00  0.00    +0.015 A 
ATOM     28  C   UNL     1      15.982  -6.433  28.645  0.00  0.00    +0.008 A 
BRANCH  28   1
ATOM      1  S   UNL     1      15.210  -6.734  30.223  0.00  0.00    -0.129 S 
ATOM     30  C   UNL     1      14.969  -5.046  30.844  0.00  0.00    +0.090 C 
ENDBRANCH  28   1
ENDBRANCH  14  19
BRANCH   4  13
ATOM     13  C   UNL     1      19.471  -0.815  25.555  0.00  0.00    +0.119 C 
BRANCH  13  18
ATOM      2  F   UNL     1      24.822  -2.489  25.947  0.00  0.00    -0.205 F 
ATOM     18  C   UNL     1      20.904  -1.264  25.659  0.00  0.00    -0.033 A 
ATOM     20  C   UNL     1      21.923  -0.327  25.555  0.00  0.00    +0.008 A 
ATOM     21  C   UNL     1      21.187  -2.607  25.859  0.00  0.00    +0.008 A 
ATOM     26  C   UNL     1      23.251  -0.742  25.651  0.00  0.00    +0.038 A 
ATOM     27  C   UNL     1      22.515  -3.023  25.957  0.00  0.00    +0.038 A 
ATOM     29  C   UNL     1      23.546  -2.090  25.853  0.00  0.00    +0.123 A 
ENDBRANCH  13  18
ENDBRANCH   4  13
TORSDOF 4
ENDMDL
MODEL 7
REMARK VINA RESULT:      -6.9     16.160     19.080
REMARK  Name = 7155401
REMARK  5 active torsions:
REMARK  status: ('A' for Active; 'I' for Inactive)
REMARK    1  A    between atoms: S_1  and  C_28
REMARK    2  A    between atoms: S_1  and  C_30
REMARK    3  A    between atoms: N_4  and  C_13
REMARK    4  A    between atoms: C_13  and  C_18
REMARK    5  A    between atoms: C_14  and  C_19
REMARK                            x       y       z     vdW  Elec       q    Type
REMARK                         _______ _______ _______ _____ _____    ______ ____
ROOT
ATOM      3  O   UNL     1       7.151   9.343   4.758  0.00  0.00    -0.268 OA
ATOM      4  N   UNL     1      11.343   7.235   6.416  0.00  0.00    -0.297 NA
ATOM      5  N   UNL     1       8.657   7.550   4.745  0.00  0.00    -0.311 N 
ATOM      6  C   UNL     1       9.124   6.172   6.859  0.00  0.00    +0.024 C 
ATOM      7  C   UNL     1      10.303   5.652   4.780  0.00  0.00    +0.051 C 
ATOM      8  C   UNL     1       9.430   5.053   5.879  0.00  0.00    +0.017 C 
ATOM      9  C   UNL     1      10.429   6.739   7.452  0.00  0.00    +0.090 C 
ATOM     10  C   UNL     1      11.609   6.203   5.404  0.00  0.00    +0.094 C 
ATOM     11  C   UNL     1       8.298   7.238   6.136  0.00  0.00    +0.130 C 
ATOM     12  C   UNL     1       9.560   6.751   4.011  0.00  0.00    +0.034 A 
ATOM     14  C   UNL     1       9.748   6.989   2.686  0.00  0.00    +0.002 A 
ATOM     15  C   UNL     1       7.957   8.624   4.169  0.00  0.00    +0.252 A 
ATOM     16  C   UNL     1       9.045   8.092   2.059  0.00  0.00    +0.015 A 
ATOM     17  C   UNL     1       8.210   8.883   2.734  0.00  0.00    +0.071 A 
ENDROOT
BRANCH  14  19
ATOM     19  C   UNL     1      10.644   6.172   1.913  0.00  0.00    -0.016 A 
ATOM     22  C   UNL     1      11.980   6.539   1.788  0.00  0.00    +0.009 A 
ATOM     23  C   UNL     1      10.168   5.018   1.294  0.00  0.00    +0.009 A 
ATOM     24  C   UNL     1      12.849   5.747   1.036  0.00  0.00    +0.015 A 
ATOM     25  C   UNL     1      11.037   4.226   0.543  0.00  0.00    +0.015 A 
ATOM     28  C   UNL     1      12.378   4.591   0.415  0.00  0.00    +0.008 A 
BRANCH  28   1
ATOM      1  S   UNL     1      13.487   3.579  -0.545  0.00  0.00    -0.129 S 
ATOM     30  C   UNL     1      15.087   3.953   0.224  0.00  0.00    +0.090 C 
ENDBRANCH  28   1
ENDBRANCH  14  19
BRANCH   4  13
ATOM     13  C   UNL     1      12.588   7.721   7.005  0.00  0.00    +0.119 C 
BRANCH  13  18
ATOM      2  F   UNL     1      16.346   9.145   3.075  0.00  0.00    -0.205 F 
ATOM     18  C   UNL     1      13.595   8.103   5.953  0.00  0.00    -0.033 A 
ATOM     20  C   UNL     1      14.885   7.597   6.025  0.00  0.00    +0.008 A 
ATOM     21  C   UNL     1      13.219   8.956   4.925  0.00  0.00    +0.008 A 
ATOM     26  C   UNL     1      15.818   7.950   5.051  0.00  0.00    +0.038 A 
ATOM     27  C   UNL     1      14.151   9.309   3.949  0.00  0.00    +0.038 A 
ATOM     29  C   UNL     1      15.451   8.806   4.013  0.00  0.00    +0.123 A 
ENDBRANCH  13  18
ENDBRANCH   4  13
TORSDOF 4
ENDMDL
MODEL 8
REMARK VINA RESULT:      -6.7     13.820     16.448
REMARK  Name = 7155401
REMARK  5 active torsions:
REMARK  status: ('A' for Active; 'I' for Inactive)
REMARK    1  A    between atoms: S_1  and  C_28
REMARK    2  A    between atoms: S_1  and  C_30
REMARK    3  A    between atoms: N_4  and  C_13
REMARK    4  A    between atoms: C_13  and  C_18
REMARK    5  A    between atoms: C_14  and  C_19
REMARK                            x       y       z     vdW  Elec       q    Type
REMARK                         _______ _______ _______ _____ _____    ______ ____
ROOT
ATOM      3  O   UNL     1      13.640   7.064   6.443  0.00  0.00    -0.268 OA
ATOM      4  N   UNL     1       8.750   7.254   5.537  0.00  0.00    -0.297 NA
ATOM      5  N   UNL     1      11.468   7.576   7.153  0.00  0.00    -0.311 N 
ATOM      6  C   UNL     1       9.654   5.771   7.336  0.00  0.00    +0.024 C 
ATOM      7  C   UNL     1       9.115   8.098   7.865  0.00  0.00    +0.051 C 
ATOM      8  C   UNL     1       9.077   6.674   8.412  0.00  0.00    +0.017 C 
ATOM      9  C   UNL     1       8.822   5.878   6.042  0.00  0.00    +0.090 C 
ATOM     10  C   UNL     1       8.265   8.175   6.574  0.00  0.00    +0.094 C 
ATOM     11  C   UNL     1      11.121   6.149   7.121  0.00  0.00    +0.130 C 
ATOM     12  C   UNL     1      10.555   8.556   7.597  0.00  0.00    +0.034 A 
ATOM     14  C   UNL     1      10.966   9.842   7.752  0.00  0.00    +0.002 A 
ATOM     15  C   UNL     1      12.800   7.880   6.822  0.00  0.00    +0.252 A 
ATOM     16  C   UNL     1      12.334  10.192   7.415  0.00  0.00    +0.015 A 
ATOM     17  C   UNL     1      13.211   9.295   6.963  0.00  0.00    +0.071 A 
ENDROOT
BRANCH  14  19
ATOM     19  C   UNL     1      10.059  10.852   8.226  0.00  0.00    -0.016 A 
ATOM     22  C   UNL     1       9.455  11.719   7.321  0.00  0.00    +0.009 A 
ATOM     23  C   UNL     1       9.792  10.956   9.589  0.00  0.00    +0.009 A 
ATOM     24  C   UNL     1       8.576  12.699   7.782  0.00  0.00    +0.015 A 
ATOM     25  C   UNL     1       8.912  11.936  10.050  0.00  0.00    +0.015 A 
ATOM     28  C   UNL     1       8.304  12.808   9.146  0.00  0.00    +0.008 A 
BRANCH  28   1
ATOM      1  S   UNL     1       7.182  14.060   9.735  0.00  0.00    -0.129 S 
ATOM     30  C   UNL     1       7.944  14.525  11.315  0.00  0.00    +0.090 C 
ENDBRANCH  28   1
ENDBRANCH  14  19
BRANCH   4  13
ATOM     13  C   UNL     1       7.918   7.329   4.339  0.00  0.00    +0.119 C 
BRANCH  13  18
ATOM      2  F   UNL     1      10.912   8.729  -0.207  0.00  0.00    -0.205 F 
ATOM     18  C   UNL     1       8.720   7.704   3.121  0.00  0.00    -0.033 A 
ATOM     20  C   UNL     1       9.733   6.862   2.684  0.00  0.00    +0.008 A 
ATOM     21  C   UNL     1       8.436   8.886   2.454  0.00  0.00    +0.008 A 
ATOM     26  C   UNL     1      10.476   7.209   1.557  0.00  0.00    +0.038 A 
ATOM     27  C   UNL     1       9.178   9.234   1.325  0.00  0.00    +0.038 A 
ATOM     29  C   UNL     1      10.199   8.395   0.877  0.00  0.00    +0.123 A 
ENDBRANCH  13  18
ENDBRANCH   4  13
TORSDOF 4
ENDMDL
MODEL 9
REMARK VINA RESULT:      -6.7     27.506     30.161
REMARK  Name = 7155401
REMARK  5 active torsions:
REMARK  status: ('A' for Active; 'I' for Inactive)
REMARK    1  A    between atoms: S_1  and  C_28
REMARK    2  A    between atoms: S_1  and  C_30
REMARK    3  A    between atoms: N_4  and  C_13
REMARK    4  A    between atoms: C_13  and  C_18
REMARK    5  A    between atoms: C_14  and  C_19
REMARK                            x       y       z     vdW  Elec       q    Type
REMARK                         _______ _______ _______ _____ _____    ______ ____
ROOT
ATOM      3  O   UNL     1      -1.263 -11.802  14.745  0.00  0.00    -0.268 OA
ATOM      4  N   UNL     1      -5.841 -12.674  13.002  0.00  0.00    -0.297 NA
ATOM      5  N   UNL     1      -3.446 -12.574  15.089  0.00  0.00    -0.311 N 
ATOM      6  C   UNL     1      -4.392 -14.562  13.769  0.00  0.00    +0.024 C 
ATOM      7  C   UNL     1      -5.800 -13.399  15.397  0.00  0.00    +0.051 C 
ATOM      8  C   UNL     1      -5.260 -14.770  14.997  0.00  0.00    +0.017 C 
ATOM      9  C   UNL     1      -5.220 -13.949  12.622  0.00  0.00    +0.090 C 
ATOM     10  C   UNL     1      -6.634 -12.815  14.231  0.00  0.00    +0.094 C 
ATOM     11  C   UNL     1      -3.199 -13.686  14.161  0.00  0.00    +0.130 C 
ATOM     12  C   UNL     1      -4.665 -12.443  15.787  0.00  0.00    +0.034 A 
ATOM     14  C   UNL     1      -4.795 -11.487  16.746  0.00  0.00    +0.002 A 
ATOM     15  C   UNL     1      -2.350 -11.724  15.315  0.00  0.00    +0.252 A 
ATOM     16  C   UNL     1      -3.685 -10.589  17.002  0.00  0.00    +0.015 A 
ATOM     17  C   UNL     1      -2.533 -10.668  16.337  0.00  0.00    +0.071 A 
ENDROOT
BRANCH  14  19
ATOM     19  C   UNL     1      -6.020 -11.351  17.487  0.00  0.00    -0.016 A 
ATOM     22  C   UNL     1      -6.239 -12.141  18.611  0.00  0.00    +0.009 A 
ATOM     23  C   UNL     1      -6.979 -10.430  17.073  0.00  0.00    +0.009 A 
ATOM     24  C   UNL     1      -7.428 -12.009  19.329  0.00  0.00    +0.015 A 
ATOM     25  C   UNL     1      -8.168 -10.299  17.792  0.00  0.00    +0.015 A 
ATOM     28  C   UNL     1      -8.392 -11.088  18.920  0.00  0.00    +0.008 A 
BRANCH  28   1
ATOM      1  S   UNL     1      -9.911 -10.920  19.836  0.00  0.00    -0.129 S 
ATOM     30  C   UNL     1     -10.865  -9.806  18.768  0.00  0.00    +0.090 C 
ENDBRANCH  28   1
ENDBRANCH  14  19
BRANCH   4  13
ATOM     13  C   UNL     1      -6.657 -12.144  11.911  0.00  0.00    +0.119 C 
BRANCH  13  18
ATOM      2  F   UNL     1      -3.798  -8.478   8.752  0.00  0.00    -0.205 F 
ATOM     18  C   UNL     1      -5.891 -11.163  11.065  0.00  0.00    -0.033 A 
ATOM     20  C   UNL     1      -6.279 -10.945   9.751  0.00  0.00    +0.008 A 
ATOM     21  C   UNL     1      -4.807 -10.489  11.611  0.00  0.00    +0.008 A 
ATOM     26  C   UNL     1      -5.570 -10.036   8.966  0.00  0.00    +0.038 A 
ATOM     27  C   UNL     1      -4.098  -9.579  10.827  0.00  0.00    +0.038 A 
ATOM     29  C   UNL     1      -4.480  -9.353   9.505  0.00  0.00    +0.123 A 
ENDBRANCH  13  18
ENDBRANCH   4  13
TORSDOF 4
ENDMDL
MODEL 10
REMARK VINA RESULT:      -6.5     14.810     18.589
REMARK  Name = 7155401
REMARK  5 active torsions:
REMARK  status: ('A' for Active; 'I' for Inactive)
REMARK    1  A    between atoms: S_1  and  C_28
REMARK    2  A    between atoms: S_1  and  C_30
REMARK    3  A    between atoms: N_4  and  C_13
REMARK    4  A    between atoms: C_13  and  C_18
REMARK    5  A    between atoms: C_14  and  C_19
REMARK                            x       y       z     vdW  Elec       q    Type
REMARK                         _______ _______ _______ _____ _____    ______ ____
ROOT
ATOM      3  O   UNL     1      21.390  -4.833  28.005  0.00  0.00    -0.268 OA
ATOM      4  N   UNL     1      19.554  -5.434  23.418  0.00  0.00    -0.297 NA
ATOM      5  N   UNL     1      20.499  -6.227  26.348  0.00  0.00    -0.311 N 
ATOM      6  C   UNL     1      21.682  -6.560  24.094  0.00  0.00    +0.024 C 
ATOM      7  C   UNL     1      19.549  -7.677  24.529  0.00  0.00    +0.051 C 
ATOM      8  C   UNL     1      20.997  -7.915  24.106  0.00  0.00    +0.017 C 
ATOM      9  C   UNL     1      20.977  -5.610  23.105  0.00  0.00    +0.090 C 
ATOM     10  C   UNL     1      18.866  -6.730  23.512  0.00  0.00    +0.094 C 
ATOM     11  C   UNL     1      21.696  -6.011  25.523  0.00  0.00    +0.130 C 
ATOM     12  C   UNL     1      19.468  -7.103  25.949  0.00  0.00    +0.034 A 
ATOM     14  C   UNL     1      18.453  -7.387  26.808  0.00  0.00    +0.002 A 
ATOM     15  C   UNL     1      20.510  -5.594  27.602  0.00  0.00    +0.252 A 
ATOM     16  C   UNL     1      18.430  -6.747  28.110  0.00  0.00    +0.015 A 
ATOM     17  C   UNL     1      19.374  -5.891  28.503  0.00  0.00    +0.071 A 
ENDROOT
BRANCH  14  19
ATOM     19  C   UNL     1      17.404  -8.296  26.432  0.00  0.00    -0.016 A 
ATOM     22  C   UNL     1      17.615  -9.669  26.518  0.00  0.00    +0.009 A 
ATOM     23  C   UNL     1      16.184  -7.795  25.985  0.00  0.00    +0.009 A 
ATOM     24  C   UNL     1      16.596 -10.550  26.152  0.00  0.00    +0.015 A 
ATOM     25  C   UNL     1      15.166  -8.677  25.619  0.00  0.00    +0.015 A 
ATOM     28  C   UNL     1      15.373 -10.054  25.703  0.00  0.00    +0.008 A 
BRANCH  28   1
ATOM      1  S   UNL     1      14.072 -11.179  25.234  0.00  0.00    -0.129 S 
ATOM     30  C   UNL     1      14.958 -12.339  24.156  0.00  0.00    +0.090 C 
ENDBRANCH  28   1
ENDBRANCH  14  19
BRANCH   4  13
ATOM     13  C   UNL     1      18.905  -4.568  22.437  0.00  0.00    +0.119 C 
BRANCH  13  18
ATOM      2  F   UNL     1      16.838   0.093  24.803  0.00  0.00    -0.205 F 
ATOM     18  C   UNL     1      18.352  -3.319  23.070  0.00  0.00    -0.033 A 
ATOM     20  C   UNL     1      17.739  -2.363  22.274  0.00  0.00    +0.008 A 
ATOM     21  C   UNL     1      18.462  -3.143  24.442  0.00  0.00    +0.008 A 
ATOM     26  C   UNL     1      17.226  -1.206  22.860  0.00  0.00    +0.038 A 
ATOM     27  C   UNL     1      17.949  -1.986  25.030  0.00  0.00    +0.038 A 
ATOM     29  C   UNL     1      17.331  -1.018  24.238  0.00  0.00    +0.123 A 
ENDBRANCH  13  18
ENDBRANCH   4  13
TORSDOF 4
ENDMDL
