MODEL 1
REMARK VINA RESULT:      -6.8      0.000      0.000
REMARK  Name = 7144183
REMARK  5 active torsions:
REMARK  status: ('A' for Active; 'I' for Inactive)
REMARK    1  A    between atoms: O_6  and  C_30
REMARK    2  A    between atoms: O_6  and  C_35
REMARK    3  A    between atoms: C_17  and  C_22
REMARK    4  A    between atoms: C_19  and  C_23
REMARK    5  A    between atoms: C_33  and  C_34
REMARK                            x       y       z     vdW  Elec       q    Type
REMARK                         _______ _______ _______ _____ _____    ______ ____
ROOT
ATOM      4  O   UNL     1      10.977   5.658   8.837  0.00  0.00    -0.268 OA
ATOM      5  O   UNL     1      11.014  10.540   7.456  0.00  0.00    -0.270 OA
ATOM      7  N   UNL     1      12.123   9.369   5.762  0.00  0.00    -0.297 N 
ATOM      8  N   UNL     1      11.782   6.395   6.765  0.00  0.00    -0.311 N 
ATOM     10  C   UNL     1      13.895   7.839   6.583  0.00  0.00    +0.027 C 
ATOM     11  C   UNL     1      12.626   7.253   4.559  0.00  0.00    +0.054 C 
ATOM     12  C   UNL     1      14.015   7.229   5.194  0.00  0.00    +0.018 C 
ATOM     13  C   UNL     1      13.383   9.287   6.496  0.00  0.00    +0.113 C 
ATOM     14  C   UNL     1      12.972   6.953   7.423  0.00  0.00    +0.130 C 
ATOM     15  C   UNL     1      12.135   8.713   4.446  0.00  0.00    +0.117 C 
ATOM     16  C   UNL     1      11.623   6.425   5.365  0.00  0.00    +0.034 A 
ATOM     17  C   UNL     1      10.588   5.761   4.787  0.00  0.00    +0.002 A 
ATOM     18  C   UNL     1      10.880   5.727   7.612  0.00  0.00    +0.252 A 
ATOM     19  C   UNL     1      11.021   9.992   6.354  0.00  0.00    +0.247 C 
ATOM     20  C   UNL     1       9.634   5.064   5.629  0.00  0.00    +0.015 A 
ATOM     21  C   UNL     1       9.740   5.046   6.958  0.00  0.00    +0.071 A 
ENDROOT
BRANCH  17  22
ATOM     22  C   UNL     1      10.395   5.743   3.320  0.00  0.00    -0.016 A 
ATOM     24  C   UNL     1       9.800   6.831   2.688  0.00  0.00    +0.012 A 
ATOM     25  C   UNL     1      10.812   4.640   2.582  0.00  0.00    +0.012 A 
ATOM     28  C   UNL     1       9.619   6.814   1.305  0.00  0.00    +0.046 A 
ATOM     29  C   UNL     1      10.631   4.623   1.199  0.00  0.00    +0.046 A 
ATOM     30  C   UNL     1      10.035   5.710   0.561  0.00  0.00    +0.130 A 
BRANCH  30   6
ATOM      6  O   UNL     1       9.858   5.694  -0.788  0.00  0.00    -0.406 OA
BRANCH   6  35
ATOM      1  F   UNL     1      10.649   6.432  -2.769  0.00  0.00    -0.133 F 
ATOM      2  F   UNL     1      11.959   6.561  -1.026  0.00  0.00    -0.133 F 
ATOM      3  F   UNL     1      11.504   4.601  -1.939  0.00  0.00    -0.133 F 
ATOM     35  C   UNL     1      11.005   5.814  -1.621  0.00  0.00    +0.575 C 
ENDBRANCH   6  35
ENDBRANCH  30   6
ENDBRANCH  17  22
BRANCH  19  23
ATOM     23  C   UNL     1       9.747   9.987   5.627  0.00  0.00    +0.037 A 
ATOM     26  C   UNL     1       8.898   8.886   5.721  0.00  0.00    +0.014 A 
ATOM     27  C   UNL     1       9.391  11.083   4.846  0.00  0.00    +0.014 A 
ATOM     31  C   UNL     1       7.686   8.883   5.031  0.00  0.00    +0.019 A 
ATOM     32  C   UNL     1       8.179  11.080   4.156  0.00  0.00    +0.019 A 
ATOM     33  C   UNL     1       7.327   9.979   4.247  0.00  0.00    +0.052 A 
BRANCH  33  34
ATOM      9  N   UNL     1       5.077   9.971   2.962  0.00  0.00    -0.191 NA
ATOM     34  C   UNL     1       6.086   9.975   3.539  0.00  0.00    +0.099 C 
ENDBRANCH  33  34
ENDBRANCH  19  23
TORSDOF 5
ENDMDL
MODEL 2
REMARK VINA RESULT:      -6.7      2.912      5.038
REMARK  Name = 7144183
REMARK  5 active torsions:
REMARK  status: ('A' for Active; 'I' for Inactive)
REMARK    1  A    between atoms: O_6  and  C_30
REMARK    2  A    between atoms: O_6  and  C_35
REMARK    3  A    between atoms: C_17  and  C_22
REMARK    4  A    between atoms: C_19  and  C_23
REMARK    5  A    between atoms: C_33  and  C_34
REMARK                            x       y       z     vdW  Elec       q    Type
REMARK                         _______ _______ _______ _____ _____    ______ ____
ROOT
ATOM      4  O   UNL     1       7.301   8.684   3.963  0.00  0.00    -0.268 OA
ATOM      5  O   UNL     1      10.857   9.732   7.428  0.00  0.00    -0.270 OA
ATOM      7  N   UNL     1      11.135   7.481   6.862  0.00  0.00    -0.297 N 
ATOM      8  N   UNL     1       8.966   7.161   4.589  0.00  0.00    -0.311 N 
ATOM     10  C   UNL     1       9.042   6.150   6.947  0.00  0.00    +0.027 C 
ATOM     11  C   UNL     1      10.781   5.576   5.304  0.00  0.00    +0.054 C 
ATOM     12  C   UNL     1       9.751   4.988   6.267  0.00  0.00    +0.018 C 
ATOM     13  C   UNL     1      10.047   7.019   7.721  0.00  0.00    +0.113 C 
ATOM     14  C   UNL     1       8.293   6.952   5.880  0.00  0.00    +0.130 C 
ATOM     15  C   UNL     1      11.804   6.419   6.095  0.00  0.00    +0.117 C 
ATOM     16  C   UNL     1      10.119   6.435   4.225  0.00  0.00    +0.034 A 
ATOM     17  C   UNL     1      10.617   6.543   2.965  0.00  0.00    +0.002 A 
ATOM     18  C   UNL     1       8.316   8.037   3.702  0.00  0.00    +0.252 A 
ATOM     19  C   UNL     1      11.419   8.847   6.786  0.00  0.00    +0.247 C 
ATOM     20  C   UNL     1       9.975   7.442   2.024  0.00  0.00    +0.015 A 
ATOM     21  C   UNL     1       8.904   8.166   2.350  0.00  0.00    +0.071 A 
ENDROOT
BRANCH  17  22
ATOM     22  C   UNL     1      11.809   5.782   2.531  0.00  0.00    -0.016 A 
ATOM     24  C   UNL     1      11.671   4.464   2.107  0.00  0.00    +0.012 A 
ATOM     25  C   UNL     1      13.060   6.391   2.548  0.00  0.00    +0.012 A 
ATOM     28  C   UNL     1      12.795   3.748   1.698  0.00  0.00    +0.046 A 
ATOM     29  C   UNL     1      14.185   5.674   2.139  0.00  0.00    +0.046 A 
ATOM     30  C   UNL     1      14.051   4.352   1.714  0.00  0.00    +0.130 A 
BRANCH  30   6
ATOM      6  O   UNL     1      15.148   3.652   1.315  0.00  0.00    -0.406 OA
BRANCH   6  35
ATOM      1  F   UNL     1      16.830   3.203  -0.122  0.00  0.00    -0.133 F 
ATOM      2  F   UNL     1      14.949   3.953  -0.943  0.00  0.00    -0.133 F 
ATOM      3  F   UNL     1      16.284   5.294   0.198  0.00  0.00    -0.133 F 
ATOM     35  C   UNL     1      15.793   4.040   0.107  0.00  0.00    +0.575 C 
ENDBRANCH   6  35
ENDBRANCH  30   6
ENDBRANCH  17  22
BRANCH  19  23
ATOM     23  C   UNL     1      12.462   9.288   5.852  0.00  0.00    +0.037 A 
ATOM     26  C   UNL     1      12.135   9.564   4.526  0.00  0.00    +0.014 A 
ATOM     27  C   UNL     1      13.774   9.431   6.296  0.00  0.00    +0.014 A 
ATOM     31  C   UNL     1      13.125   9.985   3.640  0.00  0.00    +0.019 A 
ATOM     32  C   UNL     1      14.765   9.852   5.410  0.00  0.00    +0.019 A 
ATOM     33  C   UNL     1      14.441  10.128   4.081  0.00  0.00    +0.052 A 
BRANCH  33  34
ATOM      9  N   UNL     1      16.282  10.907   2.433  0.00  0.00    -0.191 NA
ATOM     34  C   UNL     1      15.456  10.558   3.172  0.00  0.00    +0.099 C 
ENDBRANCH  33  34
ENDBRANCH  19  23
TORSDOF 5
ENDMDL
MODEL 3
REMARK VINA RESULT:      -6.5     24.905     27.339
REMARK  Name = 7144183
REMARK  5 active torsions:
REMARK  status: ('A' for Active; 'I' for Inactive)
REMARK    1  A    between atoms: O_6  and  C_30
REMARK    2  A    between atoms: O_6  and  C_35
REMARK    3  A    between atoms: C_17  and  C_22
REMARK    4  A    between atoms: C_19  and  C_23
REMARK    5  A    between atoms: C_33  and  C_34
REMARK                            x       y       z     vdW  Elec       q    Type
REMARK                         _______ _______ _______ _____ _____    ______ ____
ROOT
ATOM      4  O   UNL     1      -6.913 -15.164  17.212  0.00  0.00    -0.268 OA
ATOM      5  O   UNL     1      -8.334 -10.769  19.311  0.00  0.00    -0.270 OA
ATOM      7  N   UNL     1      -6.389 -10.317  18.095  0.00  0.00    -0.297 N 
ATOM      8  N   UNL     1      -5.850 -13.127  16.760  0.00  0.00    -0.311 N 
ATOM     10  C   UNL     1      -4.518 -11.879  18.563  0.00  0.00    +0.027 C 
ATOM     11  C   UNL     1      -4.757 -10.908  16.315  0.00  0.00    +0.054 C 
ATOM     12  C   UNL     1      -3.742 -11.306  17.387  0.00  0.00    +0.018 C 
ATOM     13  C   UNL     1      -5.494 -10.834  19.129  0.00  0.00    +0.113 C 
ATOM     14  C   UNL     1      -5.240 -13.146  18.097  0.00  0.00    +0.130 C 
ATOM     15  C   UNL     1      -5.711  -9.835  16.882  0.00  0.00    +0.117 C 
ATOM     16  C   UNL     1      -5.560 -12.114  15.823  0.00  0.00    +0.034 A 
ATOM     17  C   UNL     1      -6.019 -12.219  14.548  0.00  0.00    +0.002 A 
ATOM     18  C   UNL     1      -6.640 -14.246  16.439  0.00  0.00    +0.252 A 
ATOM     19  C   UNL     1      -7.771 -10.364  18.295  0.00  0.00    +0.247 C 
ATOM     20  C   UNL     1      -6.842 -13.357  14.183  0.00  0.00    +0.015 A 
ATOM     21  C   UNL     1      -7.160 -14.313  15.055  0.00  0.00    +0.071 A 
ENDROOT
BRANCH  17  22
ATOM     22  C   UNL     1      -5.719 -11.193  13.526  0.00  0.00    -0.016 A 
ATOM     24  C   UNL     1      -6.625 -10.164  13.293  0.00  0.00    +0.012 A 
ATOM     25  C   UNL     1      -4.531 -11.264  12.804  0.00  0.00    +0.012 A 
ATOM     28  C   UNL     1      -6.341  -9.197  12.328  0.00  0.00    +0.046 A 
ATOM     29  C   UNL     1      -4.247 -10.297  11.840  0.00  0.00    +0.046 A 
ATOM     30  C   UNL     1      -5.153  -9.264  11.602  0.00  0.00    +0.130 A 
BRANCH  30   6
ATOM      6  O   UNL     1      -4.876  -8.320  10.661  0.00  0.00    -0.406 OA
BRANCH   6  35
ATOM      1  F   UNL     1      -6.148  -7.601   8.941  0.00  0.00    -0.133 F 
ATOM      2  F   UNL     1      -4.225  -8.530   8.479  0.00  0.00    -0.133 F 
ATOM      3  F   UNL     1      -5.912  -9.756   9.213  0.00  0.00    -0.133 F 
ATOM     35  C   UNL     1      -5.282  -8.567   9.319  0.00  0.00    +0.575 C 
ENDBRANCH   6  35
ENDBRANCH  30   6
ENDBRANCH  17  22
BRANCH  19  23
ATOM     23  C   UNL     1      -8.646  -9.914  17.206  0.00  0.00    +0.037 A 
ATOM     26  C   UNL     1      -9.048 -10.815  16.222  0.00  0.00    +0.014 A 
ATOM     27  C   UNL     1      -9.072  -8.589  17.162  0.00  0.00    +0.014 A 
ATOM     31  C   UNL     1      -9.881 -10.387  15.188  0.00  0.00    +0.019 A 
ATOM     32  C   UNL     1      -9.905  -8.162  16.129  0.00  0.00    +0.019 A 
ATOM     33  C   UNL     1     -10.308  -9.060  15.141  0.00  0.00    +0.052 A 
BRANCH  33  34
ATOM      9  N   UNL     1     -11.852  -8.266  13.218  0.00  0.00    -0.191 NA
ATOM     34  C   UNL     1     -11.160  -8.622  14.081  0.00  0.00    +0.099 C 
ENDBRANCH  33  34
ENDBRANCH  19  23
TORSDOF 5
ENDMDL
MODEL 4
REMARK VINA RESULT:      -6.4      2.246      5.129
REMARK  Name = 7144183
REMARK  5 active torsions:
REMARK  status: ('A' for Active; 'I' for Inactive)
REMARK    1  A    between atoms: O_6  and  C_30
REMARK    2  A    between atoms: O_6  and  C_35
REMARK    3  A    between atoms: C_17  and  C_22
REMARK    4  A    between atoms: C_19  and  C_23
REMARK    5  A    between atoms: C_33  and  C_34
REMARK                            x       y       z     vdW  Elec       q    Type
REMARK                         _______ _______ _______ _____ _____    ______ ____
ROOT
ATOM      4  O   UNL     1       8.376  10.996   4.354  0.00  0.00    -0.268 OA
ATOM      5  O   UNL     1      11.595   9.169   7.823  0.00  0.00    -0.270 OA
ATOM      7  N   UNL     1      10.683   7.313   6.731  0.00  0.00    -0.297 N 
ATOM      8  N   UNL     1       8.905   8.722   4.536  0.00  0.00    -0.311 N 
ATOM     10  C   UNL     1       8.207   7.342   6.584  0.00  0.00    +0.027 C 
ATOM     11  C   UNL     1       9.518   6.297   4.784  0.00  0.00    +0.054 C 
ATOM     12  C   UNL     1       8.247   6.165   5.622  0.00  0.00    +0.018 C 
ATOM     13  C   UNL     1       9.441   7.336   7.501  0.00  0.00    +0.113 C 
ATOM     14  C   UNL     1       8.105   8.633   5.767  0.00  0.00    +0.130 C 
ATOM     15  C   UNL     1      10.753   6.257   5.710  0.00  0.00    +0.117 C 
ATOM     16  C   UNL     1       9.522   7.591   3.965  0.00  0.00    +0.034 A 
ATOM     17  C   UNL     1      10.117   7.686   2.748  0.00  0.00    +0.002 A 
ATOM     18  C   UNL     1       8.909   9.980   3.908  0.00  0.00    +0.252 A 
ATOM     19  C   UNL     1      11.657   8.286   6.968  0.00  0.00    +0.247 C 
ATOM     20  C   UNL     1      10.146   8.969   2.072  0.00  0.00    +0.015 A 
ATOM     21  C   UNL     1       9.600  10.064   2.601  0.00  0.00    +0.071 A 
ENDROOT
BRANCH  17  22
ATOM     22  C   UNL     1      10.755   6.519   2.099  0.00  0.00    -0.016 A 
ATOM     24  C   UNL     1       9.982   5.632   1.358  0.00  0.00    +0.012 A 
ATOM     25  C   UNL     1      12.126   6.318   2.234  0.00  0.00    +0.012 A 
ATOM     28  C   UNL     1      10.584   4.533   0.746  0.00  0.00    +0.046 A 
ATOM     29  C   UNL     1      12.728   5.219   1.623  0.00  0.00    +0.046 A 
ATOM     30  C   UNL     1      11.957   4.326   0.879  0.00  0.00    +0.130 A 
BRANCH  30   6
ATOM      6  O   UNL     1      12.544   3.253   0.283  0.00  0.00    -0.406 OA
BRANCH   6  35
ATOM      1  F   UNL     1      14.319   3.485  -1.092  0.00  0.00    -0.133 F 
ATOM      2  F   UNL     1      12.625   2.297  -1.793  0.00  0.00    -0.133 F 
ATOM      3  F   UNL     1      12.460   4.496  -1.636  0.00  0.00    -0.133 F 
ATOM     35  C   UNL     1      12.972   3.382  -1.068  0.00  0.00    +0.575 C 
ENDBRANCH   6  35
ENDBRANCH  30   6
ENDBRANCH  17  22
BRANCH  19  23
ATOM     23  C   UNL     1      12.858   8.287   6.124  0.00  0.00    +0.037 A 
ATOM     26  C   UNL     1      13.997   7.599   6.537  0.00  0.00    +0.014 A 
ATOM     27  C   UNL     1      12.853   8.975   4.914  0.00  0.00    +0.014 A 
ATOM     31  C   UNL     1      15.137   7.598   5.734  0.00  0.00    +0.019 A 
ATOM     32  C   UNL     1      13.993   8.974   4.110  0.00  0.00    +0.019 A 
ATOM     33  C   UNL     1      15.135   8.287   4.520  0.00  0.00    +0.052 A 
BRANCH  33  34
ATOM      9  N   UNL     1      17.254   8.289   3.030  0.00  0.00    -0.191 NA
ATOM     34  C   UNL     1      16.304   8.288   3.699  0.00  0.00    +0.099 C 
ENDBRANCH  33  34
ENDBRANCH  19  23
TORSDOF 5
ENDMDL
MODEL 5
REMARK VINA RESULT:      -6.3      2.116      2.456
REMARK  Name = 7144183
REMARK  5 active torsions:
REMARK  status: ('A' for Active; 'I' for Inactive)
REMARK    1  A    between atoms: O_6  and  C_30
REMARK    2  A    between atoms: O_6  and  C_35
REMARK    3  A    between atoms: C_17  and  C_22
REMARK    4  A    between atoms: C_19  and  C_23
REMARK    5  A    between atoms: C_33  and  C_34
REMARK                            x       y       z     vdW  Elec       q    Type
REMARK                         _______ _______ _______ _____ _____    ______ ____
ROOT
ATOM      4  O   UNL     1       8.648   7.743   8.078  0.00  0.00    -0.268 OA
ATOM      5  O   UNL     1      10.287  11.561   5.165  0.00  0.00    -0.270 OA
ATOM      7  N   UNL     1      11.701   9.749   4.731  0.00  0.00    -0.297 N 
ATOM      8  N   UNL     1      10.354   7.501   6.492  0.00  0.00    -0.311 N 
ATOM     10  C   UNL     1      12.620   8.672   6.769  0.00  0.00    +0.027 C 
ATOM     11  C   UNL     1      12.175   7.309   4.770  0.00  0.00    +0.054 C 
ATOM     12  C   UNL     1      13.152   7.524   5.925  0.00  0.00    +0.018 C 
ATOM     13  C   UNL     1      12.511   9.956   5.930  0.00  0.00    +0.113 C 
ATOM     14  C   UNL     1      11.270   8.256   7.359  0.00  0.00    +0.130 C 
ATOM     15  C   UNL     1      12.098   8.592   3.915  0.00  0.00    +0.117 C 
ATOM     16  C   UNL     1      10.780   6.932   5.274  0.00  0.00    +0.034 A 
ATOM     17  C   UNL     1       9.947   6.112   4.582  0.00  0.00    +0.002 A 
ATOM     18  C   UNL     1       9.067   7.283   7.015  0.00  0.00    +0.252 A 
ATOM     19  C   UNL     1      10.617  10.594   4.479  0.00  0.00    +0.247 C 
ATOM     20  C   UNL     1       8.610   5.868   5.089  0.00  0.00    +0.015 A 
ATOM     21  C   UNL     1       8.167   6.418   6.220  0.00  0.00    +0.071 A 
ENDROOT
BRANCH  17  22
ATOM     22  C   UNL     1      10.360   5.473   3.313  0.00  0.00    -0.016 A 
ATOM     24  C   UNL     1      11.005   4.241   3.338  0.00  0.00    +0.012 A 
ATOM     25  C   UNL     1      10.099   6.110   2.103  0.00  0.00    +0.012 A 
ATOM     28  C   UNL     1      11.394   3.640   2.141  0.00  0.00    +0.046 A 
ATOM     29  C   UNL     1      10.488   5.508   0.906  0.00  0.00    +0.046 A 
ATOM     30  C   UNL     1      11.136   4.273   0.926  0.00  0.00    +0.130 A 
BRANCH  30   6
ATOM      6  O   UNL     1      11.516   3.686  -0.242  0.00  0.00    -0.406 OA
BRANCH   6  35
ATOM      1  F   UNL     1      13.062   3.076  -1.769  0.00  0.00    -0.133 F 
ATOM      2  F   UNL     1      13.197   5.082  -0.914  0.00  0.00    -0.133 F 
ATOM      3  F   UNL     1      13.704   3.310   0.306  0.00  0.00    -0.133 F 
ATOM     35  C   UNL     1      12.877   3.799  -0.642  0.00  0.00    +0.575 C 
ENDBRANCH   6  35
ENDBRANCH  30   6
ENDBRANCH  17  22
BRANCH  19  23
ATOM     23  C   UNL     1       9.773  10.311   3.313  0.00  0.00    +0.037 A 
ATOM     26  C   UNL     1       8.706   9.422   3.427  0.00  0.00    +0.014 A 
ATOM     27  C   UNL     1      10.041  10.934   2.097  0.00  0.00    +0.014 A 
ATOM     31  C   UNL     1       7.903   9.155   2.319  0.00  0.00    +0.019 A 
ATOM     32  C   UNL     1       9.238  10.667   0.988  0.00  0.00    +0.019 A 
ATOM     33  C   UNL     1       8.169   9.777   1.099  0.00  0.00    +0.052 A 
BRANCH  33  34
ATOM      9  N   UNL     1       6.680   9.277  -0.961  0.00  0.00    -0.191 NA
ATOM     34  C   UNL     1       7.348   9.501  -0.037  0.00  0.00    +0.099 C 
ENDBRANCH  33  34
ENDBRANCH  19  23
TORSDOF 5
ENDMDL
MODEL 6
REMARK VINA RESULT:      -6.0     23.851     27.464
REMARK  Name = 7144183
REMARK  5 active torsions:
REMARK  status: ('A' for Active; 'I' for Inactive)
REMARK    1  A    between atoms: O_6  and  C_30
REMARK    2  A    between atoms: O_6  and  C_35
REMARK    3  A    between atoms: C_17  and  C_22
REMARK    4  A    between atoms: C_19  and  C_23
REMARK    5  A    between atoms: C_33  and  C_34
REMARK                            x       y       z     vdW  Elec       q    Type
REMARK                         _______ _______ _______ _____ _____    ______ ____
ROOT
ATOM      4  O   UNL     1      19.618  -4.909  21.515  0.00  0.00    -0.268 OA
ATOM      5  O   UNL     1      20.769  -1.159  24.734  0.00  0.00    -0.270 OA
ATOM      7  N   UNL     1      18.567  -1.784  25.213  0.00  0.00    -0.297 N 
ATOM      8  N   UNL     1      18.190  -4.218  23.238  0.00  0.00    -0.311 N 
ATOM     10  C   UNL     1      17.092  -1.899  23.222  0.00  0.00    +0.027 C 
ATOM     11  C   UNL     1      16.707  -3.429  25.108  0.00  0.00    +0.054 C 
ATOM     12  C   UNL     1      16.010  -2.566  24.058  0.00  0.00    +0.018 C 
ATOM     13  C   UNL     1      17.996  -1.022  24.104  0.00  0.00    +0.113 C 
ATOM     14  C   UNL     1      17.883  -2.988  22.493  0.00  0.00    +0.130 C 
ATOM     15  C   UNL     1      17.587  -2.537  26.010  0.00  0.00    +0.117 C 
ATOM     16  C   UNL     1      17.562  -4.523  24.462  0.00  0.00    +0.034 A 
ATOM     17  C   UNL     1      17.755  -5.738  25.038  0.00  0.00    +0.002 A 
ATOM     18  C   UNL     1      19.054  -5.118  22.590  0.00  0.00    +0.252 A 
ATOM     19  C   UNL     1      19.951  -1.790  25.403  0.00  0.00    +0.247 C 
ATOM     20  C   UNL     1      18.644  -6.691  24.401  0.00  0.00    +0.015 A 
ATOM     21  C   UNL     1      19.278  -6.418  23.260  0.00  0.00    +0.071 A 
ENDROOT
BRANCH  17  22
ATOM     22  C   UNL     1      17.097  -6.112  26.310  0.00  0.00    -0.016 A 
ATOM     24  C   UNL     1      15.831  -6.688  26.289  0.00  0.00    +0.012 A 
ATOM     25  C   UNL     1      17.749  -5.884  27.518  0.00  0.00    +0.012 A 
ATOM     28  C   UNL     1      15.211  -7.040  27.488  0.00  0.00    +0.046 A 
ATOM     29  C   UNL     1      17.129  -6.236  28.717  0.00  0.00    +0.046 A 
ATOM     30  C   UNL     1      15.861  -6.814  28.701  0.00  0.00    +0.130 A 
BRANCH  30   6
ATOM      6  O   UNL     1      15.255  -7.157  29.871  0.00  0.00    -0.406 OA
BRANCH   6  35
ATOM      1  F   UNL     1      14.242  -6.470  31.768  0.00  0.00    -0.133 F 
ATOM      2  F   UNL     1      14.703  -4.970  30.247  0.00  0.00    -0.133 F 
ATOM      3  F   UNL     1      13.084  -6.437  29.915  0.00  0.00    -0.133 F 
ATOM     35  C   UNL     1      14.316  -6.249  30.436  0.00  0.00    +0.575 C 
ENDBRANCH   6  35
ENDBRANCH  30   6
ENDBRANCH  17  22
BRANCH  19  23
ATOM     23  C   UNL     1      20.502  -2.629  26.474  0.00  0.00    +0.037 A 
ATOM     26  C   UNL     1      20.698  -2.092  27.744  0.00  0.00    +0.014 A 
ATOM     27  C   UNL     1      20.823  -3.959  26.216  0.00  0.00    +0.014 A 
ATOM     31  C   UNL     1      21.219  -2.890  28.762  0.00  0.00    +0.019 A 
ATOM     32  C   UNL     1      21.345  -4.757  27.234  0.00  0.00    +0.019 A 
ATOM     33  C   UNL     1      21.544  -4.223  28.507  0.00  0.00    +0.052 A 
BRANCH  33  34
ATOM      9  N   UNL     1      22.516  -5.704  30.397  0.00  0.00    -0.191 NA
ATOM     34  C   UNL     1      22.080  -5.040  29.549  0.00  0.00    +0.099 C 
ENDBRANCH  33  34
ENDBRANCH  19  23
TORSDOF 5
ENDMDL
MODEL 7
REMARK VINA RESULT:      -5.9     25.366     28.067
REMARK  Name = 7144183
REMARK  5 active torsions:
REMARK  status: ('A' for Active; 'I' for Inactive)
REMARK    1  A    between atoms: O_6  and  C_30
REMARK    2  A    between atoms: O_6  and  C_35
REMARK    3  A    between atoms: C_17  and  C_22
REMARK    4  A    between atoms: C_19  and  C_23
REMARK    5  A    between atoms: C_33  and  C_34
REMARK                            x       y       z     vdW  Elec       q    Type
REMARK                         _______ _______ _______ _____ _____    ______ ____
ROOT
ATOM      4  O   UNL     1      -6.356 -14.541  11.293  0.00  0.00    -0.268 OA
ATOM      5  O   UNL     1      -2.954 -11.925  14.000  0.00  0.00    -0.270 OA
ATOM      7  N   UNL     1      -4.517 -10.367  13.227  0.00  0.00    -0.297 N 
ATOM      8  N   UNL     1      -6.583 -12.261  11.773  0.00  0.00    -0.311 N 
ATOM     10  C   UNL     1      -4.976 -10.516  10.794  0.00  0.00    +0.027 C 
ATOM     11  C   UNL     1      -6.768  -9.815  12.327  0.00  0.00    +0.054 C 
ATOM     12  C   UNL     1      -6.148  -9.560  10.953  0.00  0.00    +0.018 C 
ATOM     13  C   UNL     1      -3.928 -10.277  11.893  0.00  0.00    +0.113 C 
ATOM     14  C   UNL     1      -5.513 -11.950  10.815  0.00  0.00    +0.130 C 
ATOM     15  C   UNL     1      -5.718  -9.541  13.425  0.00  0.00    +0.117 C 
ATOM     16  C   UNL     1      -7.292 -11.248  12.452  0.00  0.00    +0.034 A 
ATOM     17  C   UNL     1      -8.375 -11.569  13.207  0.00  0.00    +0.002 A 
ATOM     18  C   UNL     1      -6.930 -13.619  11.873  0.00  0.00    +0.252 A 
ATOM     19  C   UNL     1      -3.958 -11.235  14.169  0.00  0.00    +0.247 C 
ATOM     20  C   UNL     1      -8.760 -12.962  13.337  0.00  0.00    +0.015 A 
ATOM     21  C   UNL     1      -8.089 -13.944  12.735  0.00  0.00    +0.071 A 
ENDROOT
BRANCH  17  22
ATOM     22  C   UNL     1      -9.164 -10.538  13.916  0.00  0.00    -0.016 A 
ATOM     24  C   UNL     1     -10.181  -9.865  13.247  0.00  0.00    +0.012 A 
ATOM     25  C   UNL     1      -8.883 -10.249  15.248  0.00  0.00    +0.012 A 
ATOM     28  C   UNL     1     -10.924  -8.893  13.917  0.00  0.00    +0.046 A 
ATOM     29  C   UNL     1      -9.626  -9.277  15.918  0.00  0.00    +0.046 A 
ATOM     30  C   UNL     1     -10.647  -8.599  15.252  0.00  0.00    +0.130 A 
BRANCH  30   6
ATOM      6  O   UNL     1     -11.372  -7.650  15.905  0.00  0.00    -0.406 OA
BRANCH   6  35
ATOM      1  F   UNL     1     -11.746  -5.811  14.651  0.00  0.00    -0.133 F 
ATOM      2  F   UNL     1     -11.346  -5.539  16.781  0.00  0.00    -0.133 F 
ATOM      3  F   UNL     1      -9.724  -6.145  15.407  0.00  0.00    -0.133 F 
ATOM     35  C   UNL     1     -11.035  -6.283  15.699  0.00  0.00    +0.575 C 
ENDBRANCH   6  35
ENDBRANCH  30   6
ENDBRANCH  17  22
BRANCH  19  23
ATOM     23  C   UNL     1      -4.620 -11.365  15.472  0.00  0.00    +0.037 A 
ATOM     26  C   UNL     1      -5.648 -12.291  15.639  0.00  0.00    +0.014 A 
ATOM     27  C   UNL     1      -4.217 -10.563  16.537  0.00  0.00    +0.014 A 
ATOM     31  C   UNL     1      -6.276 -12.416  16.878  0.00  0.00    +0.019 A 
ATOM     32  C   UNL     1      -4.845 -10.688  17.776  0.00  0.00    +0.019 A 
ATOM     33  C   UNL     1      -5.875 -11.613  17.947  0.00  0.00    +0.052 A 
BRANCH  33  34
ATOM      9  N   UNL     1      -7.044 -11.842  20.247  0.00  0.00    -0.191 NA
ATOM     34  C   UNL     1      -6.520 -11.739  19.216  0.00  0.00    +0.099 C 
ENDBRANCH  33  34
ENDBRANCH  19  23
TORSDOF 5
ENDMDL
MODEL 8
REMARK VINA RESULT:      -5.9     25.141     28.537
REMARK  Name = 7144183
REMARK  5 active torsions:
REMARK  status: ('A' for Active; 'I' for Inactive)
REMARK    1  A    between atoms: O_6  and  C_30
REMARK    2  A    between atoms: O_6  and  C_35
REMARK    3  A    between atoms: C_17  and  C_22
REMARK    4  A    between atoms: C_19  and  C_23
REMARK    5  A    between atoms: C_33  and  C_34
REMARK                            x       y       z     vdW  Elec       q    Type
REMARK                         _______ _______ _______ _____ _____    ______ ____
ROOT
ATOM      4  O   UNL     1      20.775  -4.197  33.058  0.00  0.00    -0.268 OA
ATOM      5  O   UNL     1      15.750  -4.886  32.917  0.00  0.00    -0.270 OA
ATOM      7  N   UNL     1      16.202  -3.056  31.533  0.00  0.00    -0.297 N 
ATOM      8  N   UNL     1      19.356  -2.981  31.648  0.00  0.00    -0.311 N 
ATOM     10  C   UNL     1      17.635  -1.323  32.581  0.00  0.00    +0.027 C 
ATOM     11  C   UNL     1      17.778  -1.713  30.157  0.00  0.00    +0.054 C 
ATOM     12  C   UNL     1      17.787  -0.631  31.235  0.00  0.00    +0.018 C 
ATOM     13  C   UNL     1      16.314  -2.109  32.640  0.00  0.00    +0.113 C 
ATOM     14  C   UNL     1      18.850  -2.226  32.803  0.00  0.00    +0.130 C 
ATOM     15  C   UNL     1      16.436  -2.476  30.202  0.00  0.00    +0.117 C 
ATOM     16  C   UNL     1      18.941  -2.694  30.331  0.00  0.00    +0.034 A 
ATOM     17  C   UNL     1      19.548  -3.305  29.281  0.00  0.00    +0.002 A 
ATOM     18  C   UNL     1      20.365  -3.918  31.931  0.00  0.00    +0.252 A 
ATOM     19  C   UNL     1      15.945  -4.403  31.802  0.00  0.00    +0.247 C 
ATOM     20  C   UNL     1      20.590  -4.282  29.536  0.00  0.00    +0.015 A 
ATOM     21  C   UNL     1      20.981  -4.599  30.770  0.00  0.00    +0.071 A 
ENDROOT
BRANCH  17  22
ATOM     22  C   UNL     1      19.163  -3.016  27.882  0.00  0.00    -0.016 A 
ATOM     24  C   UNL     1      18.175  -3.779  27.266  0.00  0.00    +0.012 A 
ATOM     25  C   UNL     1      19.790  -1.983  27.192  0.00  0.00    +0.012 A 
ATOM     28  C   UNL     1      17.812  -3.506  25.947  0.00  0.00    +0.046 A 
ATOM     29  C   UNL     1      19.427  -1.710  25.873  0.00  0.00    +0.046 A 
ATOM     30  C   UNL     1      18.438  -2.472  25.251  0.00  0.00    +0.130 A 
BRANCH  30   6
ATOM      6  O   UNL     1      18.084  -2.206  23.964  0.00  0.00    -0.406 OA
BRANCH   6  35
ATOM      1  F   UNL     1      16.889  -1.036  22.448  0.00  0.00    -0.133 F 
ATOM      2  F   UNL     1      15.798  -2.222  23.924  0.00  0.00    -0.133 F 
ATOM      3  F   UNL     1      16.842  -0.370  24.529  0.00  0.00    -0.133 F 
ATOM     35  C   UNL     1      16.895  -1.459  23.732  0.00  0.00    +0.575 C 
ENDBRANCH   6  35
ENDBRANCH  30   6
ENDBRANCH  17  22
BRANCH  19  23
ATOM     23  C   UNL     1      15.920  -5.344  30.677  0.00  0.00    +0.037 A 
ATOM     26  C   UNL     1      17.113  -5.863  30.179  0.00  0.00    +0.014 A 
ATOM     27  C   UNL     1      14.702  -5.716  30.112  0.00  0.00    +0.014 A 
ATOM     31  C   UNL     1      17.088  -6.759  29.110  0.00  0.00    +0.019 A 
ATOM     32  C   UNL     1      14.677  -6.612  29.044  0.00  0.00    +0.019 A 
ATOM     33  C   UNL     1      15.870  -7.133  28.542  0.00  0.00    +0.052 A 
BRANCH  33  34
ATOM      9  N   UNL     1      15.825  -8.794  26.555  0.00  0.00    -0.191 NA
ATOM     34  C   UNL     1      15.845  -8.049  27.446  0.00  0.00    +0.099 C 
ENDBRANCH  33  34
ENDBRANCH  19  23
TORSDOF 5
ENDMDL
MODEL 9
REMARK VINA RESULT:      -5.8     24.269     27.114
REMARK  Name = 7144183
REMARK  5 active torsions:
REMARK  status: ('A' for Active; 'I' for Inactive)
REMARK    1  A    between atoms: O_6  and  C_30
REMARK    2  A    between atoms: O_6  and  C_35
REMARK    3  A    between atoms: C_17  and  C_22
REMARK    4  A    between atoms: C_19  and  C_23
REMARK    5  A    between atoms: C_33  and  C_34
REMARK                            x       y       z     vdW  Elec       q    Type
REMARK                         _______ _______ _______ _____ _____    ______ ____
ROOT
ATOM      4  O   UNL     1      -8.701 -13.206   8.162  0.00  0.00    -0.268 OA
ATOM      5  O   UNL     1      -4.688 -10.146   7.642  0.00  0.00    -0.270 OA
ATOM      7  N   UNL     1      -6.115  -9.103   9.173  0.00  0.00    -0.297 N 
ATOM      8  N   UNL     1      -8.387 -11.277   9.452  0.00  0.00    -0.311 N 
ATOM     10  C   UNL     1      -8.470  -8.935   8.408  0.00  0.00    +0.027 C 
ATOM     11  C   UNL     1      -7.987  -9.197  10.806  0.00  0.00    +0.054 C 
ATOM     12  C   UNL     1      -8.892  -8.489   9.800  0.00  0.00    +0.018 C 
ATOM     13  C   UNL     1      -7.001  -8.564   8.143  0.00  0.00    +0.113 C 
ATOM     14  C   UNL     1      -8.712 -10.441   8.287  0.00  0.00    +0.130 C 
ATOM     15  C   UNL     1      -6.518  -8.793  10.552  0.00  0.00    +0.117 C 
ATOM     16  C   UNL     1      -8.132 -10.719  10.722  0.00  0.00    +0.034 A 
ATOM     17  C   UNL     1      -7.992 -11.530  11.803  0.00  0.00    +0.002 A 
ATOM     18  C   UNL     1      -8.469 -12.665   9.243  0.00  0.00    +0.252 A 
ATOM     19  C   UNL     1      -5.022  -9.888   8.798  0.00  0.00    +0.247 C 
ATOM     20  C   UNL     1      -8.065 -12.968  11.624  0.00  0.00    +0.015 A 
ATOM     21  C   UNL     1      -8.272 -13.526  10.431  0.00  0.00    +0.071 A 
ENDROOT
BRANCH  17  22
ATOM     22  C   UNL     1      -7.748 -10.987  13.157  0.00  0.00    -0.016 A 
ATOM     24  C   UNL     1      -6.445 -10.742  13.579  0.00  0.00    +0.012 A 
ATOM     25  C   UNL     1      -8.824 -10.725  14.000  0.00  0.00    +0.012 A 
ATOM     28  C   UNL     1      -6.216 -10.230  14.856  0.00  0.00    +0.046 A 
ATOM     29  C   UNL     1      -8.595 -10.213  15.277  0.00  0.00    +0.046 A 
ATOM     30  C   UNL     1      -7.291  -9.966  15.705  0.00  0.00    +0.130 A 
BRANCH  30   6
ATOM      6  O   UNL     1      -7.067  -9.467  16.951  0.00  0.00    -0.406 OA
BRANCH   6  35
ATOM      1  F   UNL     1      -5.110 -10.263  17.747  0.00  0.00    -0.133 F 
ATOM      2  F   UNL     1      -6.727  -9.899  19.170  0.00  0.00    -0.133 F 
ATOM      3  F   UNL     1      -6.841 -11.595  17.758  0.00  0.00    -0.133 F 
ATOM     35  C   UNL     1      -6.450 -10.313  17.916  0.00  0.00    +0.575 C 
ENDBRANCH   6  35
ENDBRANCH  30   6
ENDBRANCH  17  22
BRANCH  19  23
ATOM     23  C   UNL     1      -4.199 -10.483   9.857  0.00  0.00    +0.037 A 
ATOM     26  C   UNL     1      -3.156  -9.750  10.419  0.00  0.00    +0.014 A 
ATOM     27  C   UNL     1      -4.464 -11.777  10.296  0.00  0.00    +0.014 A 
ATOM     31  C   UNL     1      -2.375 -10.315  11.427  0.00  0.00    +0.019 A 
ATOM     32  C   UNL     1      -3.683 -12.342  11.304  0.00  0.00    +0.019 A 
ATOM     33  C   UNL     1      -2.638 -11.612  11.869  0.00  0.00    +0.052 A 
BRANCH  33  34
ATOM      9  N   UNL     1      -1.184 -12.662  13.738  0.00  0.00    -0.191 NA
ATOM     34  C   UNL     1      -1.836 -12.191  12.899  0.00  0.00    +0.099 C 
ENDBRANCH  33  34
ENDBRANCH  19  23
TORSDOF 5
ENDMDL
MODEL 10
REMARK VINA RESULT:      -5.8     24.401     27.130
REMARK  Name = 7144183
REMARK  5 active torsions:
REMARK  status: ('A' for Active; 'I' for Inactive)
REMARK    1  A    between atoms: O_6  and  C_30
REMARK    2  A    between atoms: O_6  and  C_35
REMARK    3  A    between atoms: C_17  and  C_22
REMARK    4  A    between atoms: C_19  and  C_23
REMARK    5  A    between atoms: C_33  and  C_34
REMARK                            x       y       z     vdW  Elec       q    Type
REMARK                         _______ _______ _______ _____ _____    ______ ____
ROOT
ATOM      4  O   UNL     1      -4.616 -10.272   7.709  0.00  0.00    -0.268 OA
ATOM      5  O   UNL     1      -8.456 -13.015   9.574  0.00  0.00    -0.270 OA
ATOM      7  N   UNL     1      -6.559 -13.622  10.799  0.00  0.00    -0.297 N 
ATOM      8  N   UNL     1      -4.406 -11.656   9.586  0.00  0.00    -0.311 N 
ATOM     10  C   UNL     1      -4.596 -14.208   9.400  0.00  0.00    +0.027 C 
ATOM     11  C   UNL     1      -4.251 -13.157  11.597  0.00  0.00    +0.054 C 
ATOM     12  C   UNL     1      -3.713 -14.218  10.638  0.00  0.00    +0.018 C 
ATOM     13  C   UNL     1      -6.053 -14.529   9.771  0.00  0.00    +0.113 C 
ATOM     14  C   UNL     1      -4.463 -12.843   8.720  0.00  0.00    +0.130 C 
ATOM     15  C   UNL     1      -5.703 -13.505  11.989  0.00  0.00    +0.117 C 
ATOM     16  C   UNL     1      -4.198 -11.758  10.977  0.00  0.00    +0.034 A 
ATOM     17  C   UNL     1      -3.995 -10.636  11.715  0.00  0.00    +0.002 A 
ATOM     18  C   UNL     1      -4.450 -10.419   8.920  0.00  0.00    +0.252 A 
ATOM     19  C   UNL     1      -7.742 -12.915  10.571  0.00  0.00    +0.247 C 
ATOM     20  C   UNL     1      -4.039  -9.341  11.063  0.00  0.00    +0.015 A 
ATOM     21  C   UNL     1      -4.266  -9.211   9.756  0.00  0.00    +0.071 A 
ENDROOT
BRANCH  17  22
ATOM     22  C   UNL     1      -3.748 -10.697  13.173  0.00  0.00    -0.016 A 
ATOM     24  C   UNL     1      -4.796 -10.479  14.061  0.00  0.00    +0.012 A 
ATOM     25  C   UNL     1      -2.468 -10.972  13.645  0.00  0.00    +0.012 A 
ATOM     28  C   UNL     1      -4.563 -10.537  15.435  0.00  0.00    +0.046 A 
ATOM     29  C   UNL     1      -2.234 -11.029  15.019  0.00  0.00    +0.046 A 
ATOM     30  C   UNL     1      -3.282 -10.812  15.914  0.00  0.00    +0.130 A 
BRANCH  30   6
ATOM      6  O   UNL     1      -3.055 -10.867  17.254  0.00  0.00    -0.406 OA
BRANCH   6  35
ATOM      1  F   UNL     1      -3.374 -11.923  19.223  0.00  0.00    -0.133 F 
ATOM      2  F   UNL     1      -5.048 -10.805  18.373  0.00  0.00    -0.133 F 
ATOM      3  F   UNL     1      -4.395 -12.709  17.459  0.00  0.00    -0.133 F 
ATOM     35  C   UNL     1      -3.982 -11.576  18.067  0.00  0.00    +0.575 C 
ENDBRANCH   6  35
ENDBRANCH  30   6
ENDBRANCH  17  22
BRANCH  19  23
ATOM     23  C   UNL     1      -8.181 -11.950  11.586  0.00  0.00    +0.037 A 
ATOM     26  C   UNL     1      -9.071 -12.348  12.582  0.00  0.00    +0.014 A 
ATOM     27  C   UNL     1      -7.706 -10.642  11.550  0.00  0.00    +0.014 A 
ATOM     31  C   UNL     1      -9.487 -11.431  13.548  0.00  0.00    +0.019 A 
ATOM     32  C   UNL     1      -8.122  -9.726  12.516  0.00  0.00    +0.019 A 
ATOM     33  C   UNL     1      -9.012 -10.120  13.514  0.00  0.00    +0.052 A 
BRANCH  33  34
ATOM      9  N   UNL     1      -9.788  -8.417  15.305  0.00  0.00    -0.191 NA
ATOM     34  C   UNL     1      -9.440  -9.181  14.502  0.00  0.00    +0.099 C 
ENDBRANCH  33  34
ENDBRANCH  19  23
TORSDOF 5
ENDMDL
