MODEL 1
REMARK VINA RESULT:      -7.5      0.000      0.000
REMARK  Name = 11879562
REMARK  10 active torsions:
REMARK  status: ('A' for Active; 'I' for Inactive)
REMARK    1  A    between atoms: O_3  and  C_18
REMARK    2  A    between atoms: O_3  and  C_23
REMARK    3  A    between atoms: O_5  and  C_28
REMARK    4  A    between atoms: O_5  and  C_34
REMARK    5  A    between atoms: N_6  and  C_14
REMARK    6  A    between atoms: N_7  and  C_15
REMARK    7  A    between atoms: N_11  and  C_29
REMARK    8  A    between atoms: N_11  and  C_32
REMARK    9  A    between atoms: N_11  and  C_33
REMARK   10  A    between atoms: C_19  and  C_20
REMARK                            x       y       z     vdW  Elec       q    Type
REMARK                         _______ _______ _______ _____ _____    ______ ____
ROOT
ATOM      1  O   UNL     1      13.294   7.588  17.825  0.00  0.00    -0.370 OA
ATOM      2  O   UNL     1      13.509   8.660  20.773  0.00  0.00    -0.370 OA
ATOM     12  C   UNL     1      14.046   9.096  19.511  0.00  0.00    +0.176 C 
ATOM     13  C   UNL     1      14.388   7.851  18.716  0.00  0.00    +0.171 C 
ATOM     14  C   UNL     1      12.962   9.785  18.701  0.00  0.00    +0.171 C 
ATOM     15  C   UNL     1      14.490   6.759  19.756  0.00  0.00    +0.130 C 
ATOM     16  C   UNL     1      12.315   8.630  17.944  0.00  0.00    +0.190 C 
ATOM     17  C   UNL     1      13.507   7.226  20.813  0.00  0.00    +0.185 C 
ENDROOT
BRANCH  14   6
ATOM      6  N   UNL     1      13.489  10.862  17.859  0.00  0.00    -0.187 N 
ATOM      8  N   UNL     1      13.558  10.723  16.532  0.00  0.00    -0.041 NA
ATOM      9  N   UNL     1      14.331  12.721  17.150  0.00  0.00    -0.071 NA
ATOM     10  N   UNL     1      14.074  11.867  16.100  0.00  0.00    -0.020 NA
ATOM     18  C   UNL     1      13.959  12.076  18.230  0.00  0.00    +0.342 A 
BRANCH  18   3
ATOM      3  O   UNL     1      14.025  12.515  19.473  0.00  0.00    -0.423 OA
BRANCH   3  23
ATOM     23  C   UNL     1      12.906  12.941  20.176  0.00  0.00    +0.134 A 
ATOM     26  C   UNL     1      12.498  12.226  21.286  0.00  0.00    +0.069 A 
ATOM     27  C   UNL     1      12.234  14.068  19.745  0.00  0.00    +0.046 A 
ATOM     29  C   UNL     1      11.375  12.656  21.992  0.00  0.00    +0.033 A 
ATOM     30  C   UNL     1      11.110  14.498  20.452  0.00  0.00    +0.005 A 
ATOM     31  C   UNL     1      10.681  13.792  21.575  0.00  0.00    +0.023 A 
BRANCH  29  11
ATOM     11  N   UNL     1      10.942  11.943  23.129  0.00  0.00    -0.336 N 
ATOM     32  C   UNL     1      10.490  12.649  24.311  0.00  0.00    +0.129 C 
ATOM     33  C   UNL     1      10.954  10.493  23.135  0.00  0.00    +0.129 C 
ENDBRANCH  29  11
ENDBRANCH   3  23
ENDBRANCH  18   3
ENDBRANCH  14   6
BRANCH  15   7
ATOM      4  O   UNL     1      16.773   5.577  18.477  0.00  0.00    -0.270 OA
ATOM      7  N   UNL     1      15.828   6.670  20.290  0.00  0.00    -0.304 N 
ATOM     19  C   UNL     1      16.871   6.077  19.594  0.00  0.00    +0.244 C 
ATOM     35  H   UNL     1      15.957   6.959  21.255  0.00  0.00    +0.149 HD
BRANCH  19  20
ATOM     20  C   UNL     1      18.182   6.042  20.293  0.00  0.00    +0.037 A 
ATOM     21  C   UNL     1      18.383   6.871  21.377  0.00  0.00    +0.016 A 
ATOM     22  C   UNL     1      19.158   5.181  19.833  0.00  0.00    +0.016 A 
ATOM     24  C   UNL     1      19.614   6.837  22.031  0.00  0.00    +0.046 A 
ATOM     25  C   UNL     1      20.389   5.148  20.489  0.00  0.00    +0.046 A 
ATOM     28  C   UNL     1      20.617   5.976  21.587  0.00  0.00    +0.120 A 
BRANCH  28   5
ATOM      5  O   UNL     1      21.819   5.945  22.225  0.00  0.00    -0.495 OA
ATOM     34  C   UNL     1      22.170   4.734  22.892  0.00  0.00    +0.277 C 
ENDBRANCH  28   5
ENDBRANCH  19  20
ENDBRANCH  15   7
TORSDOF 7
ENDMDL
MODEL 2
REMARK VINA RESULT:      -7.1      2.759      3.414
REMARK  Name = 11879562
REMARK  10 active torsions:
REMARK  status: ('A' for Active; 'I' for Inactive)
REMARK    1  A    between atoms: O_3  and  C_18
REMARK    2  A    between atoms: O_3  and  C_23
REMARK    3  A    between atoms: O_5  and  C_28
REMARK    4  A    between atoms: O_5  and  C_34
REMARK    5  A    between atoms: N_6  and  C_14
REMARK    6  A    between atoms: N_7  and  C_15
REMARK    7  A    between atoms: N_11  and  C_29
REMARK    8  A    between atoms: N_11  and  C_32
REMARK    9  A    between atoms: N_11  and  C_33
REMARK   10  A    between atoms: C_19  and  C_20
REMARK                            x       y       z     vdW  Elec       q    Type
REMARK                         _______ _______ _______ _____ _____    ______ ____
ROOT
ATOM      1  O   UNL     1      13.131   7.358  17.422  0.00  0.00    -0.370 OA
ATOM      2  O   UNL     1      13.498   9.258  19.901  0.00  0.00    -0.370 OA
ATOM     12  C   UNL     1      14.061   9.225  18.577  0.00  0.00    +0.176 C 
ATOM     13  C   UNL     1      14.259   7.767  18.211  0.00  0.00    +0.171 C 
ATOM     14  C   UNL     1      13.046   9.740  17.573  0.00  0.00    +0.171 C 
ATOM     15  C   UNL     1      14.259   7.044  19.539  0.00  0.00    +0.130 C 
ATOM     16  C   UNL     1      12.270   8.483  17.195  0.00  0.00    +0.190 C 
ATOM     17  C   UNL     1      13.344   7.914  20.381  0.00  0.00    +0.185 C 
ENDROOT
BRANCH  14   6
ATOM      6  N   UNL     1      13.672  10.444  16.451  0.00  0.00    -0.187 N 
ATOM      8  N   UNL     1      13.641   9.931  15.217  0.00  0.00    -0.041 NA
ATOM      9  N   UNL     1      14.731  11.876  15.229  0.00  0.00    -0.071 NA
ATOM     10  N   UNL     1      14.292  10.815  14.469  0.00  0.00    -0.020 NA
ATOM     18  C   UNL     1      14.335  11.624  16.454  0.00  0.00    +0.342 A 
BRANCH  18   3
ATOM      3  O   UNL     1      14.537  12.376  17.519  0.00  0.00    -0.423 OA
BRANCH   3  23
ATOM     23  C   UNL     1      15.748  12.402  18.197  0.00  0.00    +0.134 A 
ATOM     26  C   UNL     1      15.801  11.938  19.497  0.00  0.00    +0.069 A 
ATOM     27  C   UNL     1      16.867  12.891  17.550  0.00  0.00    +0.046 A 
ATOM     29  C   UNL     1      17.019  11.963  20.176  0.00  0.00    +0.033 A 
ATOM     30  C   UNL     1      18.085  12.916  18.230  0.00  0.00    +0.005 A 
ATOM     31  C   UNL     1      18.161  12.452  19.542  0.00  0.00    +0.023 A 
BRANCH  29  11
ATOM     11  N   UNL     1      17.095  11.492  21.503  0.00  0.00    -0.336 N 
ATOM     32  C   UNL     1      16.293  10.364  21.931  0.00  0.00    +0.129 C 
ATOM     33  C   UNL     1      17.967  12.141  22.463  0.00  0.00    +0.129 C 
ENDBRANCH  29  11
ENDBRANCH   3  23
ENDBRANCH  18   3
ENDBRANCH  14   6
BRANCH  15   7
ATOM      4  O   UNL     1      16.513   5.626  18.466  0.00  0.00    -0.270 OA
ATOM      7  N   UNL     1      15.587   6.985  20.101  0.00  0.00    -0.304 N 
ATOM     19  C   UNL     1      16.617   6.269  19.507  0.00  0.00    +0.244 C 
ATOM     35  H   UNL     1      15.714   7.397  21.020  0.00  0.00    +0.149 HD
BRANCH  19  20
ATOM     20  C   UNL     1      17.917   6.286  20.225  0.00  0.00    +0.037 A 
ATOM     21  C   UNL     1      18.904   5.402  19.839  0.00  0.00    +0.016 A 
ATOM     22  C   UNL     1      18.096   7.183  21.258  0.00  0.00    +0.016 A 
ATOM     24  C   UNL     1      20.123   5.418  20.514  0.00  0.00    +0.046 A 
ATOM     25  C   UNL     1      19.317   7.198  21.933  0.00  0.00    +0.046 A 
ATOM     28  C   UNL     1      20.330   6.315  21.561  0.00  0.00    +0.120 A 
BRANCH  28   5
ATOM      5  O   UNL     1      21.520   6.328  22.222  0.00  0.00    -0.495 OA
ATOM     34  C   UNL     1      21.982   5.087  22.753  0.00  0.00    +0.277 C 
ENDBRANCH  28   5
ENDBRANCH  19  20
ENDBRANCH  15   7
TORSDOF 7
ENDMDL
MODEL 3
REMARK VINA RESULT:      -7.0     27.576     30.276
REMARK  Name = 11879562
REMARK  10 active torsions:
REMARK  status: ('A' for Active; 'I' for Inactive)
REMARK    1  A    between atoms: O_3  and  C_18
REMARK    2  A    between atoms: O_3  and  C_23
REMARK    3  A    between atoms: O_5  and  C_28
REMARK    4  A    between atoms: O_5  and  C_34
REMARK    5  A    between atoms: N_6  and  C_14
REMARK    6  A    between atoms: N_7  and  C_15
REMARK    7  A    between atoms: N_11  and  C_29
REMARK    8  A    between atoms: N_11  and  C_32
REMARK    9  A    between atoms: N_11  and  C_33
REMARK   10  A    between atoms: C_19  and  C_20
REMARK                            x       y       z     vdW  Elec       q    Type
REMARK                         _______ _______ _______ _____ _____    ______ ____
ROOT
ATOM      1  O   UNL     1      -4.813 -10.972  18.070  0.00  0.00    -0.370 OA
ATOM      2  O   UNL     1      -6.394 -12.103  15.598  0.00  0.00    -0.370 OA
ATOM     12  C   UNL     1      -5.373 -11.101  15.756  0.00  0.00    +0.176 C 
ATOM     13  C   UNL     1      -5.649 -10.383  17.062  0.00  0.00    +0.171 C 
ATOM     14  C   UNL     1      -4.025 -11.767  15.960  0.00  0.00    +0.171 C 
ATOM     15  C   UNL     1      -7.104 -10.678  17.352  0.00  0.00    +0.130 C 
ATOM     16  C   UNL     1      -3.965 -11.962  17.471  0.00  0.00    +0.190 C 
ATOM     17  C   UNL     1      -7.289 -12.044  16.717  0.00  0.00    +0.185 C 
ENDROOT
BRANCH  14   6
ATOM      6  N   UNL     1      -2.922 -10.989  15.390  0.00  0.00    -0.187 N 
ATOM      8  N   UNL     1      -2.062 -10.340  16.180  0.00  0.00    -0.041 NA
ATOM      9  N   UNL     1      -1.538 -10.033  14.035  0.00  0.00    -0.071 NA
ATOM     10  N   UNL     1      -1.213  -9.754  15.344  0.00  0.00    -0.020 NA
ATOM     18  C   UNL     1      -2.600 -10.801  14.089  0.00  0.00    +0.342 A 
BRANCH  18   3
ATOM      3  O   UNL     1      -3.259 -11.311  13.065  0.00  0.00    -0.423 OA
BRANCH   3  23
ATOM     23  C   UNL     1      -3.790 -10.525  12.052  0.00  0.00    +0.134 A 
ATOM     26  C   UNL     1      -5.148 -10.266  12.045  0.00  0.00    +0.069 A 
ATOM     27  C   UNL     1      -2.946 -10.025  11.080  0.00  0.00    +0.046 A 
ATOM     29  C   UNL     1      -5.680  -9.475  11.028  0.00  0.00    +0.033 A 
ATOM     30  C   UNL     1      -3.479  -9.234  10.062  0.00  0.00    +0.005 A 
ATOM     31  C   UNL     1      -4.846  -8.959  10.036  0.00  0.00    +0.023 A 
BRANCH  29  11
ATOM     11  N   UNL     1      -7.062  -9.196  11.002  0.00  0.00    -0.336 N 
ATOM     32  C   UNL     1      -7.903  -9.544  12.130  0.00  0.00    +0.129 C 
ATOM     33  C   UNL     1      -7.663  -8.570   9.841  0.00  0.00    +0.129 C 
ENDBRANCH  29  11
ENDBRANCH   3  23
ENDBRANCH  18   3
ENDBRANCH  14   6
BRANCH  15   7
ATOM      4  O   UNL     1      -9.762  -9.977  18.181  0.00  0.00    -0.270 OA
ATOM      7  N   UNL     1      -7.967  -9.696  16.740  0.00  0.00    -0.304 N 
ATOM     19  C   UNL     1      -9.243  -9.425  17.214  0.00  0.00    +0.244 C 
ATOM     35  H   UNL     1      -7.649  -9.286  15.868  0.00  0.00    +0.149 HD
BRANCH  19  20
ATOM     20  C   UNL     1     -10.015  -8.408  16.456  0.00  0.00    +0.037 A 
ATOM     21  C   UNL     1     -10.309  -8.644  15.130  0.00  0.00    +0.016 A 
ATOM     22  C   UNL     1     -10.411  -7.255  17.104  0.00  0.00    +0.016 A 
ATOM     24  C   UNL     1     -11.033  -7.687  14.420  0.00  0.00    +0.046 A 
ATOM     25  C   UNL     1     -11.136  -6.299  16.393  0.00  0.00    +0.046 A 
ATOM     28  C   UNL     1     -11.447  -6.515  15.051  0.00  0.00    +0.120 A 
BRANCH  28   5
ATOM      5  O   UNL     1     -12.152  -5.580  14.356  0.00  0.00    -0.495 OA
ATOM     34  C   UNL     1     -13.541  -5.834  14.150  0.00  0.00    +0.277 C 
ENDBRANCH  28   5
ENDBRANCH  19  20
ENDBRANCH  15   7
TORSDOF 7
ENDMDL
MODEL 4
REMARK VINA RESULT:      -6.9     27.737     29.920
REMARK  Name = 11879562
REMARK  10 active torsions:
REMARK  status: ('A' for Active; 'I' for Inactive)
REMARK    1  A    between atoms: O_3  and  C_18
REMARK    2  A    between atoms: O_3  and  C_23
REMARK    3  A    between atoms: O_5  and  C_28
REMARK    4  A    between atoms: O_5  and  C_34
REMARK    5  A    between atoms: N_6  and  C_14
REMARK    6  A    between atoms: N_7  and  C_15
REMARK    7  A    between atoms: N_11  and  C_29
REMARK    8  A    between atoms: N_11  and  C_32
REMARK    9  A    between atoms: N_11  and  C_33
REMARK   10  A    between atoms: C_19  and  C_20
REMARK                            x       y       z     vdW  Elec       q    Type
REMARK                         _______ _______ _______ _____ _____    ______ ____
ROOT
ATOM      1  O   UNL     1      -4.615 -12.952  17.429  0.00  0.00    -0.370 OA
ATOM      2  O   UNL     1      -3.953  -9.895  17.107  0.00  0.00    -0.370 OA
ATOM     12  C   UNL     1      -5.176 -10.646  17.213  0.00  0.00    +0.176 C 
ATOM     13  C   UNL     1      -4.969 -11.948  16.466  0.00  0.00    +0.171 C 
ATOM     14  C   UNL     1      -5.403 -11.060  18.655  0.00  0.00    +0.171 C 
ATOM     15  C   UNL     1      -3.801 -11.671  15.546  0.00  0.00    +0.130 C 
ATOM     16  C   UNL     1      -4.664 -12.391  18.748  0.00  0.00    +0.190 C 
ATOM     17  C   UNL     1      -3.006 -10.646  16.334  0.00  0.00    +0.185 C 
ENDROOT
BRANCH  14   6
ATOM      6  N   UNL     1      -6.824 -11.112  19.008  0.00  0.00    -0.187 N 
ATOM      8  N   UNL     1      -7.281 -12.021  19.875  0.00  0.00    -0.041 NA
ATOM      9  N   UNL     1      -8.946 -10.730  19.144  0.00  0.00    -0.071 NA
ATOM     10  N   UNL     1      -8.585 -11.782  19.956  0.00  0.00    -0.020 NA
ATOM     18  C   UNL     1      -7.837 -10.330  18.567  0.00  0.00    +0.342 A 
BRANCH  18   3
ATOM      3  O   UNL     1      -7.709  -9.342  17.702  0.00  0.00    -0.423 OA
BRANCH   3  23
ATOM     23  C   UNL     1      -8.496  -9.238  16.564  0.00  0.00    +0.134 A 
ATOM     26  C   UNL     1      -9.440  -8.231  16.489  0.00  0.00    +0.069 A 
ATOM     27  C   UNL     1      -8.311 -10.144  15.537  0.00  0.00    +0.046 A 
ATOM     29  C   UNL     1     -10.229  -8.127  15.344  0.00  0.00    +0.033 A 
ATOM     30  C   UNL     1      -9.101 -10.039  14.392  0.00  0.00    +0.005 A 
ATOM     31  C   UNL     1     -10.059  -9.031  14.295  0.00  0.00    +0.023 A 
BRANCH  29  11
ATOM     11  N   UNL     1     -11.198  -7.107  15.247  0.00  0.00    -0.336 N 
ATOM     32  C   UNL     1     -11.297  -6.087  16.271  0.00  0.00    +0.129 C 
ATOM     33  C   UNL     1     -12.118  -7.073  14.127  0.00  0.00    +0.129 C 
ENDBRANCH  29  11
ENDBRANCH   3  23
ENDBRANCH  18   3
ENDBRANCH  14   6
BRANCH  15   7
ATOM      4  O   UNL     1      -2.152 -10.962  13.305  0.00  0.00    -0.270 OA
ATOM      7  N   UNL     1      -4.247 -11.129  14.285  0.00  0.00    -0.304 N 
ATOM     19  C   UNL     1      -3.371 -10.816  13.256  0.00  0.00    +0.244 C 
ATOM     35  H   UNL     1      -5.227 -10.874  14.217  0.00  0.00    +0.149 HD
BRANCH  19  20
ATOM     20  C   UNL     1      -3.985 -10.242  12.032  0.00  0.00    +0.037 A 
ATOM     21  C   UNL     1      -5.337  -9.969  12.028  0.00  0.00    +0.016 A 
ATOM     22  C   UNL     1      -3.183 -10.002  10.934  0.00  0.00    +0.016 A 
ATOM     24  C   UNL     1      -5.913  -9.430  10.878  0.00  0.00    +0.046 A 
ATOM     25  C   UNL     1      -3.760  -9.463   9.784  0.00  0.00    +0.046 A 
ATOM     28  C   UNL     1      -5.124  -9.177   9.756  0.00  0.00    +0.120 A 
BRANCH  28   5
ATOM      5  O   UNL     1      -5.687  -8.654   8.632  0.00  0.00    -0.495 OA
ATOM     34  C   UNL     1      -7.072  -8.319   8.695  0.00  0.00    +0.277 C 
ENDBRANCH  28   5
ENDBRANCH  19  20
ENDBRANCH  15   7
TORSDOF 7
ENDMDL
MODEL 5
REMARK VINA RESULT:      -6.8     27.794     30.048
REMARK  Name = 11879562
REMARK  10 active torsions:
REMARK  status: ('A' for Active; 'I' for Inactive)
REMARK    1  A    between atoms: O_3  and  C_18
REMARK    2  A    between atoms: O_3  and  C_23
REMARK    3  A    between atoms: O_5  and  C_28
REMARK    4  A    between atoms: O_5  and  C_34
REMARK    5  A    between atoms: N_6  and  C_14
REMARK    6  A    between atoms: N_7  and  C_15
REMARK    7  A    between atoms: N_11  and  C_29
REMARK    8  A    between atoms: N_11  and  C_32
REMARK    9  A    between atoms: N_11  and  C_33
REMARK   10  A    between atoms: C_19  and  C_20
REMARK                            x       y       z     vdW  Elec       q    Type
REMARK                         _______ _______ _______ _____ _____    ______ ____
ROOT
ATOM      1  O   UNL     1      -4.681 -12.999  17.368  0.00  0.00    -0.370 OA
ATOM      2  O   UNL     1      -3.983  -9.943  17.118  0.00  0.00    -0.370 OA
ATOM     12  C   UNL     1      -5.214 -10.680  17.220  0.00  0.00    +0.176 C 
ATOM     13  C   UNL     1      -5.033 -11.965  16.436  0.00  0.00    +0.171 C 
ATOM     14  C   UNL     1      -5.428 -11.130  18.654  0.00  0.00    +0.171 C 
ATOM     15  C   UNL     1      -3.874 -11.678  15.509  0.00  0.00    +0.130 C 
ATOM     16  C   UNL     1      -4.706 -12.472  18.702  0.00  0.00    +0.190 C 
ATOM     17  C   UNL     1      -3.055 -10.684  16.313  0.00  0.00    +0.185 C 
ENDROOT
BRANCH  14   6
ATOM      6  N   UNL     1      -6.844 -11.173  19.024  0.00  0.00    -0.187 N 
ATOM      8  N   UNL     1      -7.305 -12.104  19.865  0.00  0.00    -0.041 NA
ATOM      9  N   UNL     1      -8.958 -10.764  19.201  0.00  0.00    -0.071 NA
ATOM     10  N   UNL     1      -8.604 -11.849  19.971  0.00  0.00    -0.020 NA
ATOM     18  C   UNL     1      -7.851 -10.361  18.623  0.00  0.00    +0.342 A 
BRANCH  18   3
ATOM      3  O   UNL     1      -7.719  -9.345  17.792  0.00  0.00    -0.423 OA
BRANCH   3  23
ATOM     23  C   UNL     1      -8.732  -8.948  16.930  0.00  0.00    +0.134 A 
ATOM     26  C   UNL     1      -8.808  -9.520  15.674  0.00  0.00    +0.069 A 
ATOM     27  C   UNL     1      -9.636  -7.993  17.354  0.00  0.00    +0.046 A 
ATOM     29  C   UNL     1      -9.827  -9.121  14.810  0.00  0.00    +0.033 A 
ATOM     30  C   UNL     1     -10.655  -7.594  16.489  0.00  0.00    +0.005 A 
ATOM     31  C   UNL     1     -10.751  -8.158  15.217  0.00  0.00    +0.023 A 
BRANCH  29  11
ATOM     11  N   UNL     1      -9.925  -9.692  13.524  0.00  0.00    -0.336 N 
ATOM     32  C   UNL     1     -10.999  -9.310  12.630  0.00  0.00    +0.129 C 
ATOM     33  C   UNL     1      -8.960 -10.680  13.084  0.00  0.00    +0.129 C 
ENDBRANCH  29  11
ENDBRANCH   3  23
ENDBRANCH  18   3
ENDBRANCH  14   6
BRANCH  15   7
ATOM      4  O   UNL     1      -2.247 -10.952  13.257  0.00  0.00    -0.270 OA
ATOM      7  N   UNL     1      -4.328 -11.097  14.269  0.00  0.00    -0.304 N 
ATOM     19  C   UNL     1      -3.463 -10.778  13.232  0.00  0.00    +0.244 C 
ATOM     35  H   UNL     1      -5.304 -10.819  14.223  0.00  0.00    +0.149 HD
BRANCH  19  20
ATOM     20  C   UNL     1      -4.084 -10.161  12.032  0.00  0.00    +0.037 A 
ATOM     21  C   UNL     1      -5.424  -9.835  12.068  0.00  0.00    +0.016 A 
ATOM     22  C   UNL     1      -3.301  -9.938  10.918  0.00  0.00    +0.016 A 
ATOM     24  C   UNL     1      -6.006  -9.257  10.940  0.00  0.00    +0.046 A 
ATOM     25  C   UNL     1      -3.885  -9.359   9.791  0.00  0.00    +0.046 A 
ATOM     28  C   UNL     1      -5.237  -9.019   9.802  0.00  0.00    +0.120 A 
BRANCH  28   5
ATOM      5  O   UNL     1      -5.807  -8.457   8.701  0.00  0.00    -0.495 OA
ATOM     34  C   UNL     1      -7.152  -7.997   8.828  0.00  0.00    +0.277 C 
ENDBRANCH  28   5
ENDBRANCH  19  20
ENDBRANCH  15   7
TORSDOF 7
ENDMDL
MODEL 6
REMARK VINA RESULT:      -6.8     14.251     17.044
REMARK  Name = 11879562
REMARK  10 active torsions:
REMARK  status: ('A' for Active; 'I' for Inactive)
REMARK    1  A    between atoms: O_3  and  C_18
REMARK    2  A    between atoms: O_3  and  C_23
REMARK    3  A    between atoms: O_5  and  C_28
REMARK    4  A    between atoms: O_5  and  C_34
REMARK    5  A    between atoms: N_6  and  C_14
REMARK    6  A    between atoms: N_7  and  C_15
REMARK    7  A    between atoms: N_11  and  C_29
REMARK    8  A    between atoms: N_11  and  C_32
REMARK    9  A    between atoms: N_11  and  C_33
REMARK   10  A    between atoms: C_19  and  C_20
REMARK                            x       y       z     vdW  Elec       q    Type
REMARK                         _______ _______ _______ _____ _____    ______ ____
ROOT
ATOM      1  O   UNL     1      12.312   9.052   7.137  0.00  0.00    -0.370 OA
ATOM      2  O   UNL     1      13.210   9.157   4.125  0.00  0.00    -0.370 OA
ATOM     12  C   UNL     1      12.870   8.090   5.028  0.00  0.00    +0.176 C 
ATOM     13  C   UNL     1      13.398   8.476   6.396  0.00  0.00    +0.171 C 
ATOM     14  C   UNL     1      11.364   8.023   5.202  0.00  0.00    +0.171 C 
ATOM     15  C   UNL     1      14.451   9.523   6.109  0.00  0.00    +0.130 C 
ATOM     16  C   UNL     1      11.109   8.983   6.358  0.00  0.00    +0.190 C 
ATOM     17  C   UNL     1      13.923  10.173   4.844  0.00  0.00    +0.185 C 
ENDROOT
BRANCH  14   6
ATOM      6  N   UNL     1      10.883   6.655   5.414  0.00  0.00    -0.187 N 
ATOM      8  N   UNL     1      10.587   6.215   6.641  0.00  0.00    -0.041 NA
ATOM      9  N   UNL     1      10.242   4.611   5.131  0.00  0.00    -0.071 NA
ATOM     10  N   UNL     1      10.193   4.960   6.462  0.00  0.00    -0.020 NA
ATOM     18  C   UNL     1      10.672   5.679   4.501  0.00  0.00    +0.342 A 
BRANCH  18   3
ATOM      3  O   UNL     1      10.874   5.800   3.202  0.00  0.00    -0.423 OA
BRANCH   3  23
ATOM     23  C   UNL     1      11.926   5.176   2.547  0.00  0.00    +0.134 A 
ATOM     26  C   UNL     1      13.035   5.921   2.192  0.00  0.00    +0.069 A 
ATOM     27  C   UNL     1      11.835   3.825   2.269  0.00  0.00    +0.046 A 
ATOM     29  C   UNL     1      14.091   5.292   1.536  0.00  0.00    +0.033 A 
ATOM     30  C   UNL     1      12.893   3.196   1.613  0.00  0.00    +0.005 A 
ATOM     31  C   UNL     1      14.021   3.929   1.246  0.00  0.00    +0.023 A 
BRANCH  29  11
ATOM     11  N   UNL     1      15.233   6.034   1.166  0.00  0.00    -0.336 N 
ATOM     32  C   UNL     1      15.606   7.224   1.903  0.00  0.00    +0.129 C 
ATOM     33  C   UNL     1      16.040   5.623   0.034  0.00  0.00    +0.129 C 
ENDBRANCH  29  11
ENDBRANCH   3  23
ENDBRANCH  18   3
ENDBRANCH  14   6
BRANCH  15   7
ATOM      4  O   UNL     1      17.008  10.808   6.333  0.00  0.00    -0.270 OA
ATOM      7  N   UNL     1      15.742   8.918   5.887  0.00  0.00    -0.304 N 
ATOM     19  C   UNL     1      16.929   9.623   6.019  0.00  0.00    +0.244 C 
ATOM     35  H   UNL     1      15.747   7.974   5.512  0.00  0.00    +0.149 HD
BRANCH  19  20
ATOM     20  C   UNL     1      18.172   8.864   5.728  0.00  0.00    +0.037 A 
ATOM     21  C   UNL     1      19.118   8.726   6.723  0.00  0.00    +0.016 A 
ATOM     22  C   UNL     1      18.343   8.323   4.470  0.00  0.00    +0.016 A 
ATOM     24  C   UNL     1      20.285   8.014   6.448  0.00  0.00    +0.046 A 
ATOM     25  C   UNL     1      19.511   7.611   4.197  0.00  0.00    +0.046 A 
ATOM     28  C   UNL     1      20.481   7.456   5.186  0.00  0.00    +0.120 A 
BRANCH  28   5
ATOM      5  O   UNL     1      21.622   6.763   4.917  0.00  0.00    -0.495 OA
ATOM     34  C   UNL     1      21.884   6.447   3.551  0.00  0.00    +0.277 C 
ENDBRANCH  28   5
ENDBRANCH  19  20
ENDBRANCH  15   7
TORSDOF 7
ENDMDL
MODEL 7
REMARK VINA RESULT:      -6.7     27.468     31.146
REMARK  Name = 11879562
REMARK  10 active torsions:
REMARK  status: ('A' for Active; 'I' for Inactive)
REMARK    1  A    between atoms: O_3  and  C_18
REMARK    2  A    between atoms: O_3  and  C_23
REMARK    3  A    between atoms: O_5  and  C_28
REMARK    4  A    between atoms: O_5  and  C_34
REMARK    5  A    between atoms: N_6  and  C_14
REMARK    6  A    between atoms: N_7  and  C_15
REMARK    7  A    between atoms: N_11  and  C_29
REMARK    8  A    between atoms: N_11  and  C_32
REMARK    9  A    between atoms: N_11  and  C_33
REMARK   10  A    between atoms: C_19  and  C_20
REMARK                            x       y       z     vdW  Elec       q    Type
REMARK                         _______ _______ _______ _____ _____    ______ ____
ROOT
ATOM      1  O   UNL     1     -15.384   4.315  22.790  0.00  0.00    -0.370 OA
ATOM      2  O   UNL     1     -18.016   4.647  24.478  0.00  0.00    -0.370 OA
ATOM     12  C   UNL     1     -16.857   5.473  24.264  0.00  0.00    +0.176 C 
ATOM     13  C   UNL     1     -15.659   4.549  24.180  0.00  0.00    +0.171 C 
ATOM     14  C   UNL     1     -16.937   6.126  22.896  0.00  0.00    +0.171 C 
ATOM     15  C   UNL     1     -16.122   3.272  24.844  0.00  0.00    +0.130 C 
ATOM     16  C   UNL     1     -16.279   5.095  21.986  0.00  0.00    +0.190 C 
ATOM     17  C   UNL     1     -17.610   3.273  24.542  0.00  0.00    +0.185 C 
ENDROOT
BRANCH  14   6
ATOM      6  N   UNL     1     -16.323   7.456  22.872  0.00  0.00    -0.187 N 
ATOM      8  N   UNL     1     -16.447   8.287  23.911  0.00  0.00    -0.041 NA
ATOM      9  N   UNL     1     -15.240   9.234  22.294  0.00  0.00    -0.071 NA
ATOM     10  N   UNL     1     -15.780   9.378  23.552  0.00  0.00    -0.020 NA
ATOM     18  C   UNL     1     -15.589   8.034  21.893  0.00  0.00    +0.342 A 
BRANCH  18   3
ATOM      3  O   UNL     1     -15.289   7.470  20.738  0.00  0.00    -0.423 OA
BRANCH   3  23
ATOM     23  C   UNL     1     -13.988   7.388  20.261  0.00  0.00    +0.134 A 
ATOM     26  C   UNL     1     -13.708   7.852  18.990  0.00  0.00    +0.069 A 
ATOM     27  C   UNL     1     -13.011   6.844  21.073  0.00  0.00    +0.046 A 
ATOM     29  C   UNL     1     -12.400   7.770  18.514  0.00  0.00    +0.033 A 
ATOM     30  C   UNL     1     -11.703   6.763  20.595  0.00  0.00    +0.005 A 
ATOM     31  C   UNL     1     -11.397   7.226  19.316  0.00  0.00    +0.023 A 
BRANCH  29  11
ATOM     11  N   UNL     1     -12.091   8.239  17.220  0.00  0.00    -0.336 N 
ATOM     32  C   UNL     1     -13.148   8.539  16.275  0.00  0.00    +0.129 C 
ATOM     33  C   UNL     1     -10.711   8.415  16.812  0.00  0.00    +0.129 C 
ENDBRANCH  29  11
ENDBRANCH   3  23
ENDBRANCH  18   3
ENDBRANCH  14   6
BRANCH  15   7
ATOM      4  O   UNL     1     -16.602   1.148  26.716  0.00  0.00    -0.270 OA
ATOM      7  N   UNL     1     -15.878   3.305  26.266  0.00  0.00    -0.304 N 
ATOM     19  C   UNL     1     -16.143   2.224  27.094  0.00  0.00    +0.244 C 
ATOM     35  H   UNL     1     -15.608   4.199  26.664  0.00  0.00    +0.149 HD
BRANCH  19  20
ATOM     20  C   UNL     1     -15.862   2.426  28.538  0.00  0.00    +0.037 A 
ATOM     21  C   UNL     1     -15.684   3.710  29.010  0.00  0.00    +0.016 A 
ATOM     22  C   UNL     1     -15.784   1.322  29.362  0.00  0.00    +0.016 A 
ATOM     24  C   UNL     1     -15.419   3.899  30.366  0.00  0.00    +0.046 A 
ATOM     25  C   UNL     1     -15.520   1.512  30.719  0.00  0.00    +0.046 A 
ATOM     28  C   UNL     1     -15.337   2.800  31.220  0.00  0.00    +0.120 A 
BRANCH  28   5
ATOM      5  O   UNL     1     -15.076   2.985  32.544  0.00  0.00    -0.495 OA
ATOM     34  C   UNL     1     -14.728   1.830  33.305  0.00  0.00    +0.277 C 
ENDBRANCH  28   5
ENDBRANCH  19  20
ENDBRANCH  15   7
TORSDOF 7
ENDMDL
MODEL 8
REMARK VINA RESULT:      -6.6     16.628     20.206
REMARK  Name = 11879562
REMARK  10 active torsions:
REMARK  status: ('A' for Active; 'I' for Inactive)
REMARK    1  A    between atoms: O_3  and  C_18
REMARK    2  A    between atoms: O_3  and  C_23
REMARK    3  A    between atoms: O_5  and  C_28
REMARK    4  A    between atoms: O_5  and  C_34
REMARK    5  A    between atoms: N_6  and  C_14
REMARK    6  A    between atoms: N_7  and  C_15
REMARK    7  A    between atoms: N_11  and  C_29
REMARK    8  A    between atoms: N_11  and  C_32
REMARK    9  A    between atoms: N_11  and  C_33
REMARK   10  A    between atoms: C_19  and  C_20
REMARK                            x       y       z     vdW  Elec       q    Type
REMARK                         _______ _______ _______ _____ _____    ______ ____
ROOT
ATOM      1  O   UNL     1       9.000   7.889   0.359  0.00  0.00    -0.370 OA
ATOM      2  O   UNL     1      11.864   7.526   1.607  0.00  0.00    -0.370 OA
ATOM     12  C   UNL     1      10.902   6.621   1.035  0.00  0.00    +0.176 C 
ATOM     13  C   UNL     1       9.527   7.111   1.444  0.00  0.00    +0.171 C 
ATOM     14  C   UNL     1      10.920   6.741  -0.478  0.00  0.00    +0.171 C 
ATOM     15  C   UNL     1       9.786   7.993   2.644  0.00  0.00    +0.130 C 
ATOM     16  C   UNL     1       9.917   7.858  -0.744  0.00  0.00    +0.190 C 
ATOM     17  C   UNL     1      11.172   8.538   2.352  0.00  0.00    +0.185 C 
ENDROOT
BRANCH  14   6
ATOM      6  N   UNL     1      10.625   5.470  -1.146  0.00  0.00    -0.187 N 
ATOM      8  N   UNL     1       9.933   5.441  -2.289  0.00  0.00    -0.041 NA
ATOM      9  N   UNL     1      10.494   3.376  -1.661  0.00  0.00    -0.071 NA
ATOM     10  N   UNL     1       9.855   4.153  -2.602  0.00  0.00    -0.020 NA
ATOM     18  C   UNL     1      10.964   4.215  -0.768  0.00  0.00    +0.342 A 
BRANCH  18   3
ATOM      3  O   UNL     1      11.649   3.910   0.318  0.00  0.00    -0.423 OA
BRANCH   3  23
ATOM     23  C   UNL     1      13.037   3.895   0.346  0.00  0.00    +0.134 A 
ATOM     26  C   UNL     1      13.736   4.248  -0.792  0.00  0.00    +0.069 A 
ATOM     27  C   UNL     1      13.679   3.529   1.514  0.00  0.00    +0.046 A 
ATOM     29  C   UNL     1      15.130   4.234  -0.761  0.00  0.00    +0.033 A 
ATOM     30  C   UNL     1      15.073   3.515   1.544  0.00  0.00    +0.005 A 
ATOM     31  C   UNL     1      15.799   3.868   0.407  0.00  0.00    +0.023 A 
BRANCH  29  11
ATOM     11  N   UNL     1      15.864   4.591  -1.912  0.00  0.00    -0.336 N 
ATOM     32  C   UNL     1      17.309   4.484  -1.923  0.00  0.00    +0.129 C 
ATOM     33  C   UNL     1      15.184   5.083  -3.093  0.00  0.00    +0.129 C 
ENDBRANCH  29  11
ENDBRANCH   3  23
ENDBRANCH  18   3
ENDBRANCH  14   6
BRANCH  15   7
ATOM      4  O   UNL     1       9.064   8.945   5.255  0.00  0.00    -0.270 OA
ATOM      7  N   UNL     1       9.773   7.227   3.867  0.00  0.00    -0.304 N 
ATOM     19  C   UNL     1       9.408   7.777   5.088  0.00  0.00    +0.244 C 
ATOM     35  H   UNL     1      10.155   6.288   3.824  0.00  0.00    +0.149 HD
BRANCH  19  20
ATOM     20  C   UNL     1       9.473   6.864   6.258  0.00  0.00    +0.037 A 
ATOM     21  C   UNL     1       9.072   7.332   7.492  0.00  0.00    +0.016 A 
ATOM     22  C   UNL     1       9.936   5.577   6.072  0.00  0.00    +0.016 A 
ATOM     24  C   UNL     1       9.134   6.474   8.589  0.00  0.00    +0.046 A 
ATOM     25  C   UNL     1       9.998   4.720   7.171  0.00  0.00    +0.046 A 
ATOM     28  C   UNL     1       9.597   5.168   8.429  0.00  0.00    +0.120 A 
BRANCH  28   5
ATOM      5  O   UNL     1       9.661   4.332   9.502  0.00  0.00    -0.495 OA
ATOM     34  C   UNL     1       8.719   4.548  10.551  0.00  0.00    +0.277 C 
ENDBRANCH  28   5
ENDBRANCH  19  20
ENDBRANCH  15   7
TORSDOF 7
ENDMDL
MODEL 9
REMARK VINA RESULT:      -6.6     28.198     30.869
REMARK  Name = 11879562
REMARK  10 active torsions:
REMARK  status: ('A' for Active; 'I' for Inactive)
REMARK    1  A    between atoms: O_3  and  C_18
REMARK    2  A    between atoms: O_3  and  C_23
REMARK    3  A    between atoms: O_5  and  C_28
REMARK    4  A    between atoms: O_5  and  C_34
REMARK    5  A    between atoms: N_6  and  C_14
REMARK    6  A    between atoms: N_7  and  C_15
REMARK    7  A    between atoms: N_11  and  C_29
REMARK    8  A    between atoms: N_11  and  C_32
REMARK    9  A    between atoms: N_11  and  C_33
REMARK   10  A    between atoms: C_19  and  C_20
REMARK                            x       y       z     vdW  Elec       q    Type
REMARK                         _______ _______ _______ _____ _____    ______ ____
ROOT
ATOM      1  O   UNL     1      -5.233 -10.767  18.889  0.00  0.00    -0.370 OA
ATOM      2  O   UNL     1      -7.097 -12.210  16.807  0.00  0.00    -0.370 OA
ATOM     12  C   UNL     1      -6.048 -11.231  16.697  0.00  0.00    +0.176 C 
ATOM     13  C   UNL     1      -6.165 -10.312  17.896  0.00  0.00    +0.171 C 
ATOM     14  C   UNL     1      -4.697 -11.904  16.858  0.00  0.00    +0.171 C 
ATOM     15  C   UNL     1      -7.584 -10.508  18.381  0.00  0.00    +0.130 C 
ATOM     16  C   UNL     1      -4.474 -11.866  18.366  0.00  0.00    +0.190 C 
ATOM     17  C   UNL     1      -7.862 -11.948  17.992  0.00  0.00    +0.185 C 
ENDROOT
BRANCH  14   6
ATOM      6  N   UNL     1      -3.651 -11.262  16.059  0.00  0.00    -0.187 N 
ATOM      8  N   UNL     1      -2.531 -10.811  16.632  0.00  0.00    -0.041 NA
ATOM      9  N   UNL     1      -2.495 -10.427  14.436  0.00  0.00    -0.071 NA
ATOM     10  N   UNL     1      -1.823 -10.299  15.631  0.00  0.00    -0.020 NA
ATOM     18  C   UNL     1      -3.625 -11.027  14.726  0.00  0.00    +0.342 A 
BRANCH  18   3
ATOM      3  O   UNL     1      -4.585 -11.354  13.881  0.00  0.00    -0.423 OA
BRANCH   3  23
ATOM     23  C   UNL     1      -4.332 -11.715  12.565  0.00  0.00    +0.134 A 
ATOM     26  C   UNL     1      -4.588 -10.805  11.557  0.00  0.00    +0.069 A 
ATOM     27  C   UNL     1      -3.830 -12.975  12.301  0.00  0.00    +0.046 A 
ATOM     29  C   UNL     1      -4.332 -11.169  10.236  0.00  0.00    +0.033 A 
ATOM     30  C   UNL     1      -3.573 -13.338  10.979  0.00  0.00    +0.005 A 
ATOM     31  C   UNL     1      -3.824 -12.435   9.946  0.00  0.00    +0.023 A 
BRANCH  29  11
ATOM     11  N   UNL     1      -4.585 -10.255   9.191  0.00  0.00    -0.336 N 
ATOM     32  C   UNL     1      -4.044  -8.912   9.243  0.00  0.00    +0.129 C 
ATOM     33  C   UNL     1      -5.401 -10.643   8.058  0.00  0.00    +0.129 C 
ENDBRANCH  29  11
ENDBRANCH   3  23
ENDBRANCH  18   3
ENDBRANCH  14   6
BRANCH  15   7
ATOM      4  O   UNL     1     -10.356 -10.098  19.007  0.00  0.00    -0.270 OA
ATOM      7  N   UNL     1      -8.492  -9.603  17.719  0.00  0.00    -0.304 N 
ATOM     19  C   UNL     1      -9.822  -9.474  18.094  0.00  0.00    +0.244 C 
ATOM     35  H   UNL     1      -8.150  -9.141  16.882  0.00  0.00    +0.149 HD
BRANCH  19  20
ATOM     20  C   UNL     1     -10.633  -8.520  17.294  0.00  0.00    +0.037 A 
ATOM     21  C   UNL     1     -10.012  -7.422  16.735  0.00  0.00    +0.016 A 
ATOM     22  C   UNL     1     -11.983  -8.761  17.139  0.00  0.00    +0.016 A 
ATOM     24  C   UNL     1     -10.775  -6.527  15.985  0.00  0.00    +0.046 A 
ATOM     25  C   UNL     1     -12.744  -7.865  16.389  0.00  0.00    +0.046 A 
ATOM     28  C   UNL     1     -12.140  -6.748  15.812  0.00  0.00    +0.120 A 
BRANCH  28   5
ATOM      5  O   UNL     1     -12.885  -5.873  15.082  0.00  0.00    -0.495 OA
ATOM     34  C   UNL     1     -12.276  -5.313  13.920  0.00  0.00    +0.277 C 
ENDBRANCH  28   5
ENDBRANCH  19  20
ENDBRANCH  15   7
TORSDOF 7
ENDMDL
MODEL 10
REMARK VINA RESULT:      -6.4     15.103     17.892
REMARK  Name = 11879562
REMARK  10 active torsions:
REMARK  status: ('A' for Active; 'I' for Inactive)
REMARK    1  A    between atoms: O_3  and  C_18
REMARK    2  A    between atoms: O_3  and  C_23
REMARK    3  A    between atoms: O_5  and  C_28
REMARK    4  A    between atoms: O_5  and  C_34
REMARK    5  A    between atoms: N_6  and  C_14
REMARK    6  A    between atoms: N_7  and  C_15
REMARK    7  A    between atoms: N_11  and  C_29
REMARK    8  A    between atoms: N_11  and  C_32
REMARK    9  A    between atoms: N_11  and  C_33
REMARK   10  A    between atoms: C_19  and  C_20
REMARK                            x       y       z     vdW  Elec       q    Type
REMARK                         _______ _______ _______ _____ _____    ______ ____
ROOT
ATOM      1  O   UNL     1      12.413   8.529   6.974  0.00  0.00    -0.370 OA
ATOM      2  O   UNL     1      13.472   9.257   4.104  0.00  0.00    -0.370 OA
ATOM     12  C   UNL     1      13.100   8.025   4.748  0.00  0.00    +0.176 C 
ATOM     13  C   UNL     1      13.547   8.122   6.193  0.00  0.00    +0.171 C 
ATOM     14  C   UNL     1      11.588   7.918   4.818  0.00  0.00    +0.171 C 
ATOM     15  C   UNL     1      14.597   9.210   6.188  0.00  0.00    +0.130 C 
ATOM     16  C   UNL     1      11.256   8.618   6.131  0.00  0.00    +0.190 C 
ATOM     17  C   UNL     1      14.129  10.106   5.056  0.00  0.00    +0.185 C 
ENDROOT
BRANCH  14   6
ATOM      6  N   UNL     1      11.118   6.534   4.717  0.00  0.00    -0.187 N 
ATOM      8  N   UNL     1      10.624   5.898   5.784  0.00  0.00    -0.041 NA
ATOM      9  N   UNL     1      10.595   4.565   3.996  0.00  0.00    -0.071 NA
ATOM     10  N   UNL     1      10.304   4.689   5.336  0.00  0.00    -0.020 NA
ATOM     18  C   UNL     1      11.098   5.722   3.634  0.00  0.00    +0.342 A 
BRANCH  18   3
ATOM      3  O   UNL     1      11.520   6.056   2.429  0.00  0.00    -0.423 OA
BRANCH   3  23
ATOM     23  C   UNL     1      12.000   5.124   1.520  0.00  0.00    +0.134 A 
ATOM     26  C   UNL     1      11.288   4.888   0.359  0.00  0.00    +0.069 A 
ATOM     27  C   UNL     1      13.178   4.459   1.802  0.00  0.00    +0.046 A 
ATOM     29  C   UNL     1      11.773   3.953  -0.553  0.00  0.00    +0.033 A 
ATOM     30  C   UNL     1      13.663   3.523   0.888  0.00  0.00    +0.005 A 
ATOM     31  C   UNL     1      12.961   3.270  -0.290  0.00  0.00    +0.023 A 
BRANCH  29  11
ATOM     11  N   UNL     1      11.063   3.697  -1.745  0.00  0.00    -0.336 N 
ATOM     32  C   UNL     1      11.277   2.465  -2.478  0.00  0.00    +0.129 C 
ATOM     33  C   UNL     1      10.120   4.669  -2.261  0.00  0.00    +0.129 C 
ENDBRANCH  29  11
ENDBRANCH   3  23
ENDBRANCH  18   3
ENDBRANCH  14   6
BRANCH  15   7
ATOM      4  O   UNL     1      17.109  10.566   6.498  0.00  0.00    -0.270 OA
ATOM      7  N   UNL     1      15.908   8.669   5.919  0.00  0.00    -0.304 N 
ATOM     19  C   UNL     1      17.070   9.404   6.099  0.00  0.00    +0.244 C 
ATOM     35  H   UNL     1      15.945   7.755   5.477  0.00  0.00    +0.149 HD
BRANCH  19  20
ATOM     20  C   UNL     1      18.338   8.713   5.751  0.00  0.00    +0.037 A 
ATOM     21  C   UNL     1      18.486   8.189   4.483  0.00  0.00    +0.016 A 
ATOM     22  C   UNL     1      19.326   8.613   6.709  0.00  0.00    +0.016 A 
ATOM     24  C   UNL     1      19.676   7.539   4.158  0.00  0.00    +0.046 A 
ATOM     25  C   UNL     1      20.517   7.963   6.382  0.00  0.00    +0.046 A 
ATOM     28  C   UNL     1      20.691   7.426   5.107  0.00  0.00    +0.120 A 
BRANCH  28   5
ATOM      5  O   UNL     1      21.852   6.789   4.790  0.00  0.00    -0.495 OA
ATOM     34  C   UNL     1      22.005   6.351   3.440  0.00  0.00    +0.277 C 
ENDBRANCH  28   5
ENDBRANCH  19  20
ENDBRANCH  15   7
TORSDOF 7
ENDMDL
