MODEL 1
REMARK VINA RESULT:      -6.1      0.000      0.000
REMARK  Name = 75536532
REMARK  7 active torsions:
REMARK  status: ('A' for Active; 'I' for Inactive)
REMARK    1  A    between atoms: O_2  and  C_8
REMARK    2  A    between atoms: N_4  and  C_7
REMARK    3  A    between atoms: N_4  and  C_15
REMARK    4  A    between atoms: N_4  and  C_16
REMARK    5  A    between atoms: N_5  and  C_13
REMARK    6  A    between atoms: C_6  and  C_14
REMARK    7  A    between atoms: C_9  and  C_13
REMARK                            x       y       z     vdW  Elec       q    Type
REMARK                         _______ _______ _______ _____ _____    ______ ____
ROOT
ATOM      1  O   UNL     1      -4.696   3.147  25.752  0.00  0.00    -0.371 OA
ATOM      7  C   UNL     1      -2.693   3.599  24.557  0.00  0.00    +0.113 C 
ATOM      8  C   UNL     1      -3.116   2.165  24.292  0.00  0.00    +0.164 C 
ATOM      9  C   UNL     1      -4.593   2.223  24.657  0.00  0.00    +0.165 C 
ATOM     12  C   UNL     1      -3.482   3.915  25.818  0.00  0.00    +0.181 C 
ENDROOT
BRANCH   7   4
ATOM      4  N   UNL     1      -1.259   3.761  24.732  0.00  0.00    -0.301 NA
ATOM     15  C   UNL     1      -0.767   2.909  25.818  0.00  0.00    +0.105 C 
ATOM     16  C   UNL     1      -0.922   5.161  25.000  0.00  0.00    +0.105 C 
ENDBRANCH   7   4
BRANCH   8   2
ATOM      2  O   UNL     1      -2.919   1.779  22.946  0.00  0.00    -0.388 OA
ATOM     18  H   UNL     1      -2.839   0.811  22.914  0.00  0.00    +0.210 HD
ENDBRANCH   8   2
BRANCH   9  13
ATOM     13  C   UNL     1      -5.162   0.876  25.066  0.00  0.00    +0.138 C 
BRANCH  13   5
ATOM      3  O   UNL     1      -4.498  -1.629  23.746  0.00  0.00    -0.276 OA
ATOM      5  N   UNL     1      -4.122  -0.047  25.414  0.00  0.00    -0.313 N 
ATOM     14  C   UNL     1      -3.878  -1.225  24.721  0.00  0.00    +0.216 C 
ATOM     17  H   UNL     1      -3.527   0.189  26.203  0.00  0.00    +0.149 HD
BRANCH  14   6
ATOM      6  C   UNL     1      -2.743  -2.032  25.259  0.00  0.00    +0.075 C 
ATOM     10  C   UNL     1      -1.378  -1.428  25.258  0.00  0.00    +0.013 C 
ATOM     11  C   UNL     1      -1.712  -2.536  24.305  0.00  0.00    +0.013 C 
ENDBRANCH  14   6
ENDBRANCH  13   5
ENDBRANCH   9  13
TORSDOF 5
ENDMDL
MODEL 2
REMARK VINA RESULT:      -5.4     16.138     17.868
REMARK  Name = 75536532
REMARK  7 active torsions:
REMARK  status: ('A' for Active; 'I' for Inactive)
REMARK    1  A    between atoms: O_2  and  C_8
REMARK    2  A    between atoms: N_4  and  C_7
REMARK    3  A    between atoms: N_4  and  C_15
REMARK    4  A    between atoms: N_4  and  C_16
REMARK    5  A    between atoms: N_5  and  C_13
REMARK    6  A    between atoms: C_6  and  C_14
REMARK    7  A    between atoms: C_9  and  C_13
REMARK                            x       y       z     vdW  Elec       q    Type
REMARK                         _______ _______ _______ _____ _____    ______ ____
ROOT
ATOM      1  O   UNL     1      11.649  10.344  20.822  0.00  0.00    -0.371 OA
ATOM      7  C   UNL     1      11.474   8.230  19.754  0.00  0.00    +0.113 C 
ATOM      8  C   UNL     1      11.116   8.075  21.222  0.00  0.00    +0.164 C 
ATOM      9  C   UNL     1      10.766   9.510  21.591  0.00  0.00    +0.165 C 
ATOM     12  C   UNL     1      12.222   9.554  19.766  0.00  0.00    +0.181 C 
ENDROOT
BRANCH   7   4
ATOM      4  N   UNL     1      12.273   7.134  19.231  0.00  0.00    -0.301 NA
ATOM     15  C   UNL     1      13.409   6.851  20.112  0.00  0.00    +0.105 C 
ATOM     16  C   UNL     1      12.748   7.436  17.878  0.00  0.00    +0.105 C 
ENDBRANCH   7   4
BRANCH   8   2
ATOM      2  O   UNL     1      10.027   7.197  21.427  0.00  0.00    -0.388 OA
ATOM     18  H   UNL     1      10.259   6.584  22.145  0.00  0.00    +0.210 HD
ENDBRANCH   8   2
BRANCH   9  13
ATOM     13  C   UNL     1      10.937   9.807  23.070  0.00  0.00    +0.138 C 
BRANCH  13   5
ATOM      3  O   UNL     1      11.559  11.330  25.468  0.00  0.00    -0.276 OA
ATOM      5  N   UNL     1      10.534  11.147  23.384  0.00  0.00    -0.313 N 
ATOM     14  C   UNL     1      10.881  11.796  24.561  0.00  0.00    +0.216 C 
ATOM     17  H   UNL     1       9.977  11.646  22.696  0.00  0.00    +0.149 HD
BRANCH  14   6
ATOM      6  C   UNL     1      10.354  13.187  24.676  0.00  0.00    +0.075 C 
ATOM     10  C   UNL     1      11.324  14.321  24.642  0.00  0.00    +0.013 C 
ATOM     11  C   UNL     1      10.636  13.957  25.923  0.00  0.00    +0.013 C 
ENDBRANCH  14   6
ENDBRANCH  13   5
ENDBRANCH   9  13
TORSDOF 5
ENDMDL
MODEL 3
REMARK VINA RESULT:      -5.3     16.010     17.884
REMARK  Name = 75536532
REMARK  7 active torsions:
REMARK  status: ('A' for Active; 'I' for Inactive)
REMARK    1  A    between atoms: O_2  and  C_8
REMARK    2  A    between atoms: N_4  and  C_7
REMARK    3  A    between atoms: N_4  and  C_15
REMARK    4  A    between atoms: N_4  and  C_16
REMARK    5  A    between atoms: N_5  and  C_13
REMARK    6  A    between atoms: C_6  and  C_14
REMARK    7  A    between atoms: C_9  and  C_13
REMARK                            x       y       z     vdW  Elec       q    Type
REMARK                         _______ _______ _______ _____ _____    ______ ____
ROOT
ATOM      1  O   UNL     1      13.358   7.872  21.565  0.00  0.00    -0.371 OA
ATOM      7  C   UNL     1      11.538   9.064  22.516  0.00  0.00    +0.113 C 
ATOM      8  C   UNL     1      11.005   8.094  21.478  0.00  0.00    +0.164 C 
ATOM      9  C   UNL     1      12.158   7.102  21.386  0.00  0.00    +0.165 C 
ATOM     12  C   UNL     1      13.005   9.149  22.124  0.00  0.00    +0.181 C 
ENDROOT
BRANCH   7   4
ATOM      4  N   UNL     1      10.873  10.358  22.501  0.00  0.00    -0.301 NA
ATOM     15  C   UNL     1      11.532  11.269  21.561  0.00  0.00    +0.105 C 
ATOM     16  C   UNL     1      10.851  10.948  23.841  0.00  0.00    +0.105 C 
ENDBRANCH   7   4
BRANCH   8   2
ATOM      2  O   UNL     1       9.803   7.469  21.882  0.00  0.00    -0.388 OA
ATOM     18  H   UNL     1       9.882   7.232  22.822  0.00  0.00    +0.210 HD
ENDBRANCH   8   2
BRANCH   9  13
ATOM     13  C   UNL     1      12.211   6.368  20.058  0.00  0.00    +0.138 C 
BRANCH  13   5
ATOM      3  O   UNL     1      11.706   7.446  17.405  0.00  0.00    -0.276 OA
ATOM      5  N   UNL     1      13.156   6.972  19.165  0.00  0.00    -0.313 N 
ATOM     14  C   UNL     1      12.821   7.461  17.909  0.00  0.00    +0.216 C 
ATOM     17  H   UNL     1      14.118   7.056  19.482  0.00  0.00    +0.149 HD
BRANCH  14   6
ATOM      6  C   UNL     1      13.965   8.050  17.152  0.00  0.00    +0.075 C 
ATOM     10  C   UNL     1      14.241   9.509  17.300  0.00  0.00    +0.013 C 
ATOM     11  C   UNL     1      13.669   8.977  16.021  0.00  0.00    +0.013 C 
ENDBRANCH  14   6
ENDBRANCH  13   5
ENDBRANCH   9  13
TORSDOF 5
ENDMDL
MODEL 4
REMARK VINA RESULT:      -5.2      2.031      5.693
REMARK  Name = 75536532
REMARK  7 active torsions:
REMARK  status: ('A' for Active; 'I' for Inactive)
REMARK    1  A    between atoms: O_2  and  C_8
REMARK    2  A    between atoms: N_4  and  C_7
REMARK    3  A    between atoms: N_4  and  C_15
REMARK    4  A    between atoms: N_4  and  C_16
REMARK    5  A    between atoms: N_5  and  C_13
REMARK    6  A    between atoms: C_6  and  C_14
REMARK    7  A    between atoms: C_9  and  C_13
REMARK                            x       y       z     vdW  Elec       q    Type
REMARK                         _______ _______ _______ _____ _____    ______ ____
ROOT
ATOM      1  O   UNL     1       0.202  -0.597  24.578  0.00  0.00    -0.371 OA
ATOM      7  C   UNL     1      -2.029  -1.313  24.188  0.00  0.00    +0.113 C 
ATOM      8  C   UNL     1      -2.016   0.196  24.358  0.00  0.00    +0.164 C 
ATOM      9  C   UNL     1      -0.555   0.511  24.062  0.00  0.00    +0.165 C 
ATOM     12  C   UNL     1      -0.695  -1.696  24.810  0.00  0.00    +0.181 C 
ENDROOT
BRANCH   7   4
ATOM      4  N   UNL     1      -3.160  -1.961  24.832  0.00  0.00    -0.301 NA
ATOM     15  C   UNL     1      -4.254  -2.166  23.878  0.00  0.00    +0.105 C 
ATOM     16  C   UNL     1      -3.630  -1.175  25.975  0.00  0.00    +0.105 C 
ENDBRANCH   7   4
BRANCH   8   2
ATOM      2  O   UNL     1      -2.889   0.852  23.461  0.00  0.00    -0.388 OA
ATOM     18  H   UNL     1      -2.761   1.812  23.555  0.00  0.00    +0.210 HD
ENDBRANCH   8   2
BRANCH   9  13
ATOM     13  C   UNL     1      -0.079   1.802  24.702  0.00  0.00    +0.138 C 
BRANCH  13   5
ATOM      3  O   UNL     1      -0.308   4.696  24.532  0.00  0.00    -0.276 OA
ATOM      5  N   UNL     1      -1.183   2.618  25.117  0.00  0.00    -0.313 N 
ATOM     14  C   UNL     1      -1.203   4.001  24.996  0.00  0.00    +0.216 C 
ATOM     17  H   UNL     1      -1.997   2.149  25.505  0.00  0.00    +0.149 HD
BRANCH  14   6
ATOM      6  C   UNL     1      -2.456   4.644  25.490  0.00  0.00    +0.075 C 
ATOM     10  C   UNL     1      -3.215   3.974  26.587  0.00  0.00    +0.013 C 
ATOM     11  C   UNL     1      -3.762   3.986  25.191  0.00  0.00    +0.013 C 
ENDBRANCH  14   6
ENDBRANCH  13   5
ENDBRANCH   9  13
TORSDOF 5
ENDMDL
MODEL 5
REMARK VINA RESULT:      -5.1     16.297     18.351
REMARK  Name = 75536532
REMARK  7 active torsions:
REMARK  status: ('A' for Active; 'I' for Inactive)
REMARK    1  A    between atoms: O_2  and  C_8
REMARK    2  A    between atoms: N_4  and  C_7
REMARK    3  A    between atoms: N_4  and  C_15
REMARK    4  A    between atoms: N_4  and  C_16
REMARK    5  A    between atoms: N_5  and  C_13
REMARK    6  A    between atoms: C_6  and  C_14
REMARK    7  A    between atoms: C_9  and  C_13
REMARK                            x       y       z     vdW  Elec       q    Type
REMARK                         _______ _______ _______ _____ _____    ______ ____
ROOT
ATOM      1  O   UNL     1      11.547   7.061  20.583  0.00  0.00    -0.371 OA
ATOM      7  C   UNL     1      13.901   7.373  20.638  0.00  0.00    +0.113 C 
ATOM      8  C   UNL     1      13.238   8.465  21.458  0.00  0.00    +0.164 C 
ATOM      9  C   UNL     1      11.884   7.831  21.750  0.00  0.00    +0.165 C 
ATOM     12  C   UNL     1      12.736   6.882  19.794  0.00  0.00    +0.181 C 
ENDROOT
BRANCH   7   4
ATOM      4  N   UNL     1      15.020   7.844  19.838  0.00  0.00    -0.301 NA
ATOM     15  C   UNL     1      14.658   9.057  19.099  0.00  0.00    +0.105 C 
ATOM     16  C   UNL     1      15.469   6.805  18.908  0.00  0.00    +0.105 C 
ENDBRANCH   7   4
BRANCH   8   2
ATOM      2  O   UNL     1      13.947   8.763  22.644  0.00  0.00    -0.388 OA
ATOM     18  H   UNL     1      14.280   7.930  23.019  0.00  0.00    +0.210 HD
ENDBRANCH   8   2
BRANCH   9  13
ATOM     13  C   UNL     1      10.793   8.849  22.026  0.00  0.00    +0.138 C 
BRANCH  13   5
ATOM      3  O   UNL     1      11.031  11.688  22.612  0.00  0.00    -0.276 OA
ATOM      5  N   UNL     1      10.967   9.466  23.309  0.00  0.00    -0.313 N 
ATOM     14  C   UNL     1      11.071  10.838  23.493  0.00  0.00    +0.216 C 
ATOM     17  H   UNL     1      11.000   8.859  24.124  0.00  0.00    +0.149 HD
BRANCH  14   6
ATOM      6  C   UNL     1      11.245  11.257  24.915  0.00  0.00    +0.075 C 
ATOM     10  C   UNL     1      10.780  12.617  25.317  0.00  0.00    +0.013 C 
ATOM     11  C   UNL     1      12.247  12.319  25.227  0.00  0.00    +0.013 C 
ENDBRANCH  14   6
ENDBRANCH  13   5
ENDBRANCH   9  13
TORSDOF 5
ENDMDL
MODEL 6
REMARK VINA RESULT:      -5.1     17.345     19.244
REMARK  Name = 75536532
REMARK  7 active torsions:
REMARK  status: ('A' for Active; 'I' for Inactive)
REMARK    1  A    between atoms: O_2  and  C_8
REMARK    2  A    between atoms: N_4  and  C_7
REMARK    3  A    between atoms: N_4  and  C_15
REMARK    4  A    between atoms: N_4  and  C_16
REMARK    5  A    between atoms: N_5  and  C_13
REMARK    6  A    between atoms: C_6  and  C_14
REMARK    7  A    between atoms: C_9  and  C_13
REMARK                            x       y       z     vdW  Elec       q    Type
REMARK                         _______ _______ _______ _____ _____    ______ ____
ROOT
ATOM      1  O   UNL     1      12.684   9.601  19.257  0.00  0.00    -0.371 OA
ATOM      7  C   UNL     1      12.412   9.500  16.900  0.00  0.00    +0.113 C 
ATOM      8  C   UNL     1      12.105   8.137  17.492  0.00  0.00    +0.164 C 
ATOM      9  C   UNL     1      11.807   8.506  18.939  0.00  0.00    +0.165 C 
ATOM     12  C   UNL     1      13.196  10.149  18.030  0.00  0.00    +0.181 C 
ENDROOT
BRANCH   7   4
ATOM      4  N   UNL     1      13.161   9.439  15.655  0.00  0.00    -0.301 NA
ATOM     15  C   UNL     1      14.274   8.491  15.763  0.00  0.00    +0.105 C 
ATOM     16  C   UNL     1      13.665  10.764  15.285  0.00  0.00    +0.105 C 
ENDBRANCH   7   4
BRANCH   8   2
ATOM      2  O   UNL     1      11.001   7.509  16.870  0.00  0.00    -0.388 OA
ATOM     18  H   UNL     1      10.352   8.194  16.634  0.00  0.00    +0.210 HD
ENDBRANCH   8   2
BRANCH   9  13
ATOM     13  C   UNL     1      12.041   7.363  19.910  0.00  0.00    +0.138 C 
BRANCH  13   5
ATOM      3  O   UNL     1      14.254   7.538  21.788  0.00  0.00    -0.276 OA
ATOM      5  N   UNL     1      13.357   6.814  19.764  0.00  0.00    -0.313 N 
ATOM     14  C   UNL     1      14.355   6.949  20.719  0.00  0.00    +0.216 C 
ATOM     17  H   UNL     1      13.558   6.286  18.919  0.00  0.00    +0.149 HD
BRANCH  14   6
ATOM      6  C   UNL     1      15.647   6.296  20.358  0.00  0.00    +0.075 C 
ATOM     10  C   UNL     1      16.837   6.542  21.225  0.00  0.00    +0.013 C 
ATOM     11  C   UNL     1      16.763   7.151  19.857  0.00  0.00    +0.013 C 
ENDBRANCH  14   6
ENDBRANCH  13   5
ENDBRANCH   9  13
TORSDOF 5
ENDMDL
MODEL 7
REMARK VINA RESULT:      -5.1      1.805      4.864
REMARK  Name = 75536532
REMARK  7 active torsions:
REMARK  status: ('A' for Active; 'I' for Inactive)
REMARK    1  A    between atoms: O_2  and  C_8
REMARK    2  A    between atoms: N_4  and  C_7
REMARK    3  A    between atoms: N_4  and  C_15
REMARK    4  A    between atoms: N_4  and  C_16
REMARK    5  A    between atoms: N_5  and  C_13
REMARK    6  A    between atoms: C_6  and  C_14
REMARK    7  A    between atoms: C_9  and  C_13
REMARK                            x       y       z     vdW  Elec       q    Type
REMARK                         _______ _______ _______ _____ _____    ______ ____
ROOT
ATOM      1  O   UNL     1      -0.588   1.432  26.035  0.00  0.00    -0.371 OA
ATOM      7  C   UNL     1      -1.465  -0.049  24.398  0.00  0.00    +0.113 C 
ATOM      8  C   UNL     1      -2.153   1.298  24.267  0.00  0.00    +0.164 C 
ATOM      9  C   UNL     1      -1.150   2.208  24.964  0.00  0.00    +0.165 C 
ATOM     12  C   UNL     1      -0.887   0.045  25.802  0.00  0.00    +0.181 C 
ENDROOT
BRANCH   7   4
ATOM      4  N   UNL     1      -2.362  -1.181  24.231  0.00  0.00    -0.301 NA
ATOM     15  C   UNL     1      -3.577  -1.005  25.032  0.00  0.00    +0.105 C 
ATOM     16  C   UNL     1      -1.695  -2.433  24.597  0.00  0.00    +0.105 C 
ENDBRANCH   7   4
BRANCH   8   2
ATOM      2  O   UNL     1      -2.359   1.675  22.920  0.00  0.00    -0.388 OA
ATOM     18  H   UNL     1      -3.074   1.127  22.554  0.00  0.00    +0.210 HD
ENDBRANCH   8   2
BRANCH   9  13
ATOM     13  C   UNL     1      -1.777   3.474  25.520  0.00  0.00    +0.138 C 
BRANCH  13   5
ATOM      3  O   UNL     1      -4.035   4.103  23.799  0.00  0.00    -0.276 OA
ATOM      5  N   UNL     1      -3.170   3.287  25.802  0.00  0.00    -0.313 N 
ATOM     14  C   UNL     1      -4.184   3.619  24.913  0.00  0.00    +0.216 C 
ATOM     17  H   UNL     1      -3.419   2.875  26.697  0.00  0.00    +0.149 HD
BRANCH  14   6
ATOM      6  C   UNL     1      -5.560   3.336  25.416  0.00  0.00    +0.075 C 
ATOM     10  C   UNL     1      -5.756   2.186  26.347  0.00  0.00    +0.013 C 
ATOM     11  C   UNL     1      -6.256   2.106  24.936  0.00  0.00    +0.013 C 
ENDBRANCH  14   6
ENDBRANCH  13   5
ENDBRANCH   9  13
TORSDOF 5
ENDMDL
MODEL 8
REMARK VINA RESULT:      -4.9     17.660     20.110
REMARK  Name = 75536532
REMARK  7 active torsions:
REMARK  status: ('A' for Active; 'I' for Inactive)
REMARK    1  A    between atoms: O_2  and  C_8
REMARK    2  A    between atoms: N_4  and  C_7
REMARK    3  A    between atoms: N_4  and  C_15
REMARK    4  A    between atoms: N_4  and  C_16
REMARK    5  A    between atoms: N_5  and  C_13
REMARK    6  A    between atoms: C_6  and  C_14
REMARK    7  A    between atoms: C_9  and  C_13
REMARK                            x       y       z     vdW  Elec       q    Type
REMARK                         _______ _______ _______ _____ _____    ______ ____
ROOT
ATOM      1  O   UNL     1      16.508   5.820  18.816  0.00  0.00    -0.371 OA
ATOM      7  C   UNL     1      17.737   6.518  20.725  0.00  0.00    +0.113 C 
ATOM      8  C   UNL     1      16.551   7.446  20.533  0.00  0.00    +0.164 C 
ATOM      9  C   UNL     1      15.640   6.582  19.672  0.00  0.00    +0.165 C 
ATOM     12  C   UNL     1      17.842   5.877  19.350  0.00  0.00    +0.181 C 
ENDROOT
BRANCH   7   4
ATOM      4  N   UNL     1      18.955   7.205  21.123  0.00  0.00    -0.301 NA
ATOM     15  C   UNL     1      19.471   6.661  22.383  0.00  0.00    +0.105 C 
ATOM     16  C   UNL     1      18.721   8.645  21.257  0.00  0.00    +0.105 C 
ENDBRANCH   7   4
BRANCH   8   2
ATOM      2  O   UNL     1      15.936   7.805  21.755  0.00  0.00    -0.388 OA
ATOM     18  H   UNL     1      15.076   8.213  21.557  0.00  0.00    +0.210 HD
ENDBRANCH   8   2
BRANCH   9  13
ATOM     13  C   UNL     1      14.669   7.390  18.829  0.00  0.00    +0.138 C 
BRANCH  13   5
ATOM      3  O   UNL     1      11.993   6.348  19.292  0.00  0.00    -0.276 OA
ATOM      5  N   UNL     1      13.633   7.967  19.635  0.00  0.00    -0.313 N 
ATOM     14  C   UNL     1      12.379   7.394  19.798  0.00  0.00    +0.216 C 
ATOM     17  H   UNL     1      13.841   8.834  20.122  0.00  0.00    +0.149 HD
BRANCH  14   6
ATOM      6  C   UNL     1      11.459   8.167  20.683  0.00  0.00    +0.075 C 
ATOM     10  C   UNL     1      11.791   8.274  22.135  0.00  0.00    +0.013 C 
ATOM     11  C   UNL     1      10.641   7.423  21.686  0.00  0.00    +0.013 C 
ENDBRANCH  14   6
ENDBRANCH  13   5
ENDBRANCH   9  13
TORSDOF 5
ENDMDL
MODEL 9
REMARK VINA RESULT:      -4.9     16.795     18.596
REMARK  Name = 75536532
REMARK  7 active torsions:
REMARK  status: ('A' for Active; 'I' for Inactive)
REMARK    1  A    between atoms: O_2  and  C_8
REMARK    2  A    between atoms: N_4  and  C_7
REMARK    3  A    between atoms: N_4  and  C_15
REMARK    4  A    between atoms: N_4  and  C_16
REMARK    5  A    between atoms: N_5  and  C_13
REMARK    6  A    between atoms: C_6  and  C_14
REMARK    7  A    between atoms: C_9  and  C_13
REMARK                            x       y       z     vdW  Elec       q    Type
REMARK                         _______ _______ _______ _____ _____    ______ ____
ROOT
ATOM      1  O   UNL     1      12.217   6.691  19.197  0.00  0.00    -0.371 OA
ATOM      7  C   UNL     1      13.936   8.036  18.260  0.00  0.00    +0.113 C 
ATOM      8  C   UNL     1      13.923   8.227  19.766  0.00  0.00    +0.164 C 
ATOM      9  C   UNL     1      13.194   6.967  20.215  0.00  0.00    +0.165 C 
ATOM     12  C   UNL     1      12.555   7.446  18.021  0.00  0.00    +0.181 C 
ENDROOT
BRANCH   7   4
ATOM      4  N   UNL     1      14.161   9.266  17.518  0.00  0.00    -0.301 NA
ATOM     15  C   UNL     1      13.244  10.318  17.965  0.00  0.00    +0.105 C 
ATOM     16  C   UNL     1      14.006   9.042  16.079  0.00  0.00    +0.105 C 
ENDBRANCH   7   4
BRANCH   8   2
ATOM      2  O   UNL     1      15.224   8.308  20.315  0.00  0.00    -0.388 OA
ATOM     18  H   UNL     1      15.443   7.447  20.710  0.00  0.00    +0.210 HD
ENDBRANCH   8   2
BRANCH   9  13
ATOM     13  C   UNL     1      12.507   7.121  21.559  0.00  0.00    +0.138 C 
BRANCH  13   5
ATOM      3  O   UNL     1      10.365   8.956  22.268  0.00  0.00    -0.276 OA
ATOM      5  N   UNL     1      12.631   8.458  22.061  0.00  0.00    -0.313 N 
ATOM     14  C   UNL     1      11.545   9.265  22.373  0.00  0.00    +0.216 C 
ATOM     17  H   UNL     1      13.569   8.822  22.206  0.00  0.00    +0.149 HD
BRANCH  14   6
ATOM      6  C   UNL     1      11.910  10.620  22.881  0.00  0.00    +0.075 C 
ATOM     10  C   UNL     1      10.923  11.352  23.729  0.00  0.00    +0.013 C 
ATOM     11  C   UNL     1      11.195  11.806  22.326  0.00  0.00    +0.013 C 
ENDBRANCH  14   6
ENDBRANCH  13   5
ENDBRANCH   9  13
TORSDOF 5
ENDMDL
MODEL 10
REMARK VINA RESULT:      -4.8      2.117      4.356
REMARK  Name = 75536532
REMARK  7 active torsions:
REMARK  status: ('A' for Active; 'I' for Inactive)
REMARK    1  A    between atoms: O_2  and  C_8
REMARK    2  A    between atoms: N_4  and  C_7
REMARK    3  A    between atoms: N_4  and  C_15
REMARK    4  A    between atoms: N_4  and  C_16
REMARK    5  A    between atoms: N_5  and  C_13
REMARK    6  A    between atoms: C_6  and  C_14
REMARK    7  A    between atoms: C_9  and  C_13
REMARK                            x       y       z     vdW  Elec       q    Type
REMARK                         _______ _______ _______ _____ _____    ______ ____
ROOT
ATOM      1  O   UNL     1      -0.527   3.516  25.873  0.00  0.00    -0.371 OA
ATOM      7  C   UNL     1      -0.156   1.681  24.411  0.00  0.00    +0.113 C 
ATOM      8  C   UNL     1      -1.574   2.188  24.219  0.00  0.00    +0.164 C 
ATOM      9  C   UNL     1      -1.459   3.599  24.781  0.00  0.00    +0.165 C 
ATOM     12  C   UNL     1       0.194   2.276  25.765  0.00  0.00    +0.181 C 
ENDROOT
BRANCH   7   4
ATOM      4  N   UNL     1      -0.048   0.231  24.386  0.00  0.00    -0.301 NA
ATOM     15  C   UNL     1       0.513  -0.227  23.111  0.00  0.00    +0.105 C 
ATOM     16  C   UNL     1      -1.354  -0.393  24.613  0.00  0.00    +0.105 C 
ENDBRANCH   7   4
BRANCH   8   2
ATOM      2  O   UNL     1      -1.972   2.193  22.862  0.00  0.00    -0.388 OA
ATOM     18  H   UNL     1      -2.061   3.117  22.572  0.00  0.00    +0.210 HD
ENDBRANCH   8   2
BRANCH   9  13
ATOM     13  C   UNL     1      -2.782   4.156  25.276  0.00  0.00    +0.138 C 
BRANCH  13   5
ATOM      3  O   UNL     1      -5.645   4.444  25.691  0.00  0.00    -0.276 OA
ATOM      5  N   UNL     1      -3.745   3.114  25.477  0.00  0.00    -0.313 N 
ATOM     14  C   UNL     1      -5.100   3.348  25.668  0.00  0.00    +0.216 C 
ATOM     17  H   UNL     1      -3.412   2.154  25.463  0.00  0.00    +0.149 HD
BRANCH  14   6
ATOM      6  C   UNL     1      -5.918   2.114  25.856  0.00  0.00    +0.075 C 
ATOM     10  C   UNL     1      -5.391   0.823  25.323  0.00  0.00    +0.013 C 
ATOM     11  C   UNL     1      -6.556   1.492  24.659  0.00  0.00    +0.013 C 
ENDBRANCH  14   6
ENDBRANCH  13   5
ENDBRANCH   9  13
TORSDOF 5
ENDMDL
