MODEL 1
REMARK VINA RESULT:      -5.6      0.000      0.000
REMARK  Name = 75536720
REMARK  9 active torsions:
REMARK  status: ('A' for Active; 'I' for Inactive)
REMARK    1  A    between atoms: O_2  and  C_8
REMARK    2  A    between atoms: N_4  and  C_7
REMARK    3  A    between atoms: N_4  and  C_12
REMARK    4  A    between atoms: N_4  and  C_13
REMARK    5  A    between atoms: N_5  and  C_11
REMARK    6  A    between atoms: N_6  and  C_15
REMARK    7  A    between atoms: C_9  and  C_11
REMARK    8  A    between atoms: C_15  and  C_16
REMARK    9  A    between atoms: C_15  and  C_17
REMARK                            x       y       z     vdW  Elec       q    Type
REMARK                         _______ _______ _______ _____ _____    ______ ____
ROOT
ATOM      1  O   UNL     1      10.646   8.255  19.907  0.00  0.00    -0.371 OA
ATOM      7  C   UNL     1      12.731   7.410  19.144  0.00  0.00    +0.113 C 
ATOM      8  C   UNL     1      12.674   7.297  20.656  0.00  0.00    +0.164 C 
ATOM      9  C   UNL     1      11.172   7.358  20.899  0.00  0.00    +0.165 C 
ATOM     10  C   UNL     1      11.634   8.430  18.878  0.00  0.00    +0.181 C 
ENDROOT
BRANCH   7   4
ATOM      4  N   UNL     1      14.027   7.828  18.638  0.00  0.00    -0.301 NA
ATOM     12  C   UNL     1      13.958   8.117  17.202  0.00  0.00    +0.105 C 
ATOM     13  C   UNL     1      14.517   9.003  19.364  0.00  0.00    +0.105 C 
ENDBRANCH   7   4
BRANCH   8   2
ATOM      2  O   UNL     1      13.237   6.091  21.134  0.00  0.00    -0.388 OA
ATOM     18  H   UNL     1      12.817   5.351  20.665  0.00  0.00    +0.210 HD
ENDBRANCH   8   2
BRANCH   9  11
ATOM     11  C   UNL     1      10.808   7.857  22.287  0.00  0.00    +0.140 C 
BRANCH  11   5
ATOM      3  O   UNL     1      12.442  10.175  22.823  0.00  0.00    -0.253 OA
ATOM      5  N   UNL     1      10.397   9.231  22.255  0.00  0.00    -0.297 N 
ATOM      6  N   UNL     1      10.596  11.524  22.426  0.00  0.00    -0.297 N 
ATOM     14  C   UNL     1      11.254  10.301  22.529  0.00  0.00    +0.300 C 
ATOM     19  H   UNL     1       9.427   9.435  22.036  0.00  0.00    +0.150 HD
ATOM     20  H   UNL     1       9.633  11.528  22.103  0.00  0.00    +0.150 HD
BRANCH   6  15
ATOM     15  C   UNL     1      11.254  12.788  22.660  0.00  0.00    +0.068 C 
ATOM     16  C   UNL     1      11.096  13.704  21.453  0.00  0.00    +0.027 C 
ATOM     17  C   UNL     1      10.710  13.442  23.923  0.00  0.00    +0.027 C 
ENDBRANCH   6  15
ENDBRANCH  11   5
ENDBRANCH   9  11
TORSDOF 5
ENDMDL
MODEL 2
REMARK VINA RESULT:      -5.5      1.632      1.905
REMARK  Name = 75536720
REMARK  9 active torsions:
REMARK  status: ('A' for Active; 'I' for Inactive)
REMARK    1  A    between atoms: O_2  and  C_8
REMARK    2  A    between atoms: N_4  and  C_7
REMARK    3  A    between atoms: N_4  and  C_12
REMARK    4  A    between atoms: N_4  and  C_13
REMARK    5  A    between atoms: N_5  and  C_11
REMARK    6  A    between atoms: N_6  and  C_15
REMARK    7  A    between atoms: C_9  and  C_11
REMARK    8  A    between atoms: C_15  and  C_16
REMARK    9  A    between atoms: C_15  and  C_17
REMARK                            x       y       z     vdW  Elec       q    Type
REMARK                         _______ _______ _______ _____ _____    ______ ____
ROOT
ATOM      1  O   UNL     1      10.626   8.459  19.675  0.00  0.00    -0.371 OA
ATOM      7  C   UNL     1      12.635   7.296  19.170  0.00  0.00    +0.113 C 
ATOM      8  C   UNL     1      12.473   7.374  20.677  0.00  0.00    +0.164 C 
ATOM      9  C   UNL     1      10.977   7.635  20.798  0.00  0.00    +0.165 C 
ATOM     10  C   UNL     1      11.689   8.394  18.709  0.00  0.00    +0.181 C 
ENDROOT
BRANCH   7   4
ATOM      4  N   UNL     1      14.001   7.499  18.718  0.00  0.00    -0.301 NA
ATOM     12  C   UNL     1      14.043   7.724  17.270  0.00  0.00    +0.105 C 
ATOM     13  C   UNL     1      14.621   8.626  19.421  0.00  0.00    +0.105 C 
ENDBRANCH   7   4
BRANCH   8   2
ATOM      2  O   UNL     1      12.855   6.178  21.328  0.00  0.00    -0.388 OA
ATOM     18  H   UNL     1      13.594   5.785  20.835  0.00  0.00    +0.210 HD
ENDBRANCH   8   2
BRANCH   9  11
ATOM     11  C   UNL     1      10.594   8.336  22.090  0.00  0.00    +0.140 C 
BRANCH  11   5
ATOM      3  O   UNL     1      11.018  11.150  22.569  0.00  0.00    -0.253 OA
ATOM      5  N   UNL     1      11.735   8.944  22.710  0.00  0.00    -0.297 N 
ATOM      6  N   UNL     1      13.068  10.641  23.531  0.00  0.00    -0.297 N 
ATOM     14  C   UNL     1      11.864  10.322  22.907  0.00  0.00    +0.300 C 
ATOM     19  H   UNL     1      12.495   8.342  23.011  0.00  0.00    +0.150 HD
ATOM     20  H   UNL     1      13.667   9.880  23.839  0.00  0.00    +0.150 HD
BRANCH   6  15
ATOM     15  C   UNL     1      13.450  11.996  23.849  0.00  0.00    +0.068 C 
ATOM     16  C   UNL     1      13.034  12.349  25.272  0.00  0.00    +0.027 C 
ATOM     17  C   UNL     1      14.947  12.184  23.650  0.00  0.00    +0.027 C 
ENDBRANCH   6  15
ENDBRANCH  11   5
ENDBRANCH   9  11
TORSDOF 5
ENDMDL
MODEL 3
REMARK VINA RESULT:      -5.4     13.215     16.768
REMARK  Name = 75536720
REMARK  9 active torsions:
REMARK  status: ('A' for Active; 'I' for Inactive)
REMARK    1  A    between atoms: O_2  and  C_8
REMARK    2  A    between atoms: N_4  and  C_7
REMARK    3  A    between atoms: N_4  and  C_12
REMARK    4  A    between atoms: N_4  and  C_13
REMARK    5  A    between atoms: N_5  and  C_11
REMARK    6  A    between atoms: N_6  and  C_15
REMARK    7  A    between atoms: C_9  and  C_11
REMARK    8  A    between atoms: C_15  and  C_16
REMARK    9  A    between atoms: C_15  and  C_17
REMARK                            x       y       z     vdW  Elec       q    Type
REMARK                         _______ _______ _______ _____ _____    ______ ____
ROOT
ATOM      1  O   UNL     1       9.829   7.783   7.124  0.00  0.00    -0.371 OA
ATOM      7  C   UNL     1      10.472   6.029   8.591  0.00  0.00    +0.113 C 
ATOM      8  C   UNL     1      11.440   6.078   7.423  0.00  0.00    +0.164 C 
ATOM      9  C   UNL     1      11.223   7.499   6.922  0.00  0.00    +0.165 C 
ATOM     10  C   UNL     1       9.292   6.809   8.036  0.00  0.00    +0.181 C 
ENDROOT
BRANCH   7   4
ATOM      4  N   UNL     1      10.118   4.680   8.999  0.00  0.00    -0.301 NA
ATOM     12  C   UNL     1       9.097   4.705  10.051  0.00  0.00    +0.105 C 
ATOM     13  C   UNL     1       9.642   3.897   7.855  0.00  0.00    +0.105 C 
ENDBRANCH   7   4
BRANCH   8   2
ATOM      2  O   UNL     1      12.780   5.855   7.816  0.00  0.00    -0.388 OA
ATOM     18  H   UNL     1      12.872   6.114   8.749  0.00  0.00    +0.210 HD
ENDBRANCH   8   2
BRANCH   9  11
ATOM     11  C   UNL     1      11.576   7.678   5.455  0.00  0.00    +0.140 C 
BRANCH  11   5
ATOM      3  O   UNL     1      11.433   7.099   2.632  0.00  0.00    -0.253 OA
ATOM      5  N   UNL     1      11.815   6.415   4.819  0.00  0.00    -0.297 N 
ATOM      6  N   UNL     1      12.006   4.897   3.091  0.00  0.00    -0.297 N 
ATOM     14  C   UNL     1      11.725   6.217   3.438  0.00  0.00    +0.300 C 
ATOM     19  H   UNL     1      12.048   5.620   5.406  0.00  0.00    +0.150 HD
ATOM     20  H   UNL     1      12.310   4.261   3.821  0.00  0.00    +0.150 HD
BRANCH   6  15
ATOM     15  C   UNL     1      11.982   4.426   1.726  0.00  0.00    +0.068 C 
ATOM     16  C   UNL     1      12.913   3.232   1.557  0.00  0.00    +0.027 C 
ATOM     17  C   UNL     1      10.559   4.078   1.311  0.00  0.00    +0.027 C 
ENDBRANCH   6  15
ENDBRANCH  11   5
ENDBRANCH   9  11
TORSDOF 5
ENDMDL
MODEL 4
REMARK VINA RESULT:      -5.3      1.770      2.152
REMARK  Name = 75536720
REMARK  9 active torsions:
REMARK  status: ('A' for Active; 'I' for Inactive)
REMARK    1  A    between atoms: O_2  and  C_8
REMARK    2  A    between atoms: N_4  and  C_7
REMARK    3  A    between atoms: N_4  and  C_12
REMARK    4  A    between atoms: N_4  and  C_13
REMARK    5  A    between atoms: N_5  and  C_11
REMARK    6  A    between atoms: N_6  and  C_15
REMARK    7  A    between atoms: C_9  and  C_11
REMARK    8  A    between atoms: C_15  and  C_16
REMARK    9  A    between atoms: C_15  and  C_17
REMARK                            x       y       z     vdW  Elec       q    Type
REMARK                         _______ _______ _______ _____ _____    ______ ____
ROOT
ATOM      1  O   UNL     1      11.723   7.020  19.592  0.00  0.00    -0.371 OA
ATOM      7  C   UNL     1      14.071   7.065  19.952  0.00  0.00    +0.113 C 
ATOM      8  C   UNL     1      13.380   7.789  21.094  0.00  0.00    +0.164 C 
ATOM      9  C   UNL     1      11.971   7.219  20.994  0.00  0.00    +0.165 C 
ATOM     10  C   UNL     1      12.979   7.063  18.894  0.00  0.00    +0.181 C 
ENDROOT
BRANCH   7   4
ATOM      4  N   UNL     1      15.293   7.711  19.505  0.00  0.00    -0.301 NA
ATOM     12  C   UNL     1      15.282   9.137  19.844  0.00  0.00    +0.105 C 
ATOM     13  C   UNL     1      16.470   7.063  20.090  0.00  0.00    +0.105 C 
ENDBRANCH   7   4
BRANCH   8   2
ATOM      2  O   UNL     1      13.972   7.517  22.349  0.00  0.00    -0.388 OA
ATOM     18  H   UNL     1      14.084   8.358  22.822  0.00  0.00    +0.210 HD
ENDBRANCH   8   2
BRANCH   9  11
ATOM     11  C   UNL     1      10.911   8.136  21.578  0.00  0.00    +0.140 C 
BRANCH  11   5
ATOM      3  O   UNL     1      10.982  10.979  22.066  0.00  0.00    -0.253 OA
ATOM      5  N   UNL     1      11.388   8.799  22.757  0.00  0.00    -0.297 N 
ATOM      6  N   UNL     1      11.904  10.562  24.154  0.00  0.00    -0.297 N 
ATOM     14  C   UNL     1      11.388  10.188  22.916  0.00  0.00    +0.300 C 
ATOM     19  H   UNL     1      11.758   8.228  23.511  0.00  0.00    +0.150 HD
ATOM     20  H   UNL     1      12.143   9.831  24.818  0.00  0.00    +0.150 HD
BRANCH   6  15
ATOM     15  C   UNL     1      12.017  11.940  24.570  0.00  0.00    +0.068 C 
ATOM     16  C   UNL     1      10.790  12.359  25.371  0.00  0.00    +0.027 C 
ATOM     17  C   UNL     1      13.295  12.148  25.371  0.00  0.00    +0.027 C 
ENDBRANCH   6  15
ENDBRANCH  11   5
ENDBRANCH   9  11
TORSDOF 5
ENDMDL
MODEL 5
REMARK VINA RESULT:      -5.2      1.990      2.382
REMARK  Name = 75536720
REMARK  9 active torsions:
REMARK  status: ('A' for Active; 'I' for Inactive)
REMARK    1  A    between atoms: O_2  and  C_8
REMARK    2  A    between atoms: N_4  and  C_7
REMARK    3  A    between atoms: N_4  and  C_12
REMARK    4  A    between atoms: N_4  and  C_13
REMARK    5  A    between atoms: N_5  and  C_11
REMARK    6  A    between atoms: N_6  and  C_15
REMARK    7  A    between atoms: C_9  and  C_11
REMARK    8  A    between atoms: C_15  and  C_16
REMARK    9  A    between atoms: C_15  and  C_17
REMARK                            x       y       z     vdW  Elec       q    Type
REMARK                         _______ _______ _______ _____ _____    ______ ____
ROOT
ATOM      1  O   UNL     1      13.300   9.338  19.350  0.00  0.00    -0.371 OA
ATOM      7  C   UNL     1      14.263   7.169  19.250  0.00  0.00    +0.113 C 
ATOM      8  C   UNL     1      12.866   7.064  19.835  0.00  0.00    +0.164 C 
ATOM      9  C   UNL     1      12.243   8.364  19.343  0.00  0.00    +0.165 C 
ATOM     10  C   UNL     1      14.558   8.649  19.440  0.00  0.00    +0.181 C 
ENDROOT
BRANCH   7   4
ATOM      4  N   UNL     1      15.236   6.309  19.903  0.00  0.00    -0.301 NA
ATOM     12  C   UNL     1      16.446   6.177  19.085  0.00  0.00    +0.105 C 
ATOM     13  C   UNL     1      15.579   6.825  21.231  0.00  0.00    +0.105 C 
ENDBRANCH   7   4
BRANCH   8   2
ATOM      2  O   UNL     1      12.163   5.931  19.368  0.00  0.00    -0.388 OA
ATOM     18  H   UNL     1      11.325   6.231  18.976  0.00  0.00    +0.210 HD
ENDBRANCH   8   2
BRANCH   9  11
ATOM     11  C   UNL     1      11.094   8.845  20.211  0.00  0.00    +0.140 C 
BRANCH  11   5
ATOM      3  O   UNL     1      10.473   9.239  23.002  0.00  0.00    -0.253 OA
ATOM      5  N   UNL     1      11.492   9.947  21.038  0.00  0.00    -0.297 N 
ATOM      6  N   UNL     1      11.665  11.230  22.949  0.00  0.00    -0.297 N 
ATOM     14  C   UNL     1      11.149  10.064  22.388  0.00  0.00    +0.300 C 
ATOM     19  H   UNL     1      12.042  10.689  20.615  0.00  0.00    +0.150 HD
ATOM     20  H   UNL     1      12.274  11.810  22.380  0.00  0.00    +0.150 HD
BRANCH   6  15
ATOM     15  C   UNL     1      11.456  11.592  24.331  0.00  0.00    +0.068 C 
ATOM     16  C   UNL     1      12.784  11.900  25.010  0.00  0.00    +0.027 C 
ATOM     17  C   UNL     1      10.500  12.773  24.430  0.00  0.00    +0.027 C 
ENDBRANCH   6  15
ENDBRANCH  11   5
ENDBRANCH   9  11
TORSDOF 5
ENDMDL
MODEL 6
REMARK VINA RESULT:      -5.1      2.940      4.031
REMARK  Name = 75536720
REMARK  9 active torsions:
REMARK  status: ('A' for Active; 'I' for Inactive)
REMARK    1  A    between atoms: O_2  and  C_8
REMARK    2  A    between atoms: N_4  and  C_7
REMARK    3  A    between atoms: N_4  and  C_12
REMARK    4  A    between atoms: N_4  and  C_13
REMARK    5  A    between atoms: N_5  and  C_11
REMARK    6  A    between atoms: N_6  and  C_15
REMARK    7  A    between atoms: C_9  and  C_11
REMARK    8  A    between atoms: C_15  and  C_16
REMARK    9  A    between atoms: C_15  and  C_17
REMARK                            x       y       z     vdW  Elec       q    Type
REMARK                         _______ _______ _______ _____ _____    ______ ____
ROOT
ATOM      1  O   UNL     1      15.688   6.253  18.975  0.00  0.00    -0.371 OA
ATOM      7  C   UNL     1      16.950   6.516  20.970  0.00  0.00    +0.113 C 
ATOM      8  C   UNL     1      15.629   7.249  21.119  0.00  0.00    +0.164 C 
ATOM      9  C   UNL     1      14.788   6.559  20.053  0.00  0.00    +0.165 C 
ATOM     10  C   UNL     1      17.037   6.359  19.460  0.00  0.00    +0.181 C 
ENDROOT
BRANCH   7   4
ATOM      4  N   UNL     1      18.082   7.233  21.531  0.00  0.00    -0.301 NA
ATOM     12  C   UNL     1      19.347   6.672  21.047  0.00  0.00    +0.105 C 
ATOM     13  C   UNL     1      18.008   8.660  21.206  0.00  0.00    +0.105 C 
ENDBRANCH   7   4
BRANCH   8   2
ATOM      2  O   UNL     1      15.068   7.105  22.409  0.00  0.00    -0.388 OA
ATOM     18  H   UNL     1      14.767   6.186  22.510  0.00  0.00    +0.210 HD
ENDBRANCH   8   2
BRANCH   9  11
ATOM     11  C   UNL     1      13.645   7.418  19.541  0.00  0.00    +0.140 C 
BRANCH  11   5
ATOM      3  O   UNL     1      11.141   8.605  20.346  0.00  0.00    -0.253 OA
ATOM      5  N   UNL     1      13.464   8.583  20.357  0.00  0.00    -0.297 N 
ATOM      6  N   UNL     1      12.324  10.232  21.502  0.00  0.00    -0.297 N 
ATOM     14  C   UNL     1      12.211   9.096  20.703  0.00  0.00    +0.300 C 
ATOM     19  H   UNL     1      14.291   9.069  20.689  0.00  0.00    +0.150 HD
ATOM     20  H   UNL     1      13.251  10.517  21.806  0.00  0.00    +0.150 HD
BRANCH   6  15
ATOM     15  C   UNL     1      11.179  10.958  21.998  0.00  0.00    +0.068 C 
ATOM     16  C   UNL     1      10.981  10.693  23.485  0.00  0.00    +0.027 C 
ATOM     17  C   UNL     1      11.334  12.446  21.719  0.00  0.00    +0.027 C 
ENDBRANCH   6  15
ENDBRANCH  11   5
ENDBRANCH   9  11
TORSDOF 5
ENDMDL
MODEL 7
REMARK VINA RESULT:      -4.8     25.866     27.232
REMARK  Name = 75536720
REMARK  9 active torsions:
REMARK  status: ('A' for Active; 'I' for Inactive)
REMARK    1  A    between atoms: O_2  and  C_8
REMARK    2  A    between atoms: N_4  and  C_7
REMARK    3  A    between atoms: N_4  and  C_12
REMARK    4  A    between atoms: N_4  and  C_13
REMARK    5  A    between atoms: N_5  and  C_11
REMARK    6  A    between atoms: N_6  and  C_15
REMARK    7  A    between atoms: C_9  and  C_11
REMARK    8  A    between atoms: C_15  and  C_16
REMARK    9  A    between atoms: C_15  and  C_17
REMARK                            x       y       z     vdW  Elec       q    Type
REMARK                         _______ _______ _______ _____ _____    ______ ____
ROOT
ATOM      1  O   UNL     1      -4.919  -9.888  16.467  0.00  0.00    -0.371 OA
ATOM      7  C   UNL     1      -5.532 -11.070  18.434  0.00  0.00    +0.113 C 
ATOM      8  C   UNL     1      -4.248 -11.661  17.881  0.00  0.00    +0.164 C 
ATOM      9  C   UNL     1      -3.746 -10.514  17.014  0.00  0.00    +0.165 C 
ATOM     10  C   UNL     1      -6.063 -10.319  17.223  0.00  0.00    +0.181 C 
ENDROOT
BRANCH   7   4
ATOM      4  N   UNL     1      -6.464 -12.066  18.936  0.00  0.00    -0.301 NA
ATOM     12  C   UNL     1      -7.701 -11.432  19.404  0.00  0.00    +0.105 C 
ATOM     13  C   UNL     1      -6.768 -13.062  17.906  0.00  0.00    +0.105 C 
ENDBRANCH   7   4
BRANCH   8   2
ATOM      2  O   UNL     1      -3.323 -12.001  18.895  0.00  0.00    -0.388 OA
ATOM     18  H   UNL     1      -2.437 -12.041  18.498  0.00  0.00    +0.210 HD
ENDBRANCH   8   2
BRANCH   9  11
ATOM     11  C   UNL     1      -2.834 -10.967  15.888  0.00  0.00    +0.140 C 
BRANCH  11   5
ATOM      3  O   UNL     1      -1.792 -11.652  13.285  0.00  0.00    -0.253 OA
ATOM      5  N   UNL     1      -3.293 -10.483  14.619  0.00  0.00    -0.297 N 
ATOM      6  N   UNL     1      -3.368 -10.246  12.324  0.00  0.00    -0.297 N 
ATOM     14  C   UNL     1      -2.731 -10.865  13.397  0.00  0.00    +0.300 C 
ATOM     19  H   UNL     1      -4.058  -9.816  14.609  0.00  0.00    +0.150 HD
ATOM     20  H   UNL     1      -4.184  -9.671  12.514  0.00  0.00    +0.150 HD
BRANCH   6  15
ATOM     15  C   UNL     1      -2.981 -10.468  10.951  0.00  0.00    +0.068 C 
ATOM     16  C   UNL     1      -3.711 -11.677  10.379  0.00  0.00    +0.027 C 
ATOM     17  C   UNL     1      -3.245  -9.221  10.118  0.00  0.00    +0.027 C 
ENDBRANCH   6  15
ENDBRANCH  11   5
ENDBRANCH   9  11
TORSDOF 5
ENDMDL
MODEL 8
REMARK VINA RESULT:      -4.6     27.496     29.091
REMARK  Name = 75536720
REMARK  9 active torsions:
REMARK  status: ('A' for Active; 'I' for Inactive)
REMARK    1  A    between atoms: O_2  and  C_8
REMARK    2  A    between atoms: N_4  and  C_7
REMARK    3  A    between atoms: N_4  and  C_12
REMARK    4  A    between atoms: N_4  and  C_13
REMARK    5  A    between atoms: N_5  and  C_11
REMARK    6  A    between atoms: N_6  and  C_15
REMARK    7  A    between atoms: C_9  and  C_11
REMARK    8  A    between atoms: C_15  and  C_16
REMARK    9  A    between atoms: C_15  and  C_17
REMARK                            x       y       z     vdW  Elec       q    Type
REMARK                         _______ _______ _______ _____ _____    ______ ____
ROOT
ATOM      1  O   UNL     1     -15.677   4.005  31.979  0.00  0.00    -0.371 OA
ATOM      7  C   UNL     1     -15.261   1.666  31.960  0.00  0.00    +0.113 C 
ATOM      8  C   UNL     1     -14.606   2.276  33.186  0.00  0.00    +0.164 C 
ATOM      9  C   UNL     1     -15.387   3.577  33.320  0.00  0.00    +0.165 C 
ATOM     10  C   UNL     1     -15.470   2.895  31.089  0.00  0.00    +0.181 C 
ENDROOT
BRANCH   7   4
ATOM      4  N   UNL     1     -14.455   0.645  31.314  0.00  0.00    -0.301 NA
ATOM     12  C   UNL     1     -15.282  -0.498  30.916  0.00  0.00    +0.105 C 
ATOM     13  C   UNL     1     -13.757   1.191  30.147  0.00  0.00    +0.105 C 
ENDBRANCH   7   4
BRANCH   8   2
ATOM      2  O   UNL     1     -14.736   1.462  34.335  0.00  0.00    -0.388 OA
ATOM     18  H   UNL     1     -14.556   2.009  35.118  0.00  0.00    +0.210 HD
ENDBRANCH   8   2
BRANCH   9  11
ATOM     11  C   UNL     1     -14.620   4.664  34.052  0.00  0.00    +0.140 C 
BRANCH  11   5
ATOM      3  O   UNL     1     -13.759   7.365  34.590  0.00  0.00    -0.253 OA
ATOM      5  N   UNL     1     -13.999   5.573  33.132  0.00  0.00    -0.297 N 
ATOM      6  N   UNL     1     -13.034   7.535  32.392  0.00  0.00    -0.297 N 
ATOM     14  C   UNL     1     -13.610   6.871  33.473  0.00  0.00    +0.300 C 
ATOM     19  H   UNL     1     -13.848   5.260  32.178  0.00  0.00    +0.150 HD
ATOM     20  H   UNL     1     -12.886   7.016  31.531  0.00  0.00    +0.150 HD
BRANCH   6  15
ATOM     15  C   UNL     1     -12.546   8.891  32.476  0.00  0.00    +0.068 C 
ATOM     16  C   UNL     1     -11.097   8.968  32.010  0.00  0.00    +0.027 C 
ATOM     17  C   UNL     1     -13.436   9.825  31.668  0.00  0.00    +0.027 C 
ENDBRANCH   6  15
ENDBRANCH  11   5
ENDBRANCH   9  11
TORSDOF 5
ENDMDL
MODEL 9
REMARK VINA RESULT:      -4.6      4.233      6.319
REMARK  Name = 75536720
REMARK  9 active torsions:
REMARK  status: ('A' for Active; 'I' for Inactive)
REMARK    1  A    between atoms: O_2  and  C_8
REMARK    2  A    between atoms: N_4  and  C_7
REMARK    3  A    between atoms: N_4  and  C_12
REMARK    4  A    between atoms: N_4  and  C_13
REMARK    5  A    between atoms: N_5  and  C_11
REMARK    6  A    between atoms: N_6  and  C_15
REMARK    7  A    between atoms: C_9  and  C_11
REMARK    8  A    between atoms: C_15  and  C_16
REMARK    9  A    between atoms: C_15  and  C_17
REMARK                            x       y       z     vdW  Elec       q    Type
REMARK                         _______ _______ _______ _____ _____    ______ ____
ROOT
ATOM      1  O   UNL     1      18.382   5.763  20.122  0.00  0.00    -0.371 OA
ATOM      7  C   UNL     1      18.952   7.458  21.685  0.00  0.00    +0.113 C 
ATOM      8  C   UNL     1      17.626   7.809  21.035  0.00  0.00    +0.164 C 
ATOM      9  C   UNL     1      17.182   6.447  20.519  0.00  0.00    +0.165 C 
ATOM     10  C   UNL     1      19.509   6.442  20.701  0.00  0.00    +0.181 C 
ENDROOT
BRANCH   7   4
ATOM      4  N   UNL     1      19.829   8.601  21.877  0.00  0.00    -0.301 NA
ATOM     12  C   UNL     1      20.109   8.810  23.301  0.00  0.00    +0.105 C 
ATOM     13  C   UNL     1      21.082   8.426  21.138  0.00  0.00    +0.105 C 
ENDBRANCH   7   4
BRANCH   8   2
ATOM      2  O   UNL     1      16.697   8.355  21.951  0.00  0.00    -0.388 OA
ATOM     18  H   UNL     1      16.663   7.778  22.732  0.00  0.00    +0.210 HD
ENDBRANCH   8   2
BRANCH   9  11
ATOM     11  C   UNL     1      16.226   6.534  19.342  0.00  0.00    +0.140 C 
BRANCH  11   5
ATOM      3  O   UNL     1      14.166   8.410  20.091  0.00  0.00    -0.253 OA
ATOM      5  N   UNL     1      14.882   6.229  19.739  0.00  0.00    -0.297 N 
ATOM      6  N   UNL     1      12.717   6.630  20.431  0.00  0.00    -0.297 N 
ATOM     14  C   UNL     1      13.940   7.201  20.088  0.00  0.00    +0.300 C 
ATOM     19  H   UNL     1      14.605   5.253  19.781  0.00  0.00    +0.150 HD
ATOM     20  H   UNL     1      12.607   5.625  20.324  0.00  0.00    +0.150 HD
BRANCH   6  15
ATOM     15  C   UNL     1      11.573   7.413  20.831  0.00  0.00    +0.068 C 
ATOM     16  C   UNL     1      11.870   8.178  22.115  0.00  0.00    +0.027 C 
ATOM     17  C   UNL     1      11.159   8.358  19.711  0.00  0.00    +0.027 C 
ENDBRANCH   6  15
ENDBRANCH  11   5
ENDBRANCH   9  11
TORSDOF 5
ENDMDL
MODEL 10
REMARK VINA RESULT:      -4.5     25.646     28.282
REMARK  Name = 75536720
REMARK  9 active torsions:
REMARK  status: ('A' for Active; 'I' for Inactive)
REMARK    1  A    between atoms: O_2  and  C_8
REMARK    2  A    between atoms: N_4  and  C_7
REMARK    3  A    between atoms: N_4  and  C_12
REMARK    4  A    between atoms: N_4  and  C_13
REMARK    5  A    between atoms: N_5  and  C_11
REMARK    6  A    between atoms: N_6  and  C_15
REMARK    7  A    between atoms: C_9  and  C_11
REMARK    8  A    between atoms: C_15  and  C_16
REMARK    9  A    between atoms: C_15  and  C_17
REMARK                            x       y       z     vdW  Elec       q    Type
REMARK                         _______ _______ _______ _____ _____    ______ ____
ROOT
ATOM      1  O   UNL     1       2.445   7.637  -5.248  0.00  0.00    -0.371 OA
ATOM      7  C   UNL     1       4.457   6.697  -4.406  0.00  0.00    +0.113 C 
ATOM      8  C   UNL     1       3.427   5.595  -4.572  0.00  0.00    +0.164 C 
ATOM      9  C   UNL     1       2.468   6.236  -5.567  0.00  0.00    +0.165 C 
ATOM     10  C   UNL     1       3.575   7.936  -4.411  0.00  0.00    +0.181 C 
ENDROOT
BRANCH   7   4
ATOM      4  N   UNL     1       5.254   6.575  -3.197  0.00  0.00    -0.301 NA
ATOM     12  C   UNL     1       6.680   6.465  -3.521  0.00  0.00    +0.105 C 
ATOM     13  C   UNL     1       5.027   7.715  -2.305  0.00  0.00    +0.105 C 
ENDBRANCH   7   4
BRANCH   8   2
ATOM      2  O   UNL     1       3.986   4.397  -5.074  0.00  0.00    -0.388 OA
ATOM     18  H   UNL     1       3.259   3.788  -5.290  0.00  0.00    +0.210 HD
ENDBRANCH   8   2
BRANCH   9  11
ATOM     11  C   UNL     1       1.061   5.669  -5.495  0.00  0.00    +0.140 C 
BRANCH  11   5
ATOM      3  O   UNL     1       0.454   3.340  -3.903  0.00  0.00    -0.253 OA
ATOM      5  N   UNL     1       1.026   4.305  -5.937  0.00  0.00    -0.297 N 
ATOM      6  N   UNL     1       0.758   2.017  -5.785  0.00  0.00    -0.297 N 
ATOM     14  C   UNL     1       0.721   3.229  -5.098  0.00  0.00    +0.300 C 
ATOM     19  H   UNL     1       1.248   4.111  -6.908  0.00  0.00    +0.150 HD
ATOM     20  H   UNL     1       0.915   2.037  -6.789  0.00  0.00    +0.150 HD
BRANCH   6  15
ATOM     15  C   UNL     1       0.482   0.750  -5.151  0.00  0.00    +0.068 C 
ATOM     16  C   UNL     1      -0.376  -0.125  -6.056  0.00  0.00    +0.027 C 
ATOM     17  C   UNL     1       1.783   0.050  -4.779  0.00  0.00    +0.027 C 
ENDBRANCH   6  15
ENDBRANCH  11   5
ENDBRANCH   9  11
TORSDOF 5
ENDMDL
