MODEL 1
REMARK VINA RESULT:      -7.8      0.000      0.000
REMARK  Name = 11911871
REMARK  9 active torsions:
REMARK  status: ('A' for Active; 'I' for Inactive)
REMARK    1  A    between atoms: O_4  and  C_28
REMARK    2  A    between atoms: N_6  and  C_13
REMARK    3  A    between atoms: N_7  and  C_14
REMARK    4  A    between atoms: N_10  and  C_34
REMARK    5  A    between atoms: N_10  and  C_35
REMARK    6  A    between atoms: N_10  and  C_36
REMARK    7  A    between atoms: C_17  and  C_19
REMARK    8  A    between atoms: C_20  and  C_28
REMARK    9  A    between atoms: C_21  and  C_25
REMARK                            x       y       z     vdW  Elec       q    Type
REMARK                         _______ _______ _______ _____ _____    ______ ____
ROOT
ATOM      1  O   UNL     1      13.166   9.014  15.410  0.00  0.00    -0.370 OA
ATOM      2  O   UNL     1      15.529  10.939  16.076  0.00  0.00    -0.370 OA
ATOM     11  C   UNL     1      14.272  10.665  16.717  0.00  0.00    +0.171 C 
ATOM     12  C   UNL     1      13.248  10.433  15.623  0.00  0.00    +0.171 C 
ATOM     13  C   UNL     1      14.334   9.344  17.449  0.00  0.00    +0.130 C 
ATOM     14  C   UNL     1      13.843  11.111  14.411  0.00  0.00    +0.130 C 
ATOM     15  C   UNL     1      14.024   8.347  16.347  0.00  0.00    +0.185 C 
ATOM     16  C   UNL     1      15.335  10.978  14.653  0.00  0.00    +0.185 C 
ENDROOT
BRANCH  14   7
ATOM      7  N   UNL     1      13.462  12.506  14.387  0.00  0.00    -0.306 N 
ATOM      8  N   UNL     1      12.204  12.242  12.424  0.00  0.00    -0.214 NA
ATOM      9  N   UNL     1      12.371  14.388  13.507  0.00  0.00    -0.223 NA
ATOM     18  C   UNL     1      12.655  13.061  13.411  0.00  0.00    +0.216 A 
ATOM     21  C   UNL     1      11.420  12.817  11.488  0.00  0.00    +0.076 A 
ATOM     23  C   UNL     1      11.582  14.898  12.538  0.00  0.00    +0.116 A 
ATOM     24  C   UNL     1      11.072  14.152  11.495  0.00  0.00    +0.048 A 
ATOM     38  H   UNL     1      13.749  13.114  15.146  0.00  0.00    +0.149 HD
BRANCH  21  25
ATOM     25  C   UNL     1      10.950  11.929  10.452  0.00  0.00    +0.001 A 
ATOM     30  C   UNL     1      11.835  11.458   9.479  0.00  0.00    +0.012 A 
ATOM     31  C   UNL     1       9.610  11.538  10.418  0.00  0.00    +0.012 A 
ATOM     32  C   UNL     1      11.381  10.601   8.476  0.00  0.00    +0.024 A 
ATOM     33  C   UNL     1       9.156  10.681   9.416  0.00  0.00    +0.024 A 
ATOM     34  C   UNL     1      10.041  10.212   8.445  0.00  0.00    +0.029 A 
BRANCH  34  10
ATOM     10  N   UNL     1       9.583   9.344   7.432  0.00  0.00    -0.336 N 
ATOM     35  C   UNL     1       9.660   9.738   6.039  0.00  0.00    +0.129 C 
ATOM     36  C   UNL     1       9.015   8.055   7.770  0.00  0.00    +0.129 C 
ENDBRANCH  34  10
ENDBRANCH  21  25
ENDBRANCH  14   7
BRANCH  13   6
ATOM      3  O   UNL     1      14.817   9.586  20.269  0.00  0.00    -0.270 OA
ATOM      6  N   UNL     1      13.348   9.283  18.501  0.00  0.00    -0.304 N 
ATOM     17  C   UNL     1      13.679   9.412  19.842  0.00  0.00    +0.245 C 
ATOM     37  H   UNL     1      12.370   9.177  18.244  0.00  0.00    +0.149 HD
BRANCH  17  19
ATOM     19  C   UNL     1      12.553   9.300  20.804  0.00  0.00    +0.051 A 
ATOM     20  C   UNL     1      11.979   8.072  21.064  0.00  0.00    +0.071 A 
ATOM     22  C   UNL     1      12.115  10.459  21.416  0.00  0.00    +0.014 A 
ATOM     26  C   UNL     1      10.924   7.999  21.972  0.00  0.00    +0.016 A 
ATOM     27  C   UNL     1      11.059  10.385  22.325  0.00  0.00    +0.001 A 
ATOM     29  C   UNL     1      10.463   9.155  22.604  0.00  0.00    +0.001 A 
BRANCH  20  28
ATOM      5  O   UNL     1      12.089   6.455  19.304  0.00  0.00    -0.245 OA
ATOM     28  C   UNL     1      12.436   6.847  20.421  0.00  0.00    +0.338 C 
BRANCH  28   4
ATOM      4  O   UNL     1      13.314   6.153  21.195  0.00  0.00    -0.477 OA
ATOM     39  H   UNL     1      14.149   5.961  20.717  0.00  0.00    +0.295 HD
ENDBRANCH  28   4
ENDBRANCH  20  28
ENDBRANCH  17  19
ENDBRANCH  13   6
TORSDOF 7
ENDMDL
MODEL 2
REMARK VINA RESULT:      -7.3     26.622     28.121
REMARK  Name = 11911871
REMARK  9 active torsions:
REMARK  status: ('A' for Active; 'I' for Inactive)
REMARK    1  A    between atoms: O_4  and  C_28
REMARK    2  A    between atoms: N_6  and  C_13
REMARK    3  A    between atoms: N_7  and  C_14
REMARK    4  A    between atoms: N_10  and  C_34
REMARK    5  A    between atoms: N_10  and  C_35
REMARK    6  A    between atoms: N_10  and  C_36
REMARK    7  A    between atoms: C_17  and  C_19
REMARK    8  A    between atoms: C_20  and  C_28
REMARK    9  A    between atoms: C_21  and  C_25
REMARK                            x       y       z     vdW  Elec       q    Type
REMARK                         _______ _______ _______ _____ _____    ______ ____
ROOT
ATOM      1  O   UNL     1      -3.932 -13.156  13.053  0.00  0.00    -0.370 OA
ATOM      2  O   UNL     1      -2.687 -10.302  12.849  0.00  0.00    -0.370 OA
ATOM     11  C   UNL     1      -3.830 -10.830  13.542  0.00  0.00    +0.171 C 
ATOM     12  C   UNL     1      -4.456 -11.880  12.646  0.00  0.00    +0.171 C 
ATOM     13  C   UNL     1      -3.391 -11.604  14.764  0.00  0.00    +0.130 C 
ATOM     14  C   UNL     1      -3.962 -11.528  11.263  0.00  0.00    +0.130 C 
ATOM     15  C   UNL     1      -3.072 -12.971  14.186  0.00  0.00    +0.185 C 
ATOM     16  C   UNL     1      -2.611 -10.894  11.543  0.00  0.00    +0.185 C 
ENDROOT
BRANCH  14   7
ATOM      7  N   UNL     1      -4.849 -10.564  10.650  0.00  0.00    -0.306 N 
ATOM      8  N   UNL     1      -4.481 -11.428   8.500  0.00  0.00    -0.214 NA
ATOM      9  N   UNL     1      -5.964  -9.560   8.845  0.00  0.00    -0.223 NA
ATOM     18  C   UNL     1      -5.106 -10.517   9.292  0.00  0.00    +0.216 A 
ATOM     21  C   UNL     1      -4.754 -11.353   7.180  0.00  0.00    +0.076 A 
ATOM     23  C   UNL     1      -6.190  -9.541   7.515  0.00  0.00    +0.116 A 
ATOM     24  C   UNL     1      -5.608 -10.422   6.626  0.00  0.00    +0.048 A 
ATOM     38  H   UNL     1      -5.361  -9.914  11.236  0.00  0.00    +0.149 HD
BRANCH  21  25
ATOM     25  C   UNL     1      -4.082 -12.331   6.359  0.00  0.00    +0.001 A 
ATOM     30  C   UNL     1      -3.812 -12.053   5.017  0.00  0.00    +0.012 A 
ATOM     31  C   UNL     1      -3.699 -13.559   6.903  0.00  0.00    +0.012 A 
ATOM     32  C   UNL     1      -3.164 -12.999   4.222  0.00  0.00    +0.024 A 
ATOM     33  C   UNL     1      -3.051 -14.505   6.109  0.00  0.00    +0.024 A 
ATOM     34  C   UNL     1      -2.783 -14.225   4.769  0.00  0.00    +0.029 A 
BRANCH  34  10
ATOM     10  N   UNL     1      -2.127 -15.181   3.966  0.00  0.00    -0.336 N 
ATOM     35  C   UNL     1      -2.524 -16.574   4.012  0.00  0.00    +0.129 C 
ATOM     36  C   UNL     1      -1.038 -14.786   3.095  0.00  0.00    +0.129 C 
ENDBRANCH  34  10
ENDBRANCH  21  25
ENDBRANCH  14   7
BRANCH  13   6
ATOM      3  O   UNL     1      -3.851  -9.798  16.949  0.00  0.00    -0.270 OA
ATOM      6  N   UNL     1      -4.451 -11.684  15.740  0.00  0.00    -0.304 N 
ATOM     17  C   UNL     1      -4.593 -10.759  16.765  0.00  0.00    +0.245 C 
ATOM     37  H   UNL     1      -5.139 -12.427  15.650  0.00  0.00    +0.149 HD
BRANCH  17  19
ATOM     19  C   UNL     1      -5.720 -10.996  17.704  0.00  0.00    +0.051 A 
ATOM     20  C   UNL     1      -5.558 -11.834  18.787  0.00  0.00    +0.071 A 
ATOM     22  C   UNL     1      -6.914 -10.350  17.447  0.00  0.00    +0.014 A 
ATOM     26  C   UNL     1      -6.634 -12.036  19.652  0.00  0.00    +0.016 A 
ATOM     27  C   UNL     1      -7.990 -10.552  18.312  0.00  0.00    +0.001 A 
ATOM     29  C   UNL     1      -7.850 -11.395  19.414  0.00  0.00    +0.001 A 
BRANCH  20  28
ATOM      5  O   UNL     1      -3.416 -12.110  19.817  0.00  0.00    -0.245 OA
ATOM     28  C   UNL     1      -4.302 -12.519  19.062  0.00  0.00    +0.338 C 
BRANCH  28   4
ATOM      4  O   UNL     1      -4.195 -13.695  18.386  0.00  0.00    -0.477 OA
ATOM     39  H   UNL     1      -3.337 -14.139  18.561  0.00  0.00    +0.295 HD
ENDBRANCH  28   4
ENDBRANCH  20  28
ENDBRANCH  17  19
ENDBRANCH  13   6
TORSDOF 7
ENDMDL
MODEL 3
REMARK VINA RESULT:      -7.2     27.767     31.555
REMARK  Name = 11911871
REMARK  9 active torsions:
REMARK  status: ('A' for Active; 'I' for Inactive)
REMARK    1  A    between atoms: O_4  and  C_28
REMARK    2  A    between atoms: N_6  and  C_13
REMARK    3  A    between atoms: N_7  and  C_14
REMARK    4  A    between atoms: N_10  and  C_34
REMARK    5  A    between atoms: N_10  and  C_35
REMARK    6  A    between atoms: N_10  and  C_36
REMARK    7  A    between atoms: C_17  and  C_19
REMARK    8  A    between atoms: C_20  and  C_28
REMARK    9  A    between atoms: C_21  and  C_25
REMARK                            x       y       z     vdW  Elec       q    Type
REMARK                         _______ _______ _______ _____ _____    ______ ____
ROOT
ATOM      1  O   UNL     1     -12.595  -7.980  14.566  0.00  0.00    -0.370 OA
ATOM      2  O   UNL     1     -11.137  -6.049  16.536  0.00  0.00    -0.370 OA
ATOM     11  C   UNL     1     -11.189  -6.137  15.102  0.00  0.00    +0.171 C 
ATOM     12  C   UNL     1     -11.217  -7.610  14.741  0.00  0.00    +0.171 C 
ATOM     13  C   UNL     1     -12.509  -5.609  14.592  0.00  0.00    +0.130 C 
ATOM     14  C   UNL     1     -10.640  -8.299  15.956  0.00  0.00    +0.130 C 
ATOM     15  C   UNL     1     -13.419  -6.817  14.730  0.00  0.00    +0.185 C 
ATOM     16  C   UNL     1     -11.043  -7.371  17.088  0.00  0.00    +0.185 C 
ENDROOT
BRANCH  14   7
ATOM      7  N   UNL     1      -9.199  -8.363  15.851  0.00  0.00    -0.306 N 
ATOM      8  N   UNL     1      -9.047 -10.048  17.478  0.00  0.00    -0.214 NA
ATOM      9  N   UNL     1      -7.071  -9.186  16.400  0.00  0.00    -0.223 NA
ATOM     18  C   UNL     1      -8.416  -9.225  16.598  0.00  0.00    +0.216 A 
ATOM     21  C   UNL     1      -8.253 -10.874  18.190  0.00  0.00    +0.076 A 
ATOM     23  C   UNL     1      -6.337 -10.039  17.146  0.00  0.00    +0.116 A 
ATOM     24  C   UNL     1      -6.880 -10.914  18.065  0.00  0.00    +0.048 A 
ATOM     38  H   UNL     1      -8.723  -7.792  15.161  0.00  0.00    +0.149 HD
BRANCH  21  25
ATOM     25  C   UNL     1      -8.943 -11.741  19.116  0.00  0.00    +0.001 A 
ATOM     30  C   UNL     1      -8.332 -12.912  19.568  0.00  0.00    +0.012 A 
ATOM     31  C   UNL     1     -10.225 -11.410  19.561  0.00  0.00    +0.012 A 
ATOM     32  C   UNL     1      -8.999 -13.750  20.462  0.00  0.00    +0.024 A 
ATOM     33  C   UNL     1     -10.892 -12.248  20.455  0.00  0.00    +0.024 A 
ATOM     34  C   UNL     1     -10.280 -13.417  20.906  0.00  0.00    +0.029 A 
BRANCH  34  10
ATOM     10  N   UNL     1     -10.955 -14.264  21.810  0.00  0.00    -0.336 N 
ATOM     35  C   UNL     1     -12.400 -14.359  21.785  0.00  0.00    +0.129 C 
ATOM     36  C   UNL     1     -10.212 -15.038  22.784  0.00  0.00    +0.129 C 
ENDBRANCH  34  10
ENDBRANCH  21  25
ENDBRANCH  14   7
BRANCH  13   6
ATOM      3  O   UNL     1     -13.835  -3.367  13.381  0.00  0.00    -0.270 OA
ATOM      6  N   UNL     1     -12.406  -5.187  13.216  0.00  0.00    -0.304 N 
ATOM     17  C   UNL     1     -13.088  -4.085  12.720  0.00  0.00    +0.245 C 
ATOM     37  H   UNL     1     -11.783  -5.698  12.597  0.00  0.00    +0.149 HD
BRANCH  17  19
ATOM     19  C   UNL     1     -12.897  -3.797  11.275  0.00  0.00    +0.051 A 
ATOM     20  C   UNL     1     -13.990  -3.613  10.452  0.00  0.00    +0.071 A 
ATOM     22  C   UNL     1     -11.602  -3.723  10.802  0.00  0.00    +0.014 A 
ATOM     26  C   UNL     1     -13.779  -3.343   9.100  0.00  0.00    +0.016 A 
ATOM     27  C   UNL     1     -11.391  -3.453   9.449  0.00  0.00    +0.001 A 
ATOM     29  C   UNL     1     -12.480  -3.263   8.599  0.00  0.00    +0.001 A 
BRANCH  20  28
ATOM      5  O   UNL     1     -16.057  -4.707  10.955  0.00  0.00    -0.245 OA
ATOM     28  C   UNL     1     -15.358  -3.690  10.945  0.00  0.00    +0.338 C 
BRANCH  28   4
ATOM      4  O   UNL     1     -15.808  -2.495  11.414  0.00  0.00    -0.477 OA
ATOM     39  H   UNL     1     -16.779  -2.501  11.558  0.00  0.00    +0.295 HD
ENDBRANCH  28   4
ENDBRANCH  20  28
ENDBRANCH  17  19
ENDBRANCH  13   6
TORSDOF 7
ENDMDL
MODEL 4
REMARK VINA RESULT:      -6.9      3.524     10.219
REMARK  Name = 11911871
REMARK  9 active torsions:
REMARK  status: ('A' for Active; 'I' for Inactive)
REMARK    1  A    between atoms: O_4  and  C_28
REMARK    2  A    between atoms: N_6  and  C_13
REMARK    3  A    between atoms: N_7  and  C_14
REMARK    4  A    between atoms: N_10  and  C_34
REMARK    5  A    between atoms: N_10  and  C_35
REMARK    6  A    between atoms: N_10  and  C_36
REMARK    7  A    between atoms: C_17  and  C_19
REMARK    8  A    between atoms: C_20  and  C_28
REMARK    9  A    between atoms: C_21  and  C_25
REMARK                            x       y       z     vdW  Elec       q    Type
REMARK                         _______ _______ _______ _____ _____    ______ ____
ROOT
ATOM      1  O   UNL     1      10.218  11.738  12.151  0.00  0.00    -0.370 OA
ATOM      2  O   UNL     1      11.271  13.969  10.241  0.00  0.00    -0.370 OA
ATOM     11  C   UNL     1      11.346  12.534  10.214  0.00  0.00    +0.171 C 
ATOM     12  C   UNL     1      11.524  12.064  11.645  0.00  0.00    +0.171 C 
ATOM     13  C   UNL     1      10.018  11.947   9.796  0.00  0.00    +0.130 C 
ATOM     14  C   UNL     1      12.078  13.271  12.363  0.00  0.00    +0.130 C 
ATOM     15  C   UNL     1       9.251  11.913  11.106  0.00  0.00    +0.185 C 
ATOM     16  C   UNL     1      11.477  14.428  11.586  0.00  0.00    +0.185 C 
ENDROOT
BRANCH  14   7
ATOM      7  N   UNL     1      13.521  13.292  12.256  0.00  0.00    -0.306 N 
ATOM      8  N   UNL     1      13.788  11.869  14.103  0.00  0.00    -0.214 NA
ATOM      9  N   UNL     1      15.700  12.706  12.898  0.00  0.00    -0.223 NA
ATOM     18  C   UNL     1      14.361  12.601  13.111  0.00  0.00    +0.216 A 
ATOM     21  C   UNL     1      14.638  11.209  14.917  0.00  0.00    +0.076 A 
ATOM     23  C   UNL     1      16.491  12.020  13.749  0.00  0.00    +0.116 A 
ATOM     24  C   UNL     1      16.010  11.247  14.787  0.00  0.00    +0.048 A 
ATOM     38  H   UNL     1      13.956  13.792  11.489  0.00  0.00    +0.149 HD
BRANCH  21  25
ATOM     25  C   UNL     1      14.009  10.435  15.962  0.00  0.00    +0.001 A 
ATOM     30  C   UNL     1      14.568  10.400  17.241  0.00  0.00    +0.012 A 
ATOM     31  C   UNL     1      12.839   9.720  15.696  0.00  0.00    +0.012 A 
ATOM     32  C   UNL     1      13.960   9.652  18.250  0.00  0.00    +0.024 A 
ATOM     33  C   UNL     1      12.232   8.972  16.704  0.00  0.00    +0.024 A 
ATOM     34  C   UNL     1      12.792   8.938  17.981  0.00  0.00    +0.029 A 
BRANCH  34  10
ATOM     10  N   UNL     1      12.178   8.182  19.002  0.00  0.00    -0.336 N 
ATOM     35  C   UNL     1      11.077   8.737  19.764  0.00  0.00    +0.129 C 
ATOM     36  C   UNL     1      12.649   6.847  19.311  0.00  0.00    +0.129 C 
ENDBRANCH  34  10
ENDBRANCH  21  25
ENDBRANCH  14   7
BRANCH  13   6
ATOM      3  O   UNL     1       9.126  11.026   7.227  0.00  0.00    -0.270 OA
ATOM      6  N   UNL     1      10.181  10.620   9.252  0.00  0.00    -0.304 N 
ATOM     17  C   UNL     1       9.714  10.268   7.993  0.00  0.00    +0.245 C 
ATOM     37  H   UNL     1      10.688   9.931   9.799  0.00  0.00    +0.149 HD
BRANCH  17  19
ATOM     19  C   UNL     1       9.937   8.856   7.588  0.00  0.00    +0.051 A 
ATOM     20  C   UNL     1      11.098   8.495   6.935  0.00  0.00    +0.071 A 
ATOM     22  C   UNL     1       8.950   7.939   7.890  0.00  0.00    +0.014 A 
ATOM     26  C   UNL     1      11.280   7.162   6.568  0.00  0.00    +0.016 A 
ATOM     27  C   UNL     1       9.132   6.605   7.523  0.00  0.00    +0.001 A 
ATOM     29  C   UNL     1      10.297   6.217   6.862  0.00  0.00    +0.001 A 
BRANCH  20  28
ATOM      5  O   UNL     1      12.343   9.948   5.499  0.00  0.00    -0.245 OA
ATOM     28  C   UNL     1      12.142   9.459   6.613  0.00  0.00    +0.338 C 
BRANCH  28   4
ATOM      4  O   UNL     1      12.900   9.782   7.696  0.00  0.00    -0.477 OA
ATOM     39  H   UNL     1      13.714  10.266   7.441  0.00  0.00    +0.295 HD
ENDBRANCH  28   4
ENDBRANCH  20  28
ENDBRANCH  17  19
ENDBRANCH  13   6
TORSDOF 7
ENDMDL
MODEL 5
REMARK VINA RESULT:      -6.9     25.736     29.748
REMARK  Name = 11911871
REMARK  9 active torsions:
REMARK  status: ('A' for Active; 'I' for Inactive)
REMARK    1  A    between atoms: O_4  and  C_28
REMARK    2  A    between atoms: N_6  and  C_13
REMARK    3  A    between atoms: N_7  and  C_14
REMARK    4  A    between atoms: N_10  and  C_34
REMARK    5  A    between atoms: N_10  and  C_35
REMARK    6  A    between atoms: N_10  and  C_36
REMARK    7  A    between atoms: C_17  and  C_19
REMARK    8  A    between atoms: C_20  and  C_28
REMARK    9  A    between atoms: C_21  and  C_25
REMARK                            x       y       z     vdW  Elec       q    Type
REMARK                         _______ _______ _______ _____ _____    ______ ____
ROOT
ATOM      1  O   UNL     1      -5.806 -11.728  10.174  0.00  0.00    -0.370 OA
ATOM      2  O   UNL     1      -4.617  -8.850   9.981  0.00  0.00    -0.370 OA
ATOM     11  C   UNL     1      -4.219 -10.118   9.434  0.00  0.00    +0.171 C 
ATOM     12  C   UNL     1      -4.515 -11.175  10.480  0.00  0.00    +0.171 C 
ATOM     13  C   UNL     1      -5.111 -10.491   8.272  0.00  0.00    +0.130 C 
ATOM     14  C   UNL     1      -4.570 -10.404  11.778  0.00  0.00    +0.130 C 
ATOM     15  C   UNL     1      -6.301 -11.130   8.968  0.00  0.00    +0.185 C 
ATOM     16  C   UNL     1      -5.061  -9.038  11.334  0.00  0.00    +0.185 C 
ENDROOT
BRANCH  14   7
ATOM      7  N   UNL     1      -3.245 -10.299  12.348  0.00  0.00    -0.306 N 
ATOM      8  N   UNL     1      -4.036 -10.657  14.528  0.00  0.00    -0.214 NA
ATOM      9  N   UNL     1      -1.689 -10.307  14.105  0.00  0.00    -0.223 NA
ATOM     18  C   UNL     1      -2.982 -10.425  13.700  0.00  0.00    +0.216 A 
ATOM     21  C   UNL     1      -3.743 -10.775  15.840  0.00  0.00    +0.076 A 
ATOM     23  C   UNL     1      -1.468 -10.434  15.430  0.00  0.00    +0.116 A 
ATOM     24  C   UNL     1      -2.466 -10.672  16.353  0.00  0.00    +0.048 A 
ATOM     38  H   UNL     1      -2.447 -10.178  11.735  0.00  0.00    +0.149 HD
BRANCH  21  25
ATOM     25  C   UNL     1      -4.875 -11.023  16.701  0.00  0.00    +0.001 A 
ATOM     30  C   UNL     1      -6.083 -11.467  16.159  0.00  0.00    +0.012 A 
ATOM     31  C   UNL     1      -4.765 -10.820  18.078  0.00  0.00    +0.012 A 
ATOM     32  C   UNL     1      -7.177 -11.706  16.991  0.00  0.00    +0.024 A 
ATOM     33  C   UNL     1      -5.859 -11.059  18.910  0.00  0.00    +0.024 A 
ATOM     34  C   UNL     1      -7.065 -11.502  18.367  0.00  0.00    +0.029 A 
BRANCH  34  10
ATOM     10  N   UNL     1      -8.171 -11.744  19.208  0.00  0.00    -0.336 N 
ATOM     35  C   UNL     1      -8.207 -12.922  20.051  0.00  0.00    +0.129 C 
ATOM     36  C   UNL     1      -9.293 -10.826  19.228  0.00  0.00    +0.129 C 
ENDBRANCH  34  10
ENDBRANCH  21  25
ENDBRANCH  14   7
BRANCH  13   6
ATOM      3  O   UNL     1      -5.602 -10.832   5.463  0.00  0.00    -0.270 OA
ATOM      6  N   UNL     1      -4.457 -11.428   7.391  0.00  0.00    -0.304 N 
ATOM     17  C   UNL     1      -4.763 -11.520   6.040  0.00  0.00    +0.245 C 
ATOM     37  H   UNL     1      -3.721 -12.017   7.769  0.00  0.00    +0.149 HD
BRANCH  17  19
ATOM     19  C   UNL     1      -4.020 -12.552   5.273  0.00  0.00    +0.051 A 
ATOM     20  C   UNL     1      -3.921 -13.841   5.757  0.00  0.00    +0.071 A 
ATOM     22  C   UNL     1      -3.444 -12.172   4.077  0.00  0.00    +0.014 A 
ATOM     26  C   UNL     1      -3.218 -14.789   5.015  0.00  0.00    +0.016 A 
ATOM     27  C   UNL     1      -2.741 -13.120   3.334  0.00  0.00    +0.001 A 
ATOM     29  C   UNL     1      -2.627 -14.429   3.802  0.00  0.00    +0.001 A 
BRANCH  20  28
ATOM      5  O   UNL     1      -5.719 -14.509   7.187  0.00  0.00    -0.245 OA
ATOM     28  C   UNL     1      -4.525 -14.248   7.019  0.00  0.00    +0.338 C 
BRANCH  28   4
ATOM      4  O   UNL     1      -3.616 -14.317   8.029  0.00  0.00    -0.477 OA
ATOM     39  H   UNL     1      -3.928 -14.891   8.762  0.00  0.00    +0.295 HD
ENDBRANCH  28   4
ENDBRANCH  20  28
ENDBRANCH  17  19
ENDBRANCH  13   6
TORSDOF 7
ENDMDL
MODEL 6
REMARK VINA RESULT:      -6.9     25.564     28.152
REMARK  Name = 11911871
REMARK  9 active torsions:
REMARK  status: ('A' for Active; 'I' for Inactive)
REMARK    1  A    between atoms: O_4  and  C_28
REMARK    2  A    between atoms: N_6  and  C_13
REMARK    3  A    between atoms: N_7  and  C_14
REMARK    4  A    between atoms: N_10  and  C_34
REMARK    5  A    between atoms: N_10  and  C_35
REMARK    6  A    between atoms: N_10  and  C_36
REMARK    7  A    between atoms: C_17  and  C_19
REMARK    8  A    between atoms: C_20  and  C_28
REMARK    9  A    between atoms: C_21  and  C_25
REMARK                            x       y       z     vdW  Elec       q    Type
REMARK                         _______ _______ _______ _____ _____    ______ ____
ROOT
ATOM      1  O   UNL     1     -13.822   6.278  13.088  0.00  0.00    -0.370 OA
ATOM      2  O   UNL     1     -16.173   8.316  13.323  0.00  0.00    -0.370 OA
ATOM     11  C   UNL     1     -15.407   7.582  14.292  0.00  0.00    +0.171 C 
ATOM     12  C   UNL     1     -15.121   6.215  13.701  0.00  0.00    +0.171 C 
ATOM     13  C   UNL     1     -14.039   8.203  14.459  0.00  0.00    +0.130 C 
ATOM     14  C   UNL     1     -16.188   6.038  12.647  0.00  0.00    +0.130 C 
ATOM     15  C   UNL     1     -13.256   7.576  13.319  0.00  0.00    +0.185 C 
ATOM     16  C   UNL     1     -16.457   7.464  12.202  0.00  0.00    +0.185 C 
ENDROOT
BRANCH  14   7
ATOM      7  N   UNL     1     -17.378   5.466  13.238  0.00  0.00    -0.306 N 
ATOM      8  N   UNL     1     -17.183   3.491  11.985  0.00  0.00    -0.214 NA
ATOM      9  N   UNL     1     -18.995   3.793  13.547  0.00  0.00    -0.223 NA
ATOM     18  C   UNL     1     -17.866   4.213  12.914  0.00  0.00    +0.216 A 
ATOM     21  C   UNL     1     -17.688   2.274  11.693  0.00  0.00    +0.076 A 
ATOM     23  C   UNL     1     -19.444   2.567  13.206  0.00  0.00    +0.116 A 
ATOM     24  C   UNL     1     -18.825   1.755  12.278  0.00  0.00    +0.048 A 
ATOM     38  H   UNL     1     -17.865   5.973  13.969  0.00  0.00    +0.149 HD
BRANCH  21  25
ATOM     25  C   UNL     1     -16.947   1.524  10.707  0.00  0.00    +0.001 A 
ATOM     30  C   UNL     1     -16.944   0.128  10.745  0.00  0.00    +0.012 A 
ATOM     31  C   UNL     1     -16.230   2.193   9.713  0.00  0.00    +0.012 A 
ATOM     32  C   UNL     1     -16.227  -0.596   9.793  0.00  0.00    +0.024 A 
ATOM     33  C   UNL     1     -15.513   1.468   8.760  0.00  0.00    +0.024 A 
ATOM     34  C   UNL     1     -15.511   0.074   8.800  0.00  0.00    +0.029 A 
BRANCH  34  10
ATOM     10  N   UNL     1     -14.786  -0.659   7.837  0.00  0.00    -0.336 N 
ATOM     35  C   UNL     1     -14.739  -2.105   7.899  0.00  0.00    +0.129 C 
ATOM     36  C   UNL     1     -14.067   0.027   6.782  0.00  0.00    +0.129 C 
ENDBRANCH  34  10
ENDBRANCH  21  25
ENDBRANCH  14   7
BRANCH  13   6
ATOM      3  O   UNL     1     -13.829   9.915  16.755  0.00  0.00    -0.270 OA
ATOM      6  N   UNL     1     -13.463   7.863  15.738  0.00  0.00    -0.304 N 
ATOM     17  C   UNL     1     -13.406   8.762  16.793  0.00  0.00    +0.245 C 
ATOM     37  H   UNL     1     -13.119   6.918  15.878  0.00  0.00    +0.149 HD
BRANCH  17  19
ATOM     19  C   UNL     1     -12.759   8.268  18.035  0.00  0.00    +0.051 A 
ATOM     20  C   UNL     1     -11.385   8.169  18.111  0.00  0.00    +0.071 A 
ATOM     22  C   UNL     1     -13.579   7.919  19.090  0.00  0.00    +0.014 A 
ATOM     26  C   UNL     1     -10.805   7.702  19.291  0.00  0.00    +0.016 A 
ATOM     27  C   UNL     1     -13.000   7.453  20.271  0.00  0.00    +0.001 A 
ATOM     29  C   UNL     1     -11.613   7.344  20.371  0.00  0.00    +0.001 A 
BRANCH  20  28
ATOM      5  O   UNL     1     -10.059   9.661  16.792  0.00  0.00    -0.245 OA
ATOM     28  C   UNL     1     -10.515   8.534  17.001  0.00  0.00    +0.338 C 
BRANCH  28   4
ATOM      4  O   UNL     1     -10.241   7.477  16.189  0.00  0.00    -0.477 OA
ATOM     39  H   UNL     1      -9.277   7.371  16.041  0.00  0.00    +0.295 HD
ENDBRANCH  28   4
ENDBRANCH  20  28
ENDBRANCH  17  19
ENDBRANCH  13   6
TORSDOF 7
ENDMDL
MODEL 7
REMARK VINA RESULT:      -6.8     10.126     12.992
REMARK  Name = 11911871
REMARK  9 active torsions:
REMARK  status: ('A' for Active; 'I' for Inactive)
REMARK    1  A    between atoms: O_4  and  C_28
REMARK    2  A    between atoms: N_6  and  C_13
REMARK    3  A    between atoms: N_7  and  C_14
REMARK    4  A    between atoms: N_10  and  C_34
REMARK    5  A    between atoms: N_10  and  C_35
REMARK    6  A    between atoms: N_10  and  C_36
REMARK    7  A    between atoms: C_17  and  C_19
REMARK    8  A    between atoms: C_20  and  C_28
REMARK    9  A    between atoms: C_21  and  C_25
REMARK                            x       y       z     vdW  Elec       q    Type
REMARK                         _______ _______ _______ _____ _____    ______ ____
ROOT
ATOM      1  O   UNL     1      14.045   9.697   4.232  0.00  0.00    -0.370 OA
ATOM      2  O   UNL     1      13.428  10.831   7.072  0.00  0.00    -0.370 OA
ATOM     11  C   UNL     1      14.343   9.834   6.588  0.00  0.00    +0.171 C 
ATOM     12  C   UNL     1      13.645   9.085   5.469  0.00  0.00    +0.171 C 
ATOM     13  C   UNL     1      15.523  10.492   5.909  0.00  0.00    +0.130 C 
ATOM     14  C   UNL     1      12.176   9.328   5.723  0.00  0.00    +0.130 C 
ATOM     15  C   UNL     1      14.997  10.735   4.506  0.00  0.00    +0.185 C 
ATOM     16  C   UNL     1      12.173  10.693   6.386  0.00  0.00    +0.185 C 
ENDROOT
BRANCH  14   7
ATOM      7  N   UNL     1      11.659   8.329   6.632  0.00  0.00    -0.306 N 
ATOM      8  N   UNL     1      11.014   6.909   4.878  0.00  0.00    -0.214 NA
ATOM      9  N   UNL     1      10.643   6.285   7.177  0.00  0.00    -0.223 NA
ATOM     18  C   UNL     1      11.089   7.139   6.217  0.00  0.00    +0.216 A 
ATOM     21  C   UNL     1      10.453   5.739   4.510  0.00  0.00    +0.076 A 
ATOM     23  C   UNL     1      10.093   5.134   6.737  0.00  0.00    +0.116 A 
ATOM     24  C   UNL     1       9.970   4.804   5.402  0.00  0.00    +0.048 A 
ATOM     38  H   UNL     1      11.757   8.466   7.632  0.00  0.00    +0.149 HD
BRANCH  21  25
ATOM     25  C   UNL     1      10.386   5.513   3.085  0.00  0.00    +0.001 A 
ATOM     30  C   UNL     1      10.006   6.550   2.229  0.00  0.00    +0.012 A 
ATOM     31  C   UNL     1      10.700   4.259   2.559  0.00  0.00    +0.012 A 
ATOM     32  C   UNL     1       9.940   6.331   0.853  0.00  0.00    +0.024 A 
ATOM     33  C   UNL     1      10.634   4.040   1.183  0.00  0.00    +0.024 A 
ATOM     34  C   UNL     1      10.254   5.077   0.329  0.00  0.00    +0.029 A 
BRANCH  34  10
ATOM     10  N   UNL     1      10.188   4.856  -1.062  0.00  0.00    -0.336 N 
ATOM     35  C   UNL     1       9.248   5.599  -1.878  0.00  0.00    +0.129 C 
ATOM     36  C   UNL     1      11.048   3.875  -1.692  0.00  0.00    +0.129 C 
ENDBRANCH  34  10
ENDBRANCH  21  25
ENDBRANCH  14   7
BRANCH  13   6
ATOM      3  O   UNL     1      18.254  11.253   5.454  0.00  0.00    -0.270 OA
ATOM      6  N   UNL     1      16.670   9.617   5.893  0.00  0.00    -0.304 N 
ATOM     17  C   UNL     1      17.958  10.079   5.663  0.00  0.00    +0.245 C 
ATOM     37  H   UNL     1      16.531   8.630   6.092  0.00  0.00    +0.149 HD
BRANCH  17  19
ATOM     19  C   UNL     1      19.028   9.049   5.652  0.00  0.00    +0.051 A 
ATOM     20  C   UNL     1      19.217   8.254   4.540  0.00  0.00    +0.071 A 
ATOM     22  C   UNL     1      19.810   8.924   6.784  0.00  0.00    +0.014 A 
ATOM     26  C   UNL     1      20.230   7.295   4.559  0.00  0.00    +0.016 A 
ATOM     27  C   UNL     1      20.824   7.966   6.803  0.00  0.00    +0.001 A 
ATOM     29  C   UNL     1      21.033   7.151   5.690  0.00  0.00    +0.001 A 
BRANCH  20  28
ATOM      5  O   UNL     1      18.678   9.053   2.351  0.00  0.00    -0.245 OA
ATOM     28  C   UNL     1      18.394   8.380   3.344  0.00  0.00    +0.338 C 
BRANCH  28   4
ATOM      4  O   UNL     1      17.244   7.658   3.429  0.00  0.00    -0.477 OA
ATOM     39  H   UNL     1      17.323   6.791   2.974  0.00  0.00    +0.295 HD
ENDBRANCH  28   4
ENDBRANCH  20  28
ENDBRANCH  17  19
ENDBRANCH  13   6
TORSDOF 7
ENDMDL
MODEL 8
REMARK VINA RESULT:      -6.8      8.146     13.604
REMARK  Name = 11911871
REMARK  9 active torsions:
REMARK  status: ('A' for Active; 'I' for Inactive)
REMARK    1  A    between atoms: O_4  and  C_28
REMARK    2  A    between atoms: N_6  and  C_13
REMARK    3  A    between atoms: N_7  and  C_14
REMARK    4  A    between atoms: N_10  and  C_34
REMARK    5  A    between atoms: N_10  and  C_35
REMARK    6  A    between atoms: N_10  and  C_36
REMARK    7  A    between atoms: C_17  and  C_19
REMARK    8  A    between atoms: C_20  and  C_28
REMARK    9  A    between atoms: C_21  and  C_25
REMARK                            x       y       z     vdW  Elec       q    Type
REMARK                         _______ _______ _______ _____ _____    ______ ____
ROOT
ATOM      1  O   UNL     1      17.048   5.858  20.541  0.00  0.00    -0.370 OA
ATOM      2  O   UNL     1      18.196   8.323  22.072  0.00  0.00    -0.370 OA
ATOM     11  C   UNL     1      17.643   8.152  20.757  0.00  0.00    +0.171 C 
ATOM     12  C   UNL     1      18.097   6.797  20.248  0.00  0.00    +0.171 C 
ATOM     13  C   UNL     1      16.138   8.030  20.833  0.00  0.00    +0.130 C 
ATOM     14  C   UNL     1      19.324   6.486  21.073  0.00  0.00    +0.130 C 
ATOM     15  C   UNL     1      15.946   6.555  21.139  0.00  0.00    +0.185 C 
ATOM     16  C   UNL     1      19.037   7.200  22.381  0.00  0.00    +0.185 C 
ENDROOT
BRANCH  14   7
ATOM      7  N   UNL     1      20.499   7.048  20.444  0.00  0.00    -0.306 N 
ATOM      8  N   UNL     1      21.906   5.406  21.357  0.00  0.00    -0.214 NA
ATOM      9  N   UNL     1      22.788   7.141  19.934  0.00  0.00    -0.223 NA
ATOM     18  C   UNL     1      21.768   6.515  20.582  0.00  0.00    +0.216 A 
ATOM     21  C   UNL     1      23.158   4.915  21.469  0.00  0.00    +0.076 A 
ATOM     23  C   UNL     1      24.013   6.596  20.091  0.00  0.00    +0.116 A 
ATOM     24  C   UNL     1      24.259   5.473  20.854  0.00  0.00    +0.048 A 
ATOM     38  H   UNL     1      20.400   7.842  19.822  0.00  0.00    +0.149 HD
BRANCH  21  25
ATOM     25  C   UNL     1      23.281   3.736  22.294  0.00  0.00    +0.001 A 
ATOM     30  C   UNL     1      23.973   2.619  21.821  0.00  0.00    +0.012 A 
ATOM     31  C   UNL     1      22.709   3.710  23.568  0.00  0.00    +0.012 A 
ATOM     32  C   UNL     1      24.091   1.480  22.617  0.00  0.00    +0.024 A 
ATOM     33  C   UNL     1      22.827   2.571  24.364  0.00  0.00    +0.024 A 
ATOM     34  C   UNL     1      23.518   1.456  23.890  0.00  0.00    +0.029 A 
BRANCH  34  10
ATOM     10  N   UNL     1      23.638   0.304  24.695  0.00  0.00    -0.336 N 
ATOM     35  C   UNL     1      22.469  -0.272  25.329  0.00  0.00    +0.129 C 
ATOM     36  C   UNL     1      24.933  -0.309  24.911  0.00  0.00    +0.129 C 
ENDBRANCH  34  10
ENDBRANCH  21  25
ENDBRANCH  14   7
BRANCH  13   6
ATOM      3  O   UNL     1      14.044   9.955  20.439  0.00  0.00    -0.270 OA
ATOM      6  N   UNL     1      15.522   8.388  19.578  0.00  0.00    -0.304 N 
ATOM     17  C   UNL     1      14.511   9.335  19.487  0.00  0.00    +0.245 C 
ATOM     37  H   UNL     1      15.866   7.953  18.727  0.00  0.00    +0.149 HD
BRANCH  17  19
ATOM     19  C   UNL     1      13.962   9.572  18.127  0.00  0.00    +0.051 A 
ATOM     20  C   UNL     1      12.829   8.906  17.709  0.00  0.00    +0.071 A 
ATOM     22  C   UNL     1      14.625  10.472  17.316  0.00  0.00    +0.014 A 
ATOM     26  C   UNL     1      12.336   9.149  16.427  0.00  0.00    +0.016 A 
ATOM     27  C   UNL     1      14.132  10.716  16.033  0.00  0.00    +0.001 A 
ATOM     29  C   UNL     1      12.988  10.055  15.589  0.00  0.00    +0.001 A 
BRANCH  20  28
ATOM      5  O   UNL     1      12.545   6.840  18.882  0.00  0.00    -0.245 OA
ATOM     28  C   UNL     1      12.126   7.955  18.560  0.00  0.00    +0.338 C 
BRANCH  28   4
ATOM      4  O   UNL     1      10.923   8.429  18.982  0.00  0.00    -0.477 OA
ATOM     39  H   UNL     1      10.933   9.404  19.091  0.00  0.00    +0.295 HD
ENDBRANCH  28   4
ENDBRANCH  20  28
ENDBRANCH  17  19
ENDBRANCH  13   6
TORSDOF 7
ENDMDL
MODEL 9
REMARK VINA RESULT:      -6.8     26.528     27.941
REMARK  Name = 11911871
REMARK  9 active torsions:
REMARK  status: ('A' for Active; 'I' for Inactive)
REMARK    1  A    between atoms: O_4  and  C_28
REMARK    2  A    between atoms: N_6  and  C_13
REMARK    3  A    between atoms: N_7  and  C_14
REMARK    4  A    between atoms: N_10  and  C_34
REMARK    5  A    between atoms: N_10  and  C_35
REMARK    6  A    between atoms: N_10  and  C_36
REMARK    7  A    between atoms: C_17  and  C_19
REMARK    8  A    between atoms: C_20  and  C_28
REMARK    9  A    between atoms: C_21  and  C_25
REMARK                            x       y       z     vdW  Elec       q    Type
REMARK                         _______ _______ _______ _____ _____    ______ ____
ROOT
ATOM      1  O   UNL     1      -3.986 -13.023  12.356  0.00  0.00    -0.370 OA
ATOM      2  O   UNL     1      -2.773 -10.166  12.044  0.00  0.00    -0.370 OA
ATOM     11  C   UNL     1      -3.735 -10.733  12.948  0.00  0.00    +0.171 C 
ATOM     12  C   UNL     1      -4.568 -11.724  12.159  0.00  0.00    +0.171 C 
ATOM     13  C   UNL     1      -3.041 -11.583  13.988  0.00  0.00    +0.130 C 
ATOM     14  C   UNL     1      -4.399 -11.287  10.723  0.00  0.00    +0.130 C 
ATOM     15  C   UNL     1      -2.886 -12.912  13.270  0.00  0.00    +0.185 C 
ATOM     16  C   UNL     1      -3.009 -10.676  10.722  0.00  0.00    +0.185 C 
ENDROOT
BRANCH  14   7
ATOM      7  N   UNL     1      -5.386 -10.284  10.390  0.00  0.00    -0.306 N 
ATOM      8  N   UNL     1      -5.291 -10.793   8.101  0.00  0.00    -0.214 NA
ATOM      9  N   UNL     1      -6.762  -9.071   8.926  0.00  0.00    -0.223 NA
ATOM     18  C   UNL     1      -5.826 -10.043   9.101  0.00  0.00    +0.216 A 
ATOM     21  C   UNL     1      -5.743 -10.531   6.857  0.00  0.00    +0.076 A 
ATOM     23  C   UNL     1      -7.168  -8.862   7.656  0.00  0.00    +0.116 A 
ATOM     24  C   UNL     1      -6.689  -9.568   6.572  0.00  0.00    +0.048 A 
ATOM     38  H   UNL     1      -5.830  -9.756  11.133  0.00  0.00    +0.149 HD
BRANCH  21  25
ATOM     25  C   UNL     1      -5.163 -11.340   5.811  0.00  0.00    +0.001 A 
ATOM     30  C   UNL     1      -5.783 -11.421   4.562  0.00  0.00    +0.012 A 
ATOM     31  C   UNL     1      -3.981 -12.045   6.045  0.00  0.00    +0.012 A 
ATOM     32  C   UNL     1      -5.224 -12.204   3.552  0.00  0.00    +0.024 A 
ATOM     33  C   UNL     1      -3.421 -12.828   5.035  0.00  0.00    +0.024 A 
ATOM     34  C   UNL     1      -4.042 -12.907   3.789  0.00  0.00    +0.029 A 
BRANCH  34  10
ATOM     10  N   UNL     1      -3.476 -13.698   2.768  0.00  0.00    -0.336 N 
ATOM     35  C   UNL     1      -3.102 -15.074   3.028  0.00  0.00    +0.129 C 
ATOM     36  C   UNL     1      -3.249 -13.142   1.449  0.00  0.00    +0.129 C 
ENDBRANCH  34  10
ENDBRANCH  21  25
ENDBRANCH  14   7
BRANCH  13   6
ATOM      3  O   UNL     1      -2.959  -9.913  16.322  0.00  0.00    -0.270 OA
ATOM      6  N   UNL     1      -3.850 -11.721  15.175  0.00  0.00    -0.304 N 
ATOM     17  C   UNL     1      -3.738 -10.861  16.258  0.00  0.00    +0.245 C 
ATOM     37  H   UNL     1      -4.551 -12.456  15.201  0.00  0.00    +0.149 HD
BRANCH  17  19
ATOM     19  C   UNL     1      -4.623 -11.152  17.414  0.00  0.00    +0.051 A 
ATOM     20  C   UNL     1      -5.975 -10.885  17.341  0.00  0.00    +0.071 A 
ATOM     22  C   UNL     1      -4.043 -11.694  18.545  0.00  0.00    +0.014 A 
ATOM     26  C   UNL     1      -6.781 -11.170  18.442  0.00  0.00    +0.016 A 
ATOM     27  C   UNL     1      -4.850 -11.980  19.647  0.00  0.00    +0.001 A 
ATOM     29  C   UNL     1      -6.219 -11.718  19.596  0.00  0.00    +0.001 A 
BRANCH  20  28
ATOM      5  O   UNL     1      -6.780 -10.908  15.088  0.00  0.00    -0.245 OA
ATOM     28  C   UNL     1      -6.592 -10.312  16.151  0.00  0.00    +0.338 C 
BRANCH  28   4
ATOM      4  O   UNL     1      -6.957  -9.014  16.331  0.00  0.00    -0.477 OA
ATOM     39  H   UNL     1      -7.580  -8.711  15.637  0.00  0.00    +0.295 HD
ENDBRANCH  28   4
ENDBRANCH  20  28
ENDBRANCH  17  19
ENDBRANCH  13   6
TORSDOF 7
ENDMDL
MODEL 10
REMARK VINA RESULT:      -6.7     26.170     28.248
REMARK  Name = 11911871
REMARK  9 active torsions:
REMARK  status: ('A' for Active; 'I' for Inactive)
REMARK    1  A    between atoms: O_4  and  C_28
REMARK    2  A    between atoms: N_6  and  C_13
REMARK    3  A    between atoms: N_7  and  C_14
REMARK    4  A    between atoms: N_10  and  C_34
REMARK    5  A    between atoms: N_10  and  C_35
REMARK    6  A    between atoms: N_10  and  C_36
REMARK    7  A    between atoms: C_17  and  C_19
REMARK    8  A    between atoms: C_20  and  C_28
REMARK    9  A    between atoms: C_21  and  C_25
REMARK                            x       y       z     vdW  Elec       q    Type
REMARK                         _______ _______ _______ _____ _____    ______ ____
ROOT
ATOM      1  O   UNL     1      -3.209 -11.845  10.952  0.00  0.00    -0.370 OA
ATOM      2  O   UNL     1      -3.917  -8.820  10.668  0.00  0.00    -0.370 OA
ATOM     11  C   UNL     1      -4.382  -9.862  11.543  0.00  0.00    +0.171 C 
ATOM     12  C   UNL     1      -4.443 -11.141  10.729  0.00  0.00    +0.171 C 
ATOM     13  C   UNL     1      -3.350 -10.152  12.608  0.00  0.00    +0.130 C 
ATOM     14  C   UNL     1      -4.523 -10.664   9.299  0.00  0.00    +0.130 C 
ATOM     15  C   UNL     1      -2.416 -11.119  11.901  0.00  0.00    +0.185 C 
ATOM     16  C   UNL     1      -3.767  -9.349   9.342  0.00  0.00    +0.185 C 
ENDROOT
BRANCH  14   7
ATOM      7  N   UNL     1      -5.903 -10.437   8.928  0.00  0.00    -0.306 N 
ATOM      8  N   UNL     1      -5.555 -11.201   6.737  0.00  0.00    -0.214 NA
ATOM      9  N   UNL     1      -7.728 -10.445   7.455  0.00  0.00    -0.223 NA
ATOM     18  C   UNL     1      -6.410 -10.703   7.670  0.00  0.00    +0.216 A 
ATOM     21  C   UNL     1      -6.084 -11.448   5.521  0.00  0.00    +0.076 A 
ATOM     23  C   UNL     1      -8.191 -10.714   6.216  0.00  0.00    +0.116 A 
ATOM     24  C   UNL     1      -7.407 -11.223   5.200  0.00  0.00    +0.048 A 
ATOM     38  H   UNL     1      -6.560 -10.115   9.630  0.00  0.00    +0.149 HD
BRANCH  21  25
ATOM     25  C   UNL     1      -5.160 -11.979   4.547  0.00  0.00    +0.001 A 
ATOM     30  C   UNL     1      -3.808 -12.121   4.868  0.00  0.00    +0.012 A 
ATOM     31  C   UNL     1      -5.615 -12.353   3.280  0.00  0.00    +0.012 A 
ATOM     32  C   UNL     1      -2.916 -12.632   3.926  0.00  0.00    +0.024 A 
ATOM     33  C   UNL     1      -4.723 -12.865   2.339  0.00  0.00    +0.024 A 
ATOM     34  C   UNL     1      -3.373 -13.005   2.661  0.00  0.00    +0.029 A 
BRANCH  34  10
ATOM     10  N   UNL     1      -2.470 -13.523   1.710  0.00  0.00    -0.336 N 
ATOM     35  C   UNL     1      -2.864 -13.655   0.322  0.00  0.00    +0.129 C 
ATOM     36  C   UNL     1      -1.142 -13.943   2.110  0.00  0.00    +0.129 C 
ENDBRANCH  34  10
ENDBRANCH  21  25
ENDBRANCH  14   7
BRANCH  13   6
ATOM      3  O   UNL     1      -2.160 -10.451  15.204  0.00  0.00    -0.270 OA
ATOM      6  N   UNL     1      -3.954 -10.763  13.768  0.00  0.00    -0.304 N 
ATOM     17  C   UNL     1      -3.297 -10.861  14.986  0.00  0.00    +0.245 C 
ATOM     37  H   UNL     1      -4.910 -11.101  13.696  0.00  0.00    +0.149 HD
BRANCH  17  19
ATOM     19  C   UNL     1      -4.045 -11.540  16.076  0.00  0.00    +0.051 A 
ATOM     20  C   UNL     1      -4.361 -12.879  15.972  0.00  0.00    +0.071 A 
ATOM     22  C   UNL     1      -4.401 -10.785  17.176  0.00  0.00    +0.014 A 
ATOM     26  C   UNL     1      -5.063 -13.489  17.011  0.00  0.00    +0.016 A 
ATOM     27  C   UNL     1      -5.103 -11.395  18.216  0.00  0.00    +0.001 A 
ATOM     29  C   UNL     1      -5.434 -12.748  18.134  0.00  0.00    +0.001 A 
BRANCH  20  28
ATOM      5  O   UNL     1      -4.603 -13.718  13.745  0.00  0.00    -0.245 OA
ATOM     28  C   UNL     1      -3.989 -13.680  14.814  0.00  0.00    +0.338 C 
BRANCH  28   4
ATOM      4  O   UNL     1      -2.859 -14.407  15.029  0.00  0.00    -0.477 OA
ATOM     39  H   UNL     1      -2.321 -14.036  15.761  0.00  0.00    +0.295 HD
ENDBRANCH  28   4
ENDBRANCH  20  28
ENDBRANCH  17  19
ENDBRANCH  13   6
TORSDOF 7
ENDMDL
