MODEL 1
REMARK VINA RESULT:      -7.0      0.000      0.000
REMARK  Name = 75536036
REMARK  10 active torsions:
REMARK  status: ('A' for Active; 'I' for Inactive)
REMARK    1  A    between atoms: O_3  and  C_19
REMARK    2  A    between atoms: O_3  and  C_26
REMARK    3  A    between atoms: N_7  and  C_16
REMARK    4  A    between atoms: N_8  and  C_18
REMARK    5  A    between atoms: C_10  and  C_14
REMARK    6  A    between atoms: C_16  and  C_17
REMARK    7  A    between atoms: C_16  and  C_19
REMARK    8  A    between atoms: C_17  and  C_20
REMARK    9  A    between atoms: C_18  and  C_21
REMARK   10  A    between atoms: C_18  and  C_22
REMARK                            x       y       z     vdW  Elec       q    Type
REMARK                         _______ _______ _______ _____ _____    ______ ____
ROOT
ATOM      1  O   UNL     1      12.857  12.114  19.169  0.00  0.00    -0.274 OA
ATOM      7  N   UNL     1      12.976   9.897  19.871  0.00  0.00    -0.301 N 
ATOM     14  C   UNL     1      13.384  11.004  19.147  0.00  0.00    +0.236 C 
ATOM     29  H   UNL     1      13.495   9.028  19.794  0.00  0.00    +0.150 HD
ENDROOT
BRANCH  14  10
ATOM      2  O   UNL     1      13.986   7.320  17.030  0.00  0.00    -0.253 OA
ATOM      5  N   UNL     1      14.250   9.595  17.431  0.00  0.00    -0.272 N 
ATOM      6  N   UNL     1      14.214  12.289  16.404  0.00  0.00    -0.312 NA
ATOM      8  N   UNL     1      15.101   7.969  18.928  0.00  0.00    -0.297 N 
ATOM     10  C   UNL     1      14.599  10.721  18.313  0.00  0.00    +0.177 C 
ATOM     11  C   UNL     1      15.065  11.966  17.550  0.00  0.00    +0.113 C 
ATOM     12  C   UNL     1      13.532   9.943  16.199  0.00  0.00    +0.125 C 
ATOM     13  C   UNL     1      14.138  11.148  15.494  0.00  0.00    +0.100 C 
ATOM     15  C   UNL     1      14.418   8.231  17.745  0.00  0.00    +0.303 C 
ATOM     28  H   UNL     1      14.607  13.090  15.910  0.00  0.00    +0.122 HD
ATOM     30  H   UNL     1      15.310   8.711  19.581  0.00  0.00    +0.150 HD
BRANCH   8  18
ATOM     18  C   UNL     1      15.347   6.621  19.391  0.00  0.00    +0.068 C 
ATOM     21  C   UNL     1      15.142   6.533  20.897  0.00  0.00    +0.027 C 
ATOM     22  C   UNL     1      16.747   6.168  18.996  0.00  0.00    +0.027 C 
ENDBRANCH   8  18
ENDBRANCH  14  10
BRANCH   7  16
ATOM     16  C   UNL     1      11.842   9.913  20.768  0.00  0.00    +0.186 C 
BRANCH  16  19
ATOM      4  O   UNL     1      10.438   8.386  19.528  0.00  0.00    -0.249 OA
ATOM     19  C   UNL     1      10.959   8.684  20.598  0.00  0.00    +0.328 C 
BRANCH  19   3
ATOM      3  O   UNL     1      10.816   7.989  21.761  0.00  0.00    -0.467 OA
ATOM     26  C   UNL     1      11.046   6.579  21.676  0.00  0.00    +0.280 C 
ENDBRANCH  19   3
ENDBRANCH  16  19
BRANCH  16  17
ATOM     17  C   UNL     1      12.274  10.114  22.229  0.00  0.00    +0.070 C 
BRANCH  17  20
ATOM      9  N   UNL     1      10.546  12.061  24.986  0.00  0.00    -0.263 NA
ATOM     20  C   UNL     1      11.554  11.231  22.952  0.00  0.00    -0.027 A 
ATOM     23  C   UNL     1      11.238  12.418  22.302  0.00  0.00    +0.006 A 
ATOM     24  C   UNL     1      11.190  11.103  24.283  0.00  0.00    +0.114 A 
ATOM     25  C   UNL     1      10.576  13.427  22.993  0.00  0.00    +0.020 A 
ATOM     27  C   UNL     1      10.255  13.201  24.321  0.00  0.00    +0.111 A 
ENDBRANCH  17  20
ENDBRANCH  16  17
ENDBRANCH   7  16
TORSDOF 7
ENDMDL
MODEL 2
REMARK VINA RESULT:      -6.5     12.504     15.437
REMARK  Name = 75536036
REMARK  10 active torsions:
REMARK  status: ('A' for Active; 'I' for Inactive)
REMARK    1  A    between atoms: O_3  and  C_19
REMARK    2  A    between atoms: O_3  and  C_26
REMARK    3  A    between atoms: N_7  and  C_16
REMARK    4  A    between atoms: N_8  and  C_18
REMARK    5  A    between atoms: C_10  and  C_14
REMARK    6  A    between atoms: C_16  and  C_17
REMARK    7  A    between atoms: C_16  and  C_19
REMARK    8  A    between atoms: C_17  and  C_20
REMARK    9  A    between atoms: C_18  and  C_21
REMARK   10  A    between atoms: C_18  and  C_22
REMARK                            x       y       z     vdW  Elec       q    Type
REMARK                         _______ _______ _______ _____ _____    ______ ____
ROOT
ATOM      1  O   UNL     1      10.609   5.293   4.514  0.00  0.00    -0.274 OA
ATOM      7  N   UNL     1      10.801   6.526   6.480  0.00  0.00    -0.301 N 
ATOM     14  C   UNL     1      11.198   6.105   5.223  0.00  0.00    +0.236 C 
ATOM     29  H   UNL     1      11.353   7.219   6.975  0.00  0.00    +0.150 HD
ENDROOT
BRANCH  14  10
ATOM      2  O   UNL     1      12.249   6.627   1.094  0.00  0.00    -0.253 OA
ATOM      5  N   UNL     1      12.259   7.148   3.360  0.00  0.00    -0.272 N 
ATOM      6  N   UNL     1      11.969   9.144   5.421  0.00  0.00    -0.312 NA
ATOM      8  N   UNL     1      13.232   5.147   2.547  0.00  0.00    -0.297 N 
ATOM     10  C   UNL     1      12.461   6.780   4.771  0.00  0.00    +0.177 C 
ATOM     11  C   UNL     1      12.815   7.974   5.664  0.00  0.00    +0.113 C 
ATOM     12  C   UNL     1      11.545   8.408   3.120  0.00  0.00    +0.125 C 
ATOM     13  C   UNL     1      12.040   9.535   4.015  0.00  0.00    +0.100 C 
ATOM     15  C   UNL     1      12.560   6.329   2.252  0.00  0.00    +0.303 C 
ATOM     28  H   UNL     1      12.289   9.916   6.004  0.00  0.00    +0.122 HD
ATOM     30  H   UNL     1      13.342   4.839   3.503  0.00  0.00    +0.150 HD
BRANCH   8  18
ATOM     18  C   UNL     1      13.605   4.199   1.521  0.00  0.00    +0.068 C 
ATOM     21  C   UNL     1      12.630   3.030   1.501  0.00  0.00    +0.027 C 
ATOM     22  C   UNL     1      15.036   3.721   1.731  0.00  0.00    +0.027 C 
ENDBRANCH   8  18
ENDBRANCH  14  10
BRANCH   7  16
ATOM     16  C   UNL     1       9.604   6.044   7.133  0.00  0.00    +0.186 C 
BRANCH  16  19
ATOM      4  O   UNL     1       9.847   3.698   7.663  0.00  0.00    -0.249 OA
ATOM     19  C   UNL     1       9.888   4.862   8.050  0.00  0.00    +0.328 C 
BRANCH  19   3
ATOM      3  O   UNL     1      10.169   5.256   9.324  0.00  0.00    -0.467 OA
ATOM     26  C   UNL     1       9.428   4.599  10.356  0.00  0.00    +0.280 C 
ENDBRANCH  19   3
ENDBRANCH  16  19
BRANCH  16  17
ATOM     17  C   UNL     1       8.858   7.172   7.861  0.00  0.00    +0.070 C 
BRANCH  17  20
ATOM      9  N   UNL     1       9.469  10.829   7.070  0.00  0.00    -0.263 NA
ATOM     20  C   UNL     1       8.843   8.495   7.130  0.00  0.00    -0.027 A 
ATOM     23  C   UNL     1       8.222   8.622   5.892  0.00  0.00    +0.006 A 
ATOM     24  C   UNL     1       9.447   9.619   7.671  0.00  0.00    +0.114 A 
ATOM     25  C   UNL     1       8.224   9.852   5.243  0.00  0.00    +0.020 A 
ATOM     27  C   UNL     1       8.856  10.915   5.869  0.00  0.00    +0.111 A 
ENDBRANCH  17  20
ENDBRANCH  16  17
ENDBRANCH   7  16
TORSDOF 7
ENDMDL
MODEL 3
REMARK VINA RESULT:      -6.0      2.267      6.548
REMARK  Name = 75536036
REMARK  10 active torsions:
REMARK  status: ('A' for Active; 'I' for Inactive)
REMARK    1  A    between atoms: O_3  and  C_19
REMARK    2  A    between atoms: O_3  and  C_26
REMARK    3  A    between atoms: N_7  and  C_16
REMARK    4  A    between atoms: N_8  and  C_18
REMARK    5  A    between atoms: C_10  and  C_14
REMARK    6  A    between atoms: C_16  and  C_17
REMARK    7  A    between atoms: C_16  and  C_19
REMARK    8  A    between atoms: C_17  and  C_20
REMARK    9  A    between atoms: C_18  and  C_21
REMARK   10  A    between atoms: C_18  and  C_22
REMARK                            x       y       z     vdW  Elec       q    Type
REMARK                         _______ _______ _______ _____ _____    ______ ____
ROOT
ATOM      1  O   UNL     1      13.019   9.721  22.282  0.00  0.00    -0.274 OA
ATOM      7  N   UNL     1      13.367   9.271  20.025  0.00  0.00    -0.301 N 
ATOM     14  C   UNL     1      13.029  10.069  21.104  0.00  0.00    +0.236 C 
ATOM     29  H   UNL     1      13.362   9.665  19.089  0.00  0.00    +0.150 HD
ENDROOT
BRANCH  14  10
ATOM      2  O   UNL     1      13.100  13.413  23.795  0.00  0.00    -0.253 OA
ATOM      5  N   UNL     1      13.234  12.362  21.725  0.00  0.00    -0.272 N 
ATOM      6  N   UNL     1      14.649  12.009  19.238  0.00  0.00    -0.312 NA
ATOM      8  N   UNL     1      11.213  12.407  22.961  0.00  0.00    -0.297 N 
ATOM     10  C   UNL     1      12.685  11.470  20.689  0.00  0.00    +0.177 C 
ATOM     11  C   UNL     1      13.203  11.787  19.282  0.00  0.00    +0.113 C 
ATOM     12  C   UNL     1      14.653  12.710  21.587  0.00  0.00    +0.125 C 
ATOM     13  C   UNL     1      15.024  13.080  20.158  0.00  0.00    +0.100 C 
ATOM     15  C   UNL     1      12.553  12.774  22.889  0.00  0.00    +0.303 C 
ATOM     28  H   UNL     1      14.920  12.267  18.290  0.00  0.00    +0.122 HD
ATOM     30  H   UNL     1      10.818  11.756  22.297  0.00  0.00    +0.150 HD
BRANCH   8  18
ATOM     18  C   UNL     1      10.383  12.749  24.094  0.00  0.00    +0.068 C 
ATOM     21  C   UNL     1      10.226  14.260  24.199  0.00  0.00    +0.027 C 
ATOM     22  C   UNL     1      10.960  12.163  25.376  0.00  0.00    +0.027 C 
ENDBRANCH   8  18
ENDBRANCH  14  10
BRANCH   7  16
ATOM     16  C   UNL     1      13.760   7.886  20.157  0.00  0.00    +0.186 C 
BRANCH  16  19
ATOM      4  O   UNL     1      12.082   6.659  18.925  0.00  0.00    -0.249 OA
ATOM     19  C   UNL     1      12.577   6.939  20.012  0.00  0.00    +0.328 C 
BRANCH  19   3
ATOM      3  O   UNL     1      12.144   6.469  21.216  0.00  0.00    -0.467 OA
ATOM     26  C   UNL     1      10.887   6.982  21.667  0.00  0.00    +0.280 C 
ENDBRANCH  19   3
ENDBRANCH  16  19
BRANCH  16  17
ATOM     17  C   UNL     1      14.908   7.525  19.203  0.00  0.00    +0.070 C 
BRANCH  17  20
ATOM      9  N   UNL     1      17.874   8.072  21.502  0.00  0.00    -0.263 NA
ATOM     20  C   UNL     1      16.249   7.328  19.873  0.00  0.00    -0.027 A 
ATOM     23  C   UNL     1      17.081   6.273  19.514  0.00  0.00    +0.006 A 
ATOM     24  C   UNL     1      16.688   8.191  20.864  0.00  0.00    +0.114 A 
ATOM     25  C   UNL     1      18.309   6.117  20.148  0.00  0.00    +0.020 A 
ATOM     27  C   UNL     1      18.656   7.035  21.126  0.00  0.00    +0.111 A 
ENDBRANCH  17  20
ENDBRANCH  16  17
ENDBRANCH   7  16
TORSDOF 7
ENDMDL
MODEL 4
REMARK VINA RESULT:      -5.9     26.394     28.978
REMARK  Name = 75536036
REMARK  10 active torsions:
REMARK  status: ('A' for Active; 'I' for Inactive)
REMARK    1  A    between atoms: O_3  and  C_19
REMARK    2  A    between atoms: O_3  and  C_26
REMARK    3  A    between atoms: N_7  and  C_16
REMARK    4  A    between atoms: N_8  and  C_18
REMARK    5  A    between atoms: C_10  and  C_14
REMARK    6  A    between atoms: C_16  and  C_17
REMARK    7  A    between atoms: C_16  and  C_19
REMARK    8  A    between atoms: C_17  and  C_20
REMARK    9  A    between atoms: C_18  and  C_21
REMARK   10  A    between atoms: C_18  and  C_22
REMARK                            x       y       z     vdW  Elec       q    Type
REMARK                         _______ _______ _______ _____ _____    ______ ____
ROOT
ATOM      1  O   UNL     1      -6.002  -9.549  15.540  0.00  0.00    -0.274 OA
ATOM      7  N   UNL     1      -4.227 -11.054  15.553  0.00  0.00    -0.301 N 
ATOM     14  C   UNL     1      -5.403 -10.502  16.030  0.00  0.00    +0.236 C 
ATOM     29  H   UNL     1      -3.822 -11.858  16.024  0.00  0.00    +0.150 HD
ENDROOT
BRANCH  14  10
ATOM      2  O   UNL     1      -9.392 -12.059  16.332  0.00  0.00    -0.253 OA
ATOM      5  N   UNL     1      -7.119 -11.960  16.813  0.00  0.00    -0.272 N 
ATOM      6  N   UNL     1      -4.607 -13.347  17.097  0.00  0.00    -0.312 NA
ATOM      8  N   UNL     1      -8.591 -10.210  17.431  0.00  0.00    -0.297 N 
ATOM     10  C   UNL     1      -5.918 -11.223  17.242  0.00  0.00    +0.177 C 
ATOM     11  C   UNL     1      -4.846 -12.123  17.863  0.00  0.00    +0.113 C 
ATOM     12  C   UNL     1      -6.882 -13.265  16.185  0.00  0.00    +0.125 C 
ATOM     13  C   UNL     1      -5.853 -14.095  16.940  0.00  0.00    +0.100 C 
ATOM     15  C   UNL     1      -8.435 -11.453  16.826  0.00  0.00    +0.303 C 
ATOM     28  H   UNL     1      -3.927 -13.924  17.590  0.00  0.00    +0.122 HD
ATOM     30  H   UNL     1      -7.787  -9.655  17.689  0.00  0.00    +0.150 HD
BRANCH   8  18
ATOM     18  C   UNL     1      -9.877  -9.554  17.518  0.00  0.00    +0.068 C 
ATOM     21  C   UNL     1      -9.723  -8.055  17.296  0.00  0.00    +0.027 C 
ATOM     22  C   UNL     1     -10.538  -9.850  18.858  0.00  0.00    +0.027 C 
ENDBRANCH   8  18
ENDBRANCH  14  10
BRANCH   7  16
ATOM     16  C   UNL     1      -3.537 -10.558  14.383  0.00  0.00    +0.186 C 
BRANCH  16  19
ATOM      4  O   UNL     1      -1.261  -9.754  14.276  0.00  0.00    -0.249 OA
ATOM     19  C   UNL     1      -2.026 -10.684  14.512  0.00  0.00    +0.328 C 
BRANCH  19   3
ATOM      3  O   UNL     1      -1.645 -11.934  14.897  0.00  0.00    -0.467 OA
ATOM     26  C   UNL     1      -1.349 -12.849  13.837  0.00  0.00    +0.280 C 
ENDBRANCH  19   3
ENDBRANCH  16  19
BRANCH  16  17
ATOM     17  C   UNL     1      -4.062 -11.207  13.094  0.00  0.00    +0.070 C 
BRANCH  17  20
ATOM      9  N   UNL     1      -5.616  -8.667  10.747  0.00  0.00    -0.263 NA
ATOM     20  C   UNL     1      -4.231 -10.256  11.931  0.00  0.00    -0.027 A 
ATOM     23  C   UNL     1      -3.217 -10.081  10.995  0.00  0.00    +0.006 A 
ATOM     24  C   UNL     1      -5.400  -9.532  11.763  0.00  0.00    +0.114 A 
ATOM     25  C   UNL     1      -3.402  -9.200   9.935  0.00  0.00    +0.020 A 
ATOM     27  C   UNL     1      -4.609  -8.523   9.857  0.00  0.00    +0.111 A 
ENDBRANCH  17  20
ENDBRANCH  16  17
ENDBRANCH   7  16
TORSDOF 7
ENDMDL
MODEL 5
REMARK VINA RESULT:      -5.8     25.611     28.450
REMARK  Name = 75536036
REMARK  10 active torsions:
REMARK  status: ('A' for Active; 'I' for Inactive)
REMARK    1  A    between atoms: O_3  and  C_19
REMARK    2  A    between atoms: O_3  and  C_26
REMARK    3  A    between atoms: N_7  and  C_16
REMARK    4  A    between atoms: N_8  and  C_18
REMARK    5  A    between atoms: C_10  and  C_14
REMARK    6  A    between atoms: C_16  and  C_17
REMARK    7  A    between atoms: C_16  and  C_19
REMARK    8  A    between atoms: C_17  and  C_20
REMARK    9  A    between atoms: C_18  and  C_21
REMARK   10  A    between atoms: C_18  and  C_22
REMARK                            x       y       z     vdW  Elec       q    Type
REMARK                         _______ _______ _______ _____ _____    ______ ____
ROOT
ATOM      1  O   UNL     1     -15.004   5.026  21.182  0.00  0.00    -0.274 OA
ATOM      7  N   UNL     1     -14.114   6.984  22.073  0.00  0.00    -0.301 N 
ATOM     14  C   UNL     1     -14.802   5.784  22.127  0.00  0.00    +0.236 C 
ATOM     29  H   UNL     1     -13.986   7.528  22.920  0.00  0.00    +0.150 HD
ENDROOT
BRANCH  14  10
ATOM      2  O   UNL     1     -18.460   7.312  23.772  0.00  0.00    -0.253 OA
ATOM      5  N   UNL     1     -16.716   5.791  23.548  0.00  0.00    -0.272 N 
ATOM      6  N   UNL     1     -15.872   3.050  23.245  0.00  0.00    -0.312 NA
ATOM      8  N   UNL     1     -16.346   7.986  24.357  0.00  0.00    -0.297 N 
ATOM     10  C   UNL     1     -15.280   5.465  23.513  0.00  0.00    +0.177 C 
ATOM     11  C   UNL     1     -14.980   4.012  23.895  0.00  0.00    +0.113 C 
ATOM     12  C   UNL     1     -17.622   4.755  23.038  0.00  0.00    +0.125 C 
ATOM     13  C   UNL     1     -17.265   3.367  23.551  0.00  0.00    +0.100 C 
ATOM     15  C   UNL     1     -17.259   7.048  23.887  0.00  0.00    +0.303 C 
ATOM     28  H   UNL     1     -15.656   2.113  23.581  0.00  0.00    +0.122 HD
ATOM     30  H   UNL     1     -15.352   7.816  24.300  0.00  0.00    +0.150 HD
BRANCH   8  18
ATOM     18  C   UNL     1     -16.747   9.322  24.739  0.00  0.00    +0.068 C 
ATOM     21  C   UNL     1     -15.666  10.327  24.361  0.00  0.00    +0.027 C 
ATOM     22  C   UNL     1     -17.059   9.381  26.229  0.00  0.00    +0.027 C 
ENDBRANCH   8  18
ENDBRANCH  14  10
BRANCH   7  16
ATOM     16  C   UNL     1     -13.533   7.508  20.857  0.00  0.00    +0.186 C 
BRANCH  16  19
ATOM      4  O   UNL     1     -13.885   9.853  21.325  0.00  0.00    -0.249 OA
ATOM     19  C   UNL     1     -14.025   8.915  20.546  0.00  0.00    +0.328 C 
BRANCH  19   3
ATOM      3  O   UNL     1     -14.640   8.988  19.332  0.00  0.00    -0.467 OA
ATOM     26  C   UNL     1     -15.177   7.760  18.832  0.00  0.00    +0.280 C 
ENDBRANCH  19   3
ENDBRANCH  16  19
BRANCH  16  17
ATOM     17  C   UNL     1     -11.999   7.427  20.877  0.00  0.00    +0.070 C 
BRANCH  17  20
ATOM      9  N   UNL     1     -10.732   7.885  17.333  0.00  0.00    -0.263 NA
ATOM     20  C   UNL     1     -11.318   8.037  19.673  0.00  0.00    -0.027 A 
ATOM     23  C   UNL     1     -10.667   9.263  19.764  0.00  0.00    +0.006 A 
ATOM     24  C   UNL     1     -11.322   7.394  18.446  0.00  0.00    +0.114 A 
ATOM     25  C   UNL     1     -10.049   9.800  18.639  0.00  0.00    +0.020 A 
ATOM     27  C   UNL     1     -10.109   9.078  17.458  0.00  0.00    +0.111 A 
ENDBRANCH  17  20
ENDBRANCH  16  17
ENDBRANCH   7  16
TORSDOF 7
ENDMDL
MODEL 6
REMARK VINA RESULT:      -5.7     27.168     29.449
REMARK  Name = 75536036
REMARK  10 active torsions:
REMARK  status: ('A' for Active; 'I' for Inactive)
REMARK    1  A    between atoms: O_3  and  C_19
REMARK    2  A    between atoms: O_3  and  C_26
REMARK    3  A    between atoms: N_7  and  C_16
REMARK    4  A    between atoms: N_8  and  C_18
REMARK    5  A    between atoms: C_10  and  C_14
REMARK    6  A    between atoms: C_16  and  C_17
REMARK    7  A    between atoms: C_16  and  C_19
REMARK    8  A    between atoms: C_17  and  C_20
REMARK    9  A    between atoms: C_18  and  C_21
REMARK   10  A    between atoms: C_18  and  C_22
REMARK                            x       y       z     vdW  Elec       q    Type
REMARK                         _______ _______ _______ _____ _____    ______ ____
ROOT
ATOM      1  O   UNL     1      -6.306 -13.244  16.967  0.00  0.00    -0.274 OA
ATOM      7  N   UNL     1      -5.869 -11.005  17.428  0.00  0.00    -0.301 N 
ATOM     14  C   UNL     1      -5.548 -12.279  16.993  0.00  0.00    +0.236 C 
ATOM     29  H   UNL     1      -5.169 -10.270  17.390  0.00  0.00    +0.150 HD
ENDROOT
BRANCH  14  10
ATOM      2  O   UNL     1      -4.287 -14.953  13.881  0.00  0.00    -0.253 OA
ATOM      5  N   UNL     1      -4.176 -13.039  15.198  0.00  0.00    -0.272 N 
ATOM      6  N   UNL     1      -3.900 -10.173  15.345  0.00  0.00    -0.312 NA
ATOM      8  N   UNL     1      -3.833 -15.195  16.118  0.00  0.00    -0.297 N 
ATOM     10  C   UNL     1      -4.130 -12.373  16.511  0.00  0.00    +0.177 C 
ATOM     11  C   UNL     1      -3.453 -10.999  16.468  0.00  0.00    +0.113 C 
ATOM     12  C   UNL     1      -4.469 -12.175  14.049  0.00  0.00    +0.125 C 
ATOM     13  C   UNL     1      -3.678 -10.875  14.083  0.00  0.00    +0.100 C 
ATOM     15  C   UNL     1      -4.109 -14.432  14.987  0.00  0.00    +0.303 C 
ATOM     28  H   UNL     1      -3.375  -9.299  15.343  0.00  0.00    +0.122 HD
ATOM     30  H   UNL     1      -3.845 -14.780  17.039  0.00  0.00    +0.150 HD
BRANCH   8  18
ATOM     18  C   UNL     1      -3.739 -16.637  16.066  0.00  0.00    +0.068 C 
ATOM     21  C   UNL     1      -4.445 -17.257  17.265  0.00  0.00    +0.027 C 
ATOM     22  C   UNL     1      -2.281 -17.075  15.997  0.00  0.00    +0.027 C 
ENDBRANCH   8  18
ENDBRANCH  14  10
BRANCH   7  16
ATOM     16  C   UNL     1      -7.179 -10.644  17.922  0.00  0.00    +0.186 C 
BRANCH  16  19
ATOM      4  O   UNL     1      -6.320 -10.357  20.162  0.00  0.00    -0.249 OA
ATOM     19  C   UNL     1      -7.254 -10.696  19.441  0.00  0.00    +0.328 C 
BRANCH  19   3
ATOM      3  O   UNL     1      -8.453 -11.171  19.882  0.00  0.00    -0.467 OA
ATOM     26  C   UNL     1      -8.867 -12.423  19.328  0.00  0.00    +0.280 C 
ENDBRANCH  19   3
ENDBRANCH  16  19
BRANCH  16  17
ATOM     17  C   UNL     1      -7.645  -9.290  17.368  0.00  0.00    +0.070 C 
BRANCH  17  20
ATOM      9  N   UNL     1     -11.072 -10.243  16.055  0.00  0.00    -0.263 NA
ATOM     20  C   UNL     1      -9.119  -9.213  17.040  0.00  0.00    -0.027 A 
ATOM     23  C   UNL     1      -9.875  -8.101  17.395  0.00  0.00    +0.006 A 
ATOM     24  C   UNL     1      -9.759 -10.248  16.378  0.00  0.00    +0.114 A 
ATOM     25  C   UNL     1     -11.229  -8.060  17.080  0.00  0.00    +0.020 A 
ATOM     27  C   UNL     1     -11.775  -9.146  16.415  0.00  0.00    +0.111 A 
ENDBRANCH  17  20
ENDBRANCH  16  17
ENDBRANCH   7  16
TORSDOF 7
ENDMDL
MODEL 7
REMARK VINA RESULT:      -5.7     14.797     18.975
REMARK  Name = 75536036
REMARK  10 active torsions:
REMARK  status: ('A' for Active; 'I' for Inactive)
REMARK    1  A    between atoms: O_3  and  C_19
REMARK    2  A    between atoms: O_3  and  C_26
REMARK    3  A    between atoms: N_7  and  C_16
REMARK    4  A    between atoms: N_8  and  C_18
REMARK    5  A    between atoms: C_10  and  C_14
REMARK    6  A    between atoms: C_16  and  C_17
REMARK    7  A    between atoms: C_16  and  C_19
REMARK    8  A    between atoms: C_17  and  C_20
REMARK    9  A    between atoms: C_18  and  C_21
REMARK   10  A    between atoms: C_18  and  C_22
REMARK                            x       y       z     vdW  Elec       q    Type
REMARK                         _______ _______ _______ _____ _____    ______ ____
ROOT
ATOM      1  O   UNL     1      10.775   4.407   3.944  0.00  0.00    -0.274 OA
ATOM      7  N   UNL     1      11.149   5.367   1.857  0.00  0.00    -0.301 N 
ATOM     14  C   UNL     1      10.899   5.389   3.219  0.00  0.00    +0.236 C 
ATOM     29  H   UNL     1      11.253   6.242   1.352  0.00  0.00    +0.150 HD
ENDROOT
BRANCH  14  10
ATOM      2  O   UNL     1      12.696   6.608   6.921  0.00  0.00    -0.253 OA
ATOM      5  N   UNL     1      11.876   6.916   4.767  0.00  0.00    -0.272 N 
ATOM      6  N   UNL     1      12.269   7.995   2.122  0.00  0.00    -0.312 NA
ATOM      8  N   UNL     1      10.449   6.313   6.558  0.00  0.00    -0.297 N 
ATOM     10  C   UNL     1      10.812   6.788   3.757  0.00  0.00    +0.177 C 
ATOM     11  C   UNL     1      10.909   7.832   2.640  0.00  0.00    +0.113 C 
ATOM     12  C   UNL     1      13.213   7.237   4.254  0.00  0.00    +0.125 C 
ATOM     13  C   UNL     1      13.184   8.341   3.207  0.00  0.00    +0.100 C 
ATOM     15  C   UNL     1      11.740   6.614   6.138  0.00  0.00    +0.303 C 
ATOM     28  H   UNL     1      12.275   8.738   1.424  0.00  0.00    +0.122 HD
ATOM     30  H   UNL     1       9.707   6.166   5.889  0.00  0.00    +0.150 HD
BRANCH   8  18
ATOM     18  C   UNL     1      10.148   5.976   7.932  0.00  0.00    +0.068 C 
ATOM     21  C   UNL     1       9.888   4.481   8.066  0.00  0.00    +0.027 C 
ATOM     22  C   UNL     1       8.962   6.790   8.434  0.00  0.00    +0.027 C 
ENDBRANCH   8  18
ENDBRANCH  14  10
BRANCH   7  16
ATOM     16  C   UNL     1      11.300   4.145   1.101  0.00  0.00    +0.186 C 
BRANCH  16  19
ATOM      4  O   UNL     1      10.856   3.424  -1.163  0.00  0.00    -0.249 OA
ATOM     19  C   UNL     1      11.043   4.355  -0.385  0.00  0.00    +0.328 C 
BRANCH  19   3
ATOM      3  O   UNL     1      11.064   5.673  -0.729  0.00  0.00    -0.467 OA
ATOM     26  C   UNL     1      11.758   5.989  -1.940  0.00  0.00    +0.280 C 
ENDBRANCH  19   3
ENDBRANCH  16  19
BRANCH  16  17
ATOM     17  C   UNL     1      12.657   3.475   1.361  0.00  0.00    +0.070 C 
BRANCH  17  20
ATOM      9  N   UNL     1      15.505   5.934   0.889  0.00  0.00    -0.263 NA
ATOM     20  C   UNL     1      13.841   4.186   0.745  0.00  0.00    -0.027 A 
ATOM     23  C   UNL     1      14.358   3.785  -0.482  0.00  0.00    +0.006 A 
ATOM     24  C   UNL     1      14.446   5.256   1.385  0.00  0.00    +0.114 A 
ATOM     25  C   UNL     1      15.448   4.458  -1.023  0.00  0.00    +0.020 A 
ATOM     27  C   UNL     1      15.980   5.517  -0.305  0.00  0.00    +0.111 A 
ENDBRANCH  17  20
ENDBRANCH  16  17
ENDBRANCH   7  16
TORSDOF 7
ENDMDL
MODEL 8
REMARK VINA RESULT:      -5.7     15.465     18.737
REMARK  Name = 75536036
REMARK  10 active torsions:
REMARK  status: ('A' for Active; 'I' for Inactive)
REMARK    1  A    between atoms: O_3  and  C_19
REMARK    2  A    between atoms: O_3  and  C_26
REMARK    3  A    between atoms: N_7  and  C_16
REMARK    4  A    between atoms: N_8  and  C_18
REMARK    5  A    between atoms: C_10  and  C_14
REMARK    6  A    between atoms: C_16  and  C_17
REMARK    7  A    between atoms: C_16  and  C_19
REMARK    8  A    between atoms: C_17  and  C_20
REMARK    9  A    between atoms: C_18  and  C_21
REMARK   10  A    between atoms: C_18  and  C_22
REMARK                            x       y       z     vdW  Elec       q    Type
REMARK                         _______ _______ _______ _____ _____    ______ ____
ROOT
ATOM      1  O   UNL     1      10.488   5.827   1.325  0.00  0.00    -0.274 OA
ATOM      7  N   UNL     1      11.769   4.933   3.051  0.00  0.00    -0.301 N 
ATOM     14  C   UNL     1      11.288   5.000   1.755  0.00  0.00    +0.236 C 
ATOM     29  H   UNL     1      12.445   4.218   3.299  0.00  0.00    +0.150 HD
ENDROOT
BRANCH  14  10
ATOM      2  O   UNL     1      12.442   5.682  -2.323  0.00  0.00    -0.253 OA
ATOM      5  N   UNL     1      12.525   4.633  -0.249  0.00  0.00    -0.272 N 
ATOM      6  N   UNL     1      14.120   3.655   1.945  0.00  0.00    -0.312 NA
ATOM      8  N   UNL     1      10.609   4.485  -1.634  0.00  0.00    -0.297 N 
ATOM     10  C   UNL     1      11.877   3.936   0.875  0.00  0.00    +0.177 C 
ATOM     11  C   UNL     1      12.832   3.024   1.652  0.00  0.00    +0.113 C 
ATOM     12  C   UNL     1      13.884   5.128  -0.001  0.00  0.00    +0.125 C 
ATOM     13  C   UNL     1      14.756   4.101   0.707  0.00  0.00    +0.100 C 
ATOM     15  C   UNL     1      11.898   4.980  -1.464  0.00  0.00    +0.303 C 
ATOM     28  H   UNL     1      14.725   2.981   2.412  0.00  0.00    +0.122 HD
ATOM     30  H   UNL     1      10.116   4.049  -0.867  0.00  0.00    +0.150 HD
BRANCH   8  18
ATOM     18  C   UNL     1       9.831   4.759  -2.822  0.00  0.00    +0.068 C 
ATOM     21  C   UNL     1       8.595   5.576  -2.469  0.00  0.00    +0.027 C 
ATOM     22  C   UNL     1       9.454   3.462  -3.525  0.00  0.00    +0.027 C 
ENDBRANCH   8  18
ENDBRANCH  14  10
BRANCH   7  16
ATOM     16  C   UNL     1      11.374   5.858   4.090  0.00  0.00    +0.186 C 
BRANCH  16  19
ATOM      4  O   UNL     1      10.966   8.161   3.481  0.00  0.00    -0.249 OA
ATOM     19  C   UNL     1      11.781   7.289   3.767  0.00  0.00    +0.328 C 
BRANCH  19   3
ATOM      3  O   UNL     1      13.131   7.465   3.821  0.00  0.00    -0.467 OA
ATOM     26  C   UNL     1      13.584   8.572   4.606  0.00  0.00    +0.280 C 
ENDBRANCH  19   3
ENDBRANCH  16  19
BRANCH  16  17
ATOM     17  C   UNL     1       9.878   5.744   4.418  0.00  0.00    +0.070 C 
BRANCH  17  20
ATOM      9  N   UNL     1       8.340   7.604   7.342  0.00  0.00    -0.263 NA
ATOM     20  C   UNL     1       9.511   6.120   5.836  0.00  0.00    -0.027 A 
ATOM     23  C   UNL     1       9.972   5.375   6.916  0.00  0.00    +0.006 A 
ATOM     24  C   UNL     1       8.705   7.215   6.100  0.00  0.00    +0.114 A 
ATOM     25  C   UNL     1       9.618   5.745   8.209  0.00  0.00    +0.020 A 
ATOM     27  C   UNL     1       8.808   6.857   8.367  0.00  0.00    +0.111 A 
ENDBRANCH  17  20
ENDBRANCH  16  17
ENDBRANCH   7  16
TORSDOF 7
ENDMDL
MODEL 9
REMARK VINA RESULT:      -5.6     14.276     18.604
REMARK  Name = 75536036
REMARK  10 active torsions:
REMARK  status: ('A' for Active; 'I' for Inactive)
REMARK    1  A    between atoms: O_3  and  C_19
REMARK    2  A    between atoms: O_3  and  C_26
REMARK    3  A    between atoms: N_7  and  C_16
REMARK    4  A    between atoms: N_8  and  C_18
REMARK    5  A    between atoms: C_10  and  C_14
REMARK    6  A    between atoms: C_16  and  C_17
REMARK    7  A    between atoms: C_16  and  C_19
REMARK    8  A    between atoms: C_17  and  C_20
REMARK    9  A    between atoms: C_18  and  C_21
REMARK   10  A    between atoms: C_18  and  C_22
REMARK                            x       y       z     vdW  Elec       q    Type
REMARK                         _______ _______ _______ _____ _____    ______ ____
ROOT
ATOM      1  O   UNL     1      10.099   4.427   5.269  0.00  0.00    -0.274 OA
ATOM      7  N   UNL     1      10.850   5.689   3.462  0.00  0.00    -0.301 N 
ATOM     14  C   UNL     1      10.577   5.456   4.799  0.00  0.00    +0.236 C 
ATOM     29  H   UNL     1      11.265   6.572   3.181  0.00  0.00    +0.150 HD
ENDROOT
BRANCH  14  10
ATOM      2  O   UNL     1       7.859   8.615   5.829  0.00  0.00    -0.253 OA
ATOM      5  N   UNL     1       9.696   7.223   6.136  0.00  0.00    -0.272 N 
ATOM      6  N   UNL     1      11.191   5.480   7.880  0.00  0.00    -0.312 NA
ATOM      8  N   UNL     1       9.612   8.786   4.358  0.00  0.00    -0.297 N 
ATOM     10  C   UNL     1      10.956   6.621   5.667  0.00  0.00    +0.177 C 
ATOM     11  C   UNL     1      11.885   6.197   6.809  0.00  0.00    +0.113 C 
ATOM     12  C   UNL     1       9.082   6.595   7.312  0.00  0.00    +0.125 C 
ATOM     13  C   UNL     1      10.097   6.293   8.405  0.00  0.00    +0.100 C 
ATOM     15  C   UNL     1       8.978   8.236   5.468  0.00  0.00    +0.303 C 
ATOM     28  H   UNL     1      11.851   5.275   8.629  0.00  0.00    +0.122 HD
ATOM     30  H   UNL     1      10.449   8.366   3.979  0.00  0.00    +0.150 HD
BRANCH   8  18
ATOM     18  C   UNL     1       9.003   9.829   3.564  0.00  0.00    +0.068 C 
ATOM     21  C   UNL     1       8.331   9.234   2.333  0.00  0.00    +0.027 C 
ATOM     22  C   UNL     1      10.037  10.878   3.176  0.00  0.00    +0.027 C 
ENDBRANCH   8  18
ENDBRANCH  14  10
BRANCH   7  16
ATOM     16  C   UNL     1      10.599   4.716   2.423  0.00  0.00    +0.186 C 
BRANCH  16  19
ATOM      4  O   UNL     1      10.403   6.582   0.899  0.00  0.00    -0.249 OA
ATOM     19  C   UNL     1      10.292   5.374   1.084  0.00  0.00    +0.328 C 
BRANCH  19   3
ATOM      3  O   UNL     1       9.875   4.472   0.152  0.00  0.00    -0.467 OA
ATOM     26  C   UNL     1      10.216   4.776  -1.204  0.00  0.00    +0.280 C 
ENDBRANCH  19   3
ENDBRANCH  16  19
BRANCH  16  17
ATOM     17  C   UNL     1      11.736   3.690   2.313  0.00  0.00    +0.070 C 
BRANCH  17  20
ATOM      9  N   UNL     1      14.766   5.722   1.279  0.00  0.00    -0.263 NA
ATOM     20  C   UNL     1      12.938   4.160   1.524  0.00  0.00    -0.027 A 
ATOM     23  C   UNL     1      13.328   3.509   0.359  0.00  0.00    +0.006 A 
ATOM     24  C   UNL     1      13.684   5.251   1.938  0.00  0.00    +0.114 A 
ATOM     25  C   UNL     1      14.437   3.964  -0.346  0.00  0.00    +0.020 A 
ATOM     27  C   UNL     1      15.116   5.064   0.151  0.00  0.00    +0.111 A 
ENDBRANCH  17  20
ENDBRANCH  16  17
ENDBRANCH   7  16
TORSDOF 7
ENDMDL
MODEL 10
REMARK VINA RESULT:      -5.5     26.469     28.558
REMARK  Name = 75536036
REMARK  10 active torsions:
REMARK  status: ('A' for Active; 'I' for Inactive)
REMARK    1  A    between atoms: O_3  and  C_19
REMARK    2  A    between atoms: O_3  and  C_26
REMARK    3  A    between atoms: N_7  and  C_16
REMARK    4  A    between atoms: N_8  and  C_18
REMARK    5  A    between atoms: C_10  and  C_14
REMARK    6  A    between atoms: C_16  and  C_17
REMARK    7  A    between atoms: C_16  and  C_19
REMARK    8  A    between atoms: C_17  and  C_20
REMARK    9  A    between atoms: C_18  and  C_21
REMARK   10  A    between atoms: C_18  and  C_22
REMARK                            x       y       z     vdW  Elec       q    Type
REMARK                         _______ _______ _______ _____ _____    ______ ____
ROOT
ATOM      1  O   UNL     1      -4.663 -11.652  14.318  0.00  0.00    -0.274 OA
ATOM      7  N   UNL     1      -3.900 -11.871  16.506  0.00  0.00    -0.301 N 
ATOM     14  C   UNL     1      -3.766 -11.867  15.128  0.00  0.00    +0.236 C 
ATOM     29  H   UNL     1      -3.087 -12.042  17.089  0.00  0.00    +0.150 HD
ENDROOT
BRANCH  14  10
ATOM      2  O   UNL     1      -2.685 -15.053  12.463  0.00  0.00    -0.253 OA
ATOM      5  N   UNL     1      -2.440 -12.981  13.491  0.00  0.00    -0.272 N 
ATOM      6  N   UNL     1      -1.945 -10.153  13.227  0.00  0.00    -0.312 NA
ATOM      8  N   UNL     1      -2.273 -15.000  14.720  0.00  0.00    -0.297 N 
ATOM     10  C   UNL     1      -2.355 -12.137  14.694  0.00  0.00    +0.177 C 
ATOM     11  C   UNL     1      -1.574 -10.838  14.467  0.00  0.00    +0.113 C 
ATOM     12  C   UNL     1      -2.655 -12.275  12.223  0.00  0.00    +0.125 C 
ATOM     13  C   UNL     1      -1.766 -11.047  12.085  0.00  0.00    +0.100 C 
ATOM     15  C   UNL     1      -2.478 -14.391  13.486  0.00  0.00    +0.303 C 
ATOM     28  H   UNL     1      -1.354  -9.331  13.109  0.00  0.00    +0.122 HD
ATOM     30  H   UNL     1      -2.262 -14.455  15.571  0.00  0.00    +0.150 HD
BRANCH   8  18
ATOM     18  C   UNL     1      -2.290 -16.437  14.880  0.00  0.00    +0.068 C 
ATOM     21  C   UNL     1      -3.065 -16.821  16.133  0.00  0.00    +0.027 C 
ATOM     22  C   UNL     1      -0.869 -16.987  14.918  0.00  0.00    +0.027 C 
ENDBRANCH   8  18
ENDBRANCH  14  10
BRANCH   7  16
ATOM     16  C   UNL     1      -5.154 -11.616  17.180  0.00  0.00    +0.186 C 
BRANCH  16  19
ATOM      4  O   UNL     1      -4.194 -12.339  19.277  0.00  0.00    -0.249 OA
ATOM     19  C   UNL     1      -5.193 -12.233  18.571  0.00  0.00    +0.328 C 
BRANCH  19   3
ATOM      3  O   UNL     1      -6.443 -12.655  18.911  0.00  0.00    -0.467 OA
ATOM     26  C   UNL     1      -7.198 -13.273  17.865  0.00  0.00    +0.280 C 
ENDBRANCH  19   3
ENDBRANCH  16  19
BRANCH  16  17
ATOM     17  C   UNL     1      -5.495 -10.119  17.203  0.00  0.00    +0.070 C 
BRANCH  17  20
ATOM      9  N   UNL     1      -8.517  -9.668  14.959  0.00  0.00    -0.263 NA
ATOM     20  C   UNL     1      -6.897  -9.782  16.749  0.00  0.00    -0.027 A 
ATOM     23  C   UNL     1      -7.842  -9.295  17.645  0.00  0.00    +0.006 A 
ATOM     24  C   UNL     1      -7.281  -9.950  15.429  0.00  0.00    +0.114 A 
ATOM     25  C   UNL     1      -9.124  -8.994  17.199  0.00  0.00    +0.020 A 
ATOM     27  C   UNL     1      -9.409  -9.196  15.858  0.00  0.00    +0.111 A 
ENDBRANCH  17  20
ENDBRANCH  16  17
ENDBRANCH   7  16
TORSDOF 7
ENDMDL
