MODEL 1
REMARK VINA RESULT:      -7.3      0.000      0.000
REMARK  Name = 38030637
REMARK  13 active torsions:
REMARK  status: ('A' for Active; 'I' for Inactive)
REMARK    1  A    between atoms: O_2  and  C_25
REMARK    2  A    between atoms: N_3  and  C_12
REMARK    3  A    between atoms: N_4  and  C_24
REMARK    4  A    between atoms: C_7  and  C_11
REMARK    5  A    between atoms: C_8  and  C_12
REMARK    6  A    between atoms: C_10  and  C_15
REMARK    7  A    between atoms: C_11  and  C_18
REMARK    8  A    between atoms: C_11  and  C_19
REMARK    9  A    between atoms: C_14  and  C_22
REMARK   10  A    between atoms: C_15  and  C_23
REMARK   11  A    between atoms: C_24  and  C_25
REMARK   12  A    between atoms: C_26  and  C_27
REMARK   13  A    between atoms: C_32  and  C_33
REMARK                            x       y       z     vdW  Elec       q    Type
REMARK                         _______ _______ _______ _____ _____    ______ ____
ROOT
ATOM      7  C   UNL     1      13.430  10.511  21.683  0.00  0.00    +0.000 C 
ATOM      8  C   UNL     1      14.381   9.309  21.890  0.00  0.00    +0.029 C 
ATOM      9  C   UNL     1      12.442  10.224  20.544  0.00  0.00    +0.012 C 
ATOM     10  C   UNL     1      11.609   8.943  20.765  0.00  0.00    +0.024 C 
ATOM     13  C   UNL     1      13.658   7.987  21.857  0.00  0.00    -0.023 C 
ATOM     14  C   UNL     1      12.416   7.805  21.370  0.00  0.00    -0.073 C 
ATOM     22  C   UNL     1      11.755   6.457  21.465  0.00  0.00    +0.039 C 
ENDROOT
BRANCH   7  11
ATOM     11  C   UNL     1      12.694  10.872  22.979  0.00  0.00    -0.013 C 
ATOM     18  C   UNL     1      13.654  11.519  23.974  0.00  0.00    +0.007 C 
ATOM     19  C   UNL     1      11.518  11.798  22.683  0.00  0.00    +0.007 C 
ENDBRANCH   7  11
BRANCH   8  12
ATOM     12  C   UNL     1      15.508   9.293  20.853  0.00  0.00    +0.092 C 
BRANCH  12   3
ATOM      3  N   UNL     1      16.577   8.384  21.268  0.00  0.00    -0.299 NA
ATOM      4  N   UNL     1      19.200   7.200  20.993  0.00  0.00    -0.298 NA
ATOM     16  C   UNL     1      16.864   7.402  20.214  0.00  0.00    +0.100 C 
ATOM     17  C   UNL     1      17.791   9.131  21.616  0.00  0.00    +0.100 C 
ATOM     20  C   UNL     1      17.986   6.452  20.645  0.00  0.00    +0.100 C 
ATOM     21  C   UNL     1      18.913   8.180  22.047  0.00  0.00    +0.100 C 
BRANCH   4  24
ATOM     24  C   UNL     1      20.269   6.292  21.404  0.00  0.00    +0.112 C 
BRANCH  24  25
ATOM     25  C   UNL     1      20.244   5.021  20.572  0.00  0.00    +0.171 C 
BRANCH  25   2
ATOM      2  O   UNL     1      21.374   5.018  19.709  0.00  0.00    -0.394 OA
ATOM     34  H   UNL     1      21.815   4.159  19.819  0.00  0.00    +0.209 HD
ENDBRANCH  25   2
ENDBRANCH  24  25
ENDBRANCH   4  24
ENDBRANCH  12   3
ENDBRANCH   8  12
BRANCH  10  15
ATOM     15  C   UNL     1      10.939   8.561  19.440  0.00  0.00    +0.105 C 
BRANCH  15  23
ATOM      1  O   UNL     1      12.656   9.531  18.003  0.00  0.00    -0.420 OA
ATOM      5  N   UNL     1      12.262   7.362  17.623  0.00  0.00    -0.112 NA
ATOM      6  N   UNL     1      13.247   7.778  16.747  0.00  0.00    -0.107 NA
ATOM     23  C   UNL     1      11.947   8.417  18.337  0.00  0.00    +0.218 A 
ATOM     26  C   UNL     1      13.445   9.049  17.005  0.00  0.00    +0.248 A 
BRANCH  26  27
ATOM     27  C   UNL     1      14.347   9.991  16.408  0.00  0.00    +0.038 A 
ATOM     28  C   UNL     1      14.824  11.069  17.152  0.00  0.00    +0.013 A 
ATOM     29  C   UNL     1      14.748   9.827  15.082  0.00  0.00    +0.013 A 
ATOM     30  C   UNL     1      15.701  11.984  16.572  0.00  0.00    +0.004 A 
ATOM     31  C   UNL     1      15.625  10.743  14.501  0.00  0.00    +0.004 A 
ATOM     32  C   UNL     1      16.102  11.821  15.247  0.00  0.00    -0.050 A 
ATOM     33  C   UNL     1      17.040  12.800  14.625  0.00  0.00    +0.044 C 
ENDBRANCH  26  27
ENDBRANCH  15  23
ENDBRANCH  10  15
TORSDOF 9
ENDMDL
MODEL 2
REMARK VINA RESULT:      -7.2      3.337      7.847
REMARK  Name = 38030637
REMARK  13 active torsions:
REMARK  status: ('A' for Active; 'I' for Inactive)
REMARK    1  A    between atoms: O_2  and  C_25
REMARK    2  A    between atoms: N_3  and  C_12
REMARK    3  A    between atoms: N_4  and  C_24
REMARK    4  A    between atoms: C_7  and  C_11
REMARK    5  A    between atoms: C_8  and  C_12
REMARK    6  A    between atoms: C_10  and  C_15
REMARK    7  A    between atoms: C_11  and  C_18
REMARK    8  A    between atoms: C_11  and  C_19
REMARK    9  A    between atoms: C_14  and  C_22
REMARK   10  A    between atoms: C_15  and  C_23
REMARK   11  A    between atoms: C_24  and  C_25
REMARK   12  A    between atoms: C_26  and  C_27
REMARK   13  A    between atoms: C_32  and  C_33
REMARK                            x       y       z     vdW  Elec       q    Type
REMARK                         _______ _______ _______ _____ _____    ______ ____
ROOT
ATOM      7  C   UNL     1      13.816  10.467  20.869  0.00  0.00    +0.000 C 
ATOM      8  C   UNL     1      12.314  10.364  20.518  0.00  0.00    +0.029 C 
ATOM      9  C   UNL     1      14.426   9.069  21.036  0.00  0.00    +0.012 C 
ATOM     10  C   UNL     1      14.250   8.172  19.792  0.00  0.00    +0.024 C 
ATOM     13  C   UNL     1      12.033   9.309  19.479  0.00  0.00    -0.023 C 
ATOM     14  C   UNL     1      12.889   8.329  19.132  0.00  0.00    -0.073 C 
ATOM     22  C   UNL     1      12.542   7.379  18.019  0.00  0.00    +0.039 C 
ENDROOT
BRANCH   7  11
ATOM     11  C   UNL     1      14.581  11.285  19.821  0.00  0.00    -0.013 C 
ATOM     18  C   UNL     1      13.930  12.653  19.633  0.00  0.00    +0.007 C 
ATOM     19  C   UNL     1      16.044  11.434  20.226  0.00  0.00    +0.007 C 
ENDBRANCH   7  11
BRANCH   8  12
ATOM     12  C   UNL     1      11.458  10.088  21.758  0.00  0.00    +0.092 C 
BRANCH  12   3
ATOM      3  N   UNL     1      11.602  11.169  22.734  0.00  0.00    -0.299 NA
ATOM      4  N   UNL     1      10.543  13.185  24.515  0.00  0.00    -0.298 NA
ATOM     16  C   UNL     1      11.026  12.417  22.216  0.00  0.00    +0.100 C 
ATOM     17  C   UNL     1      10.973  10.806  24.010  0.00  0.00    +0.100 C 
ATOM     20  C   UNL     1      11.171  13.549  23.239  0.00  0.00    +0.100 C 
ATOM     21  C   UNL     1      11.119  11.939  25.032  0.00  0.00    +0.100 C 
BRANCH   4  24
ATOM     24  C   UNL     1      10.683  14.266  25.489  0.00  0.00    +0.112 C 
BRANCH  24  25
ATOM     25  C   UNL     1      12.087  14.286  26.071  0.00  0.00    +0.171 C 
BRANCH  25   2
ATOM      2  O   UNL     1      11.997  14.501  27.474  0.00  0.00    -0.394 OA
ATOM     34  H   UNL     1      12.387  13.723  27.908  0.00  0.00    +0.209 HD
ENDBRANCH  25   2
ENDBRANCH  24  25
ENDBRANCH   4  24
ENDBRANCH  12   3
ENDBRANCH   8  12
BRANCH  10  15
ATOM     15  C   UNL     1      14.559   6.723  20.185  0.00  0.00    +0.105 C 
BRANCH  15  23
ATOM      1  O   UNL     1      16.904   6.549  20.838  0.00  0.00    -0.420 OA
ATOM      5  N   UNL     1      16.481   5.866  18.750  0.00  0.00    -0.112 NA
ATOM      6  N   UNL     1      17.836   5.714  18.983  0.00  0.00    -0.107 NA
ATOM     23  C   UNL     1      15.978   6.356  19.858  0.00  0.00    +0.218 A 
ATOM     26  C   UNL     1      18.036   6.124  20.214  0.00  0.00    +0.248 A 
BRANCH  26  27
ATOM     27  C   UNL     1      19.243   6.193  20.987  0.00  0.00    +0.038 A 
ATOM     28  C   UNL     1      20.406   5.580  20.520  0.00  0.00    +0.013 A 
ATOM     29  C   UNL     1      19.253   6.872  22.204  0.00  0.00    +0.013 A 
ATOM     30  C   UNL     1      21.578   5.648  21.271  0.00  0.00    +0.004 A 
ATOM     31  C   UNL     1      20.426   6.939  22.956  0.00  0.00    +0.004 A 
ATOM     32  C   UNL     1      21.589   6.327  22.489  0.00  0.00    -0.050 A 
ATOM     33  C   UNL     1      22.844   6.398  23.293  0.00  0.00    +0.044 C 
ENDBRANCH  26  27
ENDBRANCH  15  23
ENDBRANCH  10  15
TORSDOF 9
ENDMDL
MODEL 3
REMARK VINA RESULT:      -7.1     26.526     30.382
REMARK  Name = 38030637
REMARK  13 active torsions:
REMARK  status: ('A' for Active; 'I' for Inactive)
REMARK    1  A    between atoms: O_2  and  C_25
REMARK    2  A    between atoms: N_3  and  C_12
REMARK    3  A    between atoms: N_4  and  C_24
REMARK    4  A    between atoms: C_7  and  C_11
REMARK    5  A    between atoms: C_8  and  C_12
REMARK    6  A    between atoms: C_10  and  C_15
REMARK    7  A    between atoms: C_11  and  C_18
REMARK    8  A    between atoms: C_11  and  C_19
REMARK    9  A    between atoms: C_14  and  C_22
REMARK   10  A    between atoms: C_15  and  C_23
REMARK   11  A    between atoms: C_24  and  C_25
REMARK   12  A    between atoms: C_26  and  C_27
REMARK   13  A    between atoms: C_32  and  C_33
REMARK                            x       y       z     vdW  Elec       q    Type
REMARK                         _______ _______ _______ _____ _____    ______ ____
ROOT
ATOM      7  C   UNL     1      -5.892 -10.337  10.119  0.00  0.00    +0.000 C 
ATOM      8  C   UNL     1      -5.090  -9.896   8.872  0.00  0.00    +0.029 C 
ATOM      9  C   UNL     1      -4.990 -11.108  11.093  0.00  0.00    +0.012 C 
ATOM     10  C   UNL     1      -3.747 -10.310  11.538  0.00  0.00    +0.024 C 
ATOM     13  C   UNL     1      -3.735  -9.336   9.223  0.00  0.00    -0.023 C 
ATOM     14  C   UNL     1      -3.124  -9.500  10.412  0.00  0.00    -0.073 C 
ATOM     22  C   UNL     1      -1.808  -8.824  10.686  0.00  0.00    +0.039 C 
ENDROOT
BRANCH   7  11
ATOM     11  C   UNL     1      -6.557  -9.139  10.809  0.00  0.00    -0.013 C 
ATOM     18  C   UNL     1      -7.621  -8.526   9.903  0.00  0.00    +0.007 C 
ATOM     19  C   UNL     1      -7.162  -9.562  12.144  0.00  0.00    +0.007 C 
ENDBRANCH   7  11
BRANCH   8  12
ATOM     12  C   UNL     1      -4.916 -11.045   7.874  0.00  0.00    +0.092 C 
BRANCH  12   3
ATOM      3  N   UNL     1      -5.358 -10.640   6.540  0.00  0.00    -0.299 NA
ATOM      4  N   UNL     1      -7.375 -10.248   4.506  0.00  0.00    -0.298 NA
ATOM     16  C   UNL     1      -5.945 -11.777   5.819  0.00  0.00    +0.100 C 
ATOM     17  C   UNL     1      -6.320  -9.535   6.623  0.00  0.00    +0.100 C 
ATOM     20  C   UNL     1      -6.413 -11.354   4.423  0.00  0.00    +0.100 C 
ATOM     21  C   UNL     1      -6.787  -9.112   5.226  0.00  0.00    +0.100 C 
BRANCH   4  24
ATOM     24  C   UNL     1      -7.819  -9.845   3.173  0.00  0.00    +0.112 C 
BRANCH  24  25
ATOM     25  C   UNL     1      -8.054  -8.345   3.115  0.00  0.00    +0.171 C 
BRANCH  25   2
ATOM      2  O   UNL     1      -7.394  -7.823   1.969  0.00  0.00    -0.394 OA
ATOM     34  H   UNL     1      -8.020  -7.882   1.227  0.00  0.00    +0.209 HD
ENDBRANCH  25   2
ENDBRANCH  24  25
ENDBRANCH   4  24
ENDBRANCH  12   3
ENDBRANCH   8  12
BRANCH  10  15
ATOM     15  C   UNL     1      -2.755 -11.275  12.198  0.00  0.00    +0.105 C 
BRANCH  15  23
ATOM      1  O   UNL     1      -3.664 -11.154  14.459  0.00  0.00    -0.420 OA
ATOM      5  N   UNL     1      -1.519 -10.541  14.300  0.00  0.00    -0.112 NA
ATOM      6  N   UNL     1      -1.900 -10.425  15.625  0.00  0.00    -0.107 NA
ATOM     23  C   UNL     1      -2.579 -10.970  13.657  0.00  0.00    +0.218 A 
ATOM     26  C   UNL     1      -3.159 -10.793  15.670  0.00  0.00    +0.248 A 
BRANCH  26  27
ATOM     27  C   UNL     1      -4.066 -10.872  16.778  0.00  0.00    +0.038 A 
ATOM     28  C   UNL     1      -3.720 -11.608  17.912  0.00  0.00    +0.013 A 
ATOM     29  C   UNL     1      -5.294 -10.214  16.722  0.00  0.00    +0.013 A 
ATOM     30  C   UNL     1      -4.602 -11.683  18.989  0.00  0.00    +0.004 A 
ATOM     31  C   UNL     1      -6.176 -10.290  17.800  0.00  0.00    +0.004 A 
ATOM     32  C   UNL     1      -5.829 -11.025  18.933  0.00  0.00    -0.050 A 
ATOM     33  C   UNL     1      -6.774 -11.107  20.086  0.00  0.00    +0.044 C 
ENDBRANCH  26  27
ENDBRANCH  15  23
ENDBRANCH  10  15
TORSDOF 9
ENDMDL
MODEL 4
REMARK VINA RESULT:      -7.0     28.410     31.878
REMARK  Name = 38030637
REMARK  13 active torsions:
REMARK  status: ('A' for Active; 'I' for Inactive)
REMARK    1  A    between atoms: O_2  and  C_25
REMARK    2  A    between atoms: N_3  and  C_12
REMARK    3  A    between atoms: N_4  and  C_24
REMARK    4  A    between atoms: C_7  and  C_11
REMARK    5  A    between atoms: C_8  and  C_12
REMARK    6  A    between atoms: C_10  and  C_15
REMARK    7  A    between atoms: C_11  and  C_18
REMARK    8  A    between atoms: C_11  and  C_19
REMARK    9  A    between atoms: C_14  and  C_22
REMARK   10  A    between atoms: C_15  and  C_23
REMARK   11  A    between atoms: C_24  and  C_25
REMARK   12  A    between atoms: C_26  and  C_27
REMARK   13  A    between atoms: C_32  and  C_33
REMARK                            x       y       z     vdW  Elec       q    Type
REMARK                         _______ _______ _______ _____ _____    ______ ____
ROOT
ATOM      7  C   UNL     1     -16.950   3.600  28.563  0.00  0.00    +0.000 C 
ATOM      8  C   UNL     1     -16.818   2.124  29.005  0.00  0.00    +0.029 C 
ATOM      9  C   UNL     1     -16.221   3.831  27.232  0.00  0.00    +0.012 C 
ATOM     10  C   UNL     1     -16.715   2.908  26.097  0.00  0.00    +0.024 C 
ATOM     13  C   UNL     1     -17.036   1.158  27.869  0.00  0.00    -0.023 C 
ATOM     14  C   UNL     1     -17.005   1.491  26.565  0.00  0.00    -0.073 C 
ATOM     22  C   UNL     1     -17.322   0.462  25.513  0.00  0.00    +0.039 C 
ENDROOT
BRANCH   7  11
ATOM     11  C   UNL     1     -18.421   4.027  28.472  0.00  0.00    -0.013 C 
ATOM     18  C   UNL     1     -19.170   3.631  29.741  0.00  0.00    +0.007 C 
ATOM     19  C   UNL     1     -18.525   5.529  28.228  0.00  0.00    +0.007 C 
ENDBRANCH   7  11
BRANCH   8  12
ATOM     12  C   UNL     1     -15.456   1.845  29.649  0.00  0.00    +0.092 C 
BRANCH  12   3
ATOM      3  N   UNL     1     -15.107   2.903  30.596  0.00  0.00    -0.299 NA
ATOM      4  N   UNL     1     -14.236   3.859  33.182  0.00  0.00    -0.298 NA
ATOM     16  C   UNL     1     -16.003   2.877  31.760  0.00  0.00    +0.100 C 
ATOM     17  C   UNL     1     -13.708   2.780  31.024  0.00  0.00    +0.100 C 
ATOM     20  C   UNL     1     -15.636   3.982  32.755  0.00  0.00    +0.100 C 
ATOM     21  C   UNL     1     -13.342   3.886  32.019  0.00  0.00    +0.100 C 
BRANCH   4  24
ATOM     24  C   UNL     1     -13.888   4.914  34.131  0.00  0.00    +0.112 C 
BRANCH  24  25
ATOM     25  C   UNL     1     -14.848   4.916  35.309  0.00  0.00    +0.171 C 
BRANCH  25   2
ATOM      2  O   UNL     1     -14.408   3.955  36.259  0.00  0.00    -0.394 OA
ATOM     34  H   UNL     1     -14.176   4.439  37.070  0.00  0.00    +0.209 HD
ENDBRANCH  25   2
ENDBRANCH  24  25
ENDBRANCH   4  24
ENDBRANCH  12   3
ENDBRANCH   8  12
BRANCH  10  15
ATOM     15  C   UNL     1     -15.702   2.962  24.947  0.00  0.00    +0.105 C 
BRANCH  15  23
ATOM      1  O   UNL     1     -14.631   4.665  23.565  0.00  0.00    -0.420 OA
ATOM      5  N   UNL     1     -16.741   5.143  24.138  0.00  0.00    -0.112 NA
ATOM      6  N   UNL     1     -16.261   6.183  23.363  0.00  0.00    -0.107 NA
ATOM     23  C   UNL     1     -15.756   4.280  24.229  0.00  0.00    +0.218 A 
ATOM     26  C   UNL     1     -15.027   5.861  23.052  0.00  0.00    +0.248 A 
BRANCH  26  27
ATOM     27  C   UNL     1     -14.051   6.562  22.269  0.00  0.00    +0.038 A 
ATOM     28  C   UNL     1     -13.006   5.862  21.668  0.00  0.00    +0.013 A 
ATOM     29  C   UNL     1     -14.148   7.944  22.110  0.00  0.00    +0.013 A 
ATOM     30  C   UNL     1     -12.058   6.544  20.906  0.00  0.00    +0.004 A 
ATOM     31  C   UNL     1     -13.199   8.627  21.348  0.00  0.00    +0.004 A 
ATOM     32  C   UNL     1     -12.154   7.926  20.746  0.00  0.00    -0.050 A 
ATOM     33  C   UNL     1     -11.139   8.656  19.932  0.00  0.00    +0.044 C 
ENDBRANCH  26  27
ENDBRANCH  15  23
ENDBRANCH  10  15
TORSDOF 9
ENDMDL
MODEL 5
REMARK VINA RESULT:      -6.9     26.386     30.269
REMARK  Name = 38030637
REMARK  13 active torsions:
REMARK  status: ('A' for Active; 'I' for Inactive)
REMARK    1  A    between atoms: O_2  and  C_25
REMARK    2  A    between atoms: N_3  and  C_12
REMARK    3  A    between atoms: N_4  and  C_24
REMARK    4  A    between atoms: C_7  and  C_11
REMARK    5  A    between atoms: C_8  and  C_12
REMARK    6  A    between atoms: C_10  and  C_15
REMARK    7  A    between atoms: C_11  and  C_18
REMARK    8  A    between atoms: C_11  and  C_19
REMARK    9  A    between atoms: C_14  and  C_22
REMARK   10  A    between atoms: C_15  and  C_23
REMARK   11  A    between atoms: C_24  and  C_25
REMARK   12  A    between atoms: C_26  and  C_27
REMARK   13  A    between atoms: C_32  and  C_33
REMARK                            x       y       z     vdW  Elec       q    Type
REMARK                         _______ _______ _______ _____ _____    ______ ____
ROOT
ATOM      7  C   UNL     1      -5.308 -10.556  10.881  0.00  0.00    +0.000 C 
ATOM      8  C   UNL     1      -4.601 -10.225   9.546  0.00  0.00    +0.029 C 
ATOM      9  C   UNL     1      -4.321 -11.195  11.868  0.00  0.00    +0.012 C 
ATOM     10  C   UNL     1      -3.081 -10.319  12.147  0.00  0.00    +0.024 C 
ATOM     13  C   UNL     1      -3.247  -9.593   9.748  0.00  0.00    -0.023 C 
ATOM     14  C   UNL     1      -2.558  -9.614  10.905  0.00  0.00    -0.073 C 
ATOM     22  C   UNL     1      -1.252  -8.876  11.022  0.00  0.00    +0.039 C 
ENDROOT
BRANCH   7  11
ATOM     11  C   UNL     1      -5.971  -9.311  11.485  0.00  0.00    -0.013 C 
ATOM     18  C   UNL     1      -7.081  -8.802  10.571  0.00  0.00    +0.007 C 
ATOM     19  C   UNL     1      -6.515  -9.621  12.877  0.00  0.00    +0.007 C 
ENDBRANCH   7  11
BRANCH   8  12
ATOM     12  C   UNL     1      -4.449 -11.467   8.662  0.00  0.00    +0.092 C 
BRANCH  12   3
ATOM      3  N   UNL     1      -4.853 -11.174   7.287  0.00  0.00    -0.299 NA
ATOM      4  N   UNL     1      -6.216 -11.801   4.816  0.00  0.00    -0.298 NA
ATOM     16  C   UNL     1      -4.328 -12.188   6.363  0.00  0.00    +0.100 C 
ATOM     17  C   UNL     1      -6.314 -11.091   7.180  0.00  0.00    +0.100 C 
ATOM     20  C   UNL     1      -4.754 -11.885   4.923  0.00  0.00    +0.100 C 
ATOM     21  C   UNL     1      -6.739 -10.787   5.739  0.00  0.00    +0.100 C 
BRANCH   4  24
ATOM     24  C   UNL     1      -6.620 -11.511   3.442  0.00  0.00    +0.112 C 
BRANCH  24  25
ATOM     25  C   UNL     1      -6.603 -12.775   2.598  0.00  0.00    +0.171 C 
BRANCH  25   2
ATOM      2  O   UNL     1      -5.653 -12.615   1.553  0.00  0.00    -0.394 OA
ATOM     34  H   UNL     1      -5.413 -13.506   1.246  0.00  0.00    +0.209 HD
ENDBRANCH  25   2
ENDBRANCH  24  25
ENDBRANCH   4  24
ENDBRANCH  12   3
ENDBRANCH   8  12
BRANCH  10  15
ATOM     15  C   UNL     1      -2.017 -11.182  12.836  0.00  0.00    +0.105 C 
BRANCH  15  23
ATOM      1  O   UNL     1      -3.333 -11.100  14.890  0.00  0.00    -0.420 OA
ATOM      5  N   UNL     1      -1.127 -10.905  15.206  0.00  0.00    -0.112 NA
ATOM      6  N   UNL     1      -1.743 -10.842  16.442  0.00  0.00    -0.107 NA
ATOM     23  C   UNL     1      -2.092 -11.055  14.330  0.00  0.00    +0.218 A 
ATOM     26  C   UNL     1      -3.030 -10.960  16.209  0.00  0.00    +0.248 A 
BRANCH  26  27
ATOM     27  C   UNL     1      -4.143 -10.965  17.113  0.00  0.00    +0.038 A 
ATOM     28  C   UNL     1      -5.327 -10.315  16.765  0.00  0.00    +0.013 A 
ATOM     29  C   UNL     1      -4.042 -11.620  18.340  0.00  0.00    +0.013 A 
ATOM     30  C   UNL     1      -6.409 -10.320  17.644  0.00  0.00    +0.004 A 
ATOM     31  C   UNL     1      -5.125 -11.625  19.220  0.00  0.00    +0.004 A 
ATOM     32  C   UNL     1      -6.308 -10.975  18.871  0.00  0.00    -0.050 A 
ATOM     33  C   UNL     1      -7.467 -10.979  19.812  0.00  0.00    +0.044 C 
ENDBRANCH  26  27
ENDBRANCH  15  23
ENDBRANCH  10  15
TORSDOF 9
ENDMDL
MODEL 6
REMARK VINA RESULT:      -6.9     28.318     31.759
REMARK  Name = 38030637
REMARK  13 active torsions:
REMARK  status: ('A' for Active; 'I' for Inactive)
REMARK    1  A    between atoms: O_2  and  C_25
REMARK    2  A    between atoms: N_3  and  C_12
REMARK    3  A    between atoms: N_4  and  C_24
REMARK    4  A    between atoms: C_7  and  C_11
REMARK    5  A    between atoms: C_8  and  C_12
REMARK    6  A    between atoms: C_10  and  C_15
REMARK    7  A    between atoms: C_11  and  C_18
REMARK    8  A    between atoms: C_11  and  C_19
REMARK    9  A    between atoms: C_14  and  C_22
REMARK   10  A    between atoms: C_15  and  C_23
REMARK   11  A    between atoms: C_24  and  C_25
REMARK   12  A    between atoms: C_26  and  C_27
REMARK   13  A    between atoms: C_32  and  C_33
REMARK                            x       y       z     vdW  Elec       q    Type
REMARK                         _______ _______ _______ _____ _____    ______ ____
ROOT
ATOM      7  C   UNL     1     -14.742   5.480  32.825  0.00  0.00    +0.000 C 
ATOM      8  C   UNL     1     -15.867   5.608  31.772  0.00  0.00    +0.029 C 
ATOM      9  C   UNL     1     -13.617   6.483  32.536  0.00  0.00    +0.012 C 
ATOM     10  C   UNL     1     -14.102   7.947  32.479  0.00  0.00    +0.024 C 
ATOM     13  C   UNL     1     -16.217   7.043  31.472  0.00  0.00    -0.023 C 
ATOM     14  C   UNL     1     -15.449   8.102  31.790  0.00  0.00    -0.073 C 
ATOM     22  C   UNL     1     -15.936   9.500  31.521  0.00  0.00    +0.039 C 
ENDROOT
BRANCH   7  11
ATOM     11  C   UNL     1     -15.287   5.652  34.249  0.00  0.00    -0.013 C 
ATOM     18  C   UNL     1     -16.680   5.038  34.364  0.00  0.00    +0.007 C 
ATOM     19  C   UNL     1     -14.335   5.026  35.263  0.00  0.00    +0.007 C 
ENDBRANCH   7  11
BRANCH   8  12
ATOM     12  C   UNL     1     -15.504   4.895  30.465  0.00  0.00    +0.092 C 
BRANCH  12   3
ATOM      3  N   UNL     1     -15.283   3.469  30.700  0.00  0.00    -0.299 NA
ATOM      4  N   UNL     1     -14.506   0.813  29.864  0.00  0.00    -0.298 NA
ATOM     16  C   UNL     1     -16.150   2.658  29.835  0.00  0.00    +0.100 C 
ATOM     17  C   UNL     1     -13.874   3.118  30.488  0.00  0.00    +0.100 C 
ATOM     20  C   UNL     1     -15.916   1.163  30.077  0.00  0.00    +0.100 C 
ATOM     21  C   UNL     1     -13.642   1.622  30.730  0.00  0.00    +0.100 C 
BRANCH   4  24
ATOM     24  C   UNL     1     -14.286  -0.614  30.096  0.00  0.00    +0.112 C 
BRANCH  24  25
ATOM     25  C   UNL     1     -13.111  -1.117  29.275  0.00  0.00    +0.171 C 
BRANCH  25   2
ATOM      2  O   UNL     1     -13.287  -2.506  29.028  0.00  0.00    -0.394 OA
ATOM     34  H   UNL     1     -13.239  -2.957  29.888  0.00  0.00    +0.209 HD
ENDBRANCH  25   2
ENDBRANCH  24  25
ENDBRANCH   4  24
ENDBRANCH  12   3
ENDBRANCH   8  12
BRANCH  10  15
ATOM     15  C   UNL     1     -13.003   8.803  31.840  0.00  0.00    +0.105 C 
BRANCH  15  23
ATOM      1  O   UNL     1     -11.196   9.058  33.461  0.00  0.00    -0.420 OA
ATOM      5  N   UNL     1     -12.537  10.840  33.297  0.00  0.00    -0.112 NA
ATOM      6  N   UNL     1     -11.568  11.120  34.242  0.00  0.00    -0.107 NA
ATOM     23  C   UNL     1     -12.281   9.627  32.868  0.00  0.00    +0.218 A 
ATOM     26  C   UNL     1     -10.808  10.052  34.305  0.00  0.00    +0.248 A 
BRANCH  26  27
ATOM     27  C   UNL     1      -9.653   9.777  35.110  0.00  0.00    +0.038 A 
ATOM     28  C   UNL     1      -9.767   8.967  36.239  0.00  0.00    +0.013 A 
ATOM     29  C   UNL     1      -8.416  10.320  34.763  0.00  0.00    +0.013 A 
ATOM     30  C   UNL     1      -8.644   8.699  37.021  0.00  0.00    +0.004 A 
ATOM     31  C   UNL     1      -7.293  10.053  35.546  0.00  0.00    +0.004 A 
ATOM     32  C   UNL     1      -7.408   9.242  36.675  0.00  0.00    -0.050 A 
ATOM     33  C   UNL     1      -6.206   8.956  37.513  0.00  0.00    +0.044 C 
ENDBRANCH  26  27
ENDBRANCH  15  23
ENDBRANCH  10  15
TORSDOF 9
ENDMDL
MODEL 7
REMARK VINA RESULT:      -6.8     27.869     31.472
REMARK  Name = 38030637
REMARK  13 active torsions:
REMARK  status: ('A' for Active; 'I' for Inactive)
REMARK    1  A    between atoms: O_2  and  C_25
REMARK    2  A    between atoms: N_3  and  C_12
REMARK    3  A    between atoms: N_4  and  C_24
REMARK    4  A    between atoms: C_7  and  C_11
REMARK    5  A    between atoms: C_8  and  C_12
REMARK    6  A    between atoms: C_10  and  C_15
REMARK    7  A    between atoms: C_11  and  C_18
REMARK    8  A    between atoms: C_11  and  C_19
REMARK    9  A    between atoms: C_14  and  C_22
REMARK   10  A    between atoms: C_15  and  C_23
REMARK   11  A    between atoms: C_24  and  C_25
REMARK   12  A    between atoms: C_26  and  C_27
REMARK   13  A    between atoms: C_32  and  C_33
REMARK                            x       y       z     vdW  Elec       q    Type
REMARK                         _______ _______ _______ _____ _____    ______ ____
ROOT
ATOM      7  C   UNL     1     -14.185   6.244  33.409  0.00  0.00    +0.000 C 
ATOM      8  C   UNL     1     -15.486   5.668  32.804  0.00  0.00    +0.029 C 
ATOM      9  C   UNL     1     -13.967   7.689  32.938  0.00  0.00    +0.012 C 
ATOM     10  C   UNL     1     -15.148   8.625  33.274  0.00  0.00    +0.024 C 
ATOM     13  C   UNL     1     -16.634   6.643  32.864  0.00  0.00    -0.023 C 
ATOM     14  C   UNL     1     -16.505   7.965  33.084  0.00  0.00    -0.073 C 
ATOM     22  C   UNL     1     -17.726   8.835  33.210  0.00  0.00    +0.039 C 
ENDROOT
BRANCH   7  11
ATOM     11  C   UNL     1     -14.192   6.153  34.940  0.00  0.00    -0.013 C 
ATOM     18  C   UNL     1     -14.177   4.695  35.388  0.00  0.00    +0.007 C 
ATOM     19  C   UNL     1     -13.003   6.910  35.523  0.00  0.00    +0.007 C 
ENDBRANCH   7  11
BRANCH   8  12
ATOM     12  C   UNL     1     -15.286   5.215  31.354  0.00  0.00    +0.092 C 
BRANCH  12   3
ATOM      3  N   UNL     1     -14.726   3.865  31.308  0.00  0.00    -0.299 NA
ATOM      4  N   UNL     1     -14.901   1.021  30.814  0.00  0.00    -0.298 NA
ATOM     16  C   UNL     1     -15.441   2.973  32.231  0.00  0.00    +0.100 C 
ATOM     17  C   UNL     1     -14.769   3.329  29.942  0.00  0.00    +0.100 C 
ATOM     20  C   UNL     1     -14.859   1.557  32.181  0.00  0.00    +0.100 C 
ATOM     21  C   UNL     1     -14.186   1.912  29.893  0.00  0.00    +0.100 C 
BRANCH   4  24
ATOM     24  C   UNL     1     -14.345  -0.329  30.769  0.00  0.00    +0.112 C 
BRANCH  24  25
ATOM     25  C   UNL     1     -13.597  -0.559  29.466  0.00  0.00    +0.171 C 
BRANCH  25   2
ATOM      2  O   UNL     1     -12.511  -1.443  29.712  0.00  0.00    -0.394 OA
ATOM     34  H   UNL     1     -12.431  -2.021  28.933  0.00  0.00    +0.209 HD
ENDBRANCH  25   2
ENDBRANCH  24  25
ENDBRANCH   4  24
ENDBRANCH  12   3
ENDBRANCH   8  12
BRANCH  10  15
ATOM     15  C   UNL     1     -14.995   9.916  32.461  0.00  0.00    +0.105 C 
BRANCH  15  23
ATOM      1  O   UNL     1     -13.841  10.199  30.329  0.00  0.00    -0.420 OA
ATOM      5  N   UNL     1     -12.496   9.663  32.035  0.00  0.00    -0.112 NA
ATOM      6  N   UNL     1     -11.717   9.791  30.899  0.00  0.00    -0.107 NA
ATOM     23  C   UNL     1     -13.728   9.910  31.655  0.00  0.00    +0.218 A 
ATOM     26  C   UNL     1     -12.544  10.104  29.929  0.00  0.00    +0.248 A 
BRANCH  26  27
ATOM     27  C   UNL     1     -12.295  10.357  28.540  0.00  0.00    +0.038 A 
ATOM     28  C   UNL     1     -13.312  10.862  27.729  0.00  0.00    +0.013 A 
ATOM     29  C   UNL     1     -11.036  10.099  27.999  0.00  0.00    +0.013 A 
ATOM     30  C   UNL     1     -13.070  11.108  26.379  0.00  0.00    +0.004 A 
ATOM     31  C   UNL     1     -10.794  10.344  26.647  0.00  0.00    +0.004 A 
ATOM     32  C   UNL     1     -11.811  10.850  25.838  0.00  0.00    -0.050 A 
ATOM     33  C   UNL     1     -11.552  11.112  24.392  0.00  0.00    +0.044 C 
ENDBRANCH  26  27
ENDBRANCH  15  23
ENDBRANCH  10  15
TORSDOF 9
ENDMDL
MODEL 8
REMARK VINA RESULT:      -6.8     26.696     30.573
REMARK  Name = 38030637
REMARK  13 active torsions:
REMARK  status: ('A' for Active; 'I' for Inactive)
REMARK    1  A    between atoms: O_2  and  C_25
REMARK    2  A    between atoms: N_3  and  C_12
REMARK    3  A    between atoms: N_4  and  C_24
REMARK    4  A    between atoms: C_7  and  C_11
REMARK    5  A    between atoms: C_8  and  C_12
REMARK    6  A    between atoms: C_10  and  C_15
REMARK    7  A    between atoms: C_11  and  C_18
REMARK    8  A    between atoms: C_11  and  C_19
REMARK    9  A    between atoms: C_14  and  C_22
REMARK   10  A    between atoms: C_15  and  C_23
REMARK   11  A    between atoms: C_24  and  C_25
REMARK   12  A    between atoms: C_26  and  C_27
REMARK   13  A    between atoms: C_32  and  C_33
REMARK                            x       y       z     vdW  Elec       q    Type
REMARK                         _______ _______ _______ _____ _____    ______ ____
ROOT
ATOM      7  C   UNL     1      -9.129  -9.355  16.146  0.00  0.00    +0.000 C 
ATOM      8  C   UNL     1     -10.384  -9.006  16.979  0.00  0.00    +0.029 C 
ATOM      9  C   UNL     1      -7.910  -9.539  17.061  0.00  0.00    +0.012 C 
ATOM     10  C   UNL     1      -8.120 -10.613  18.150  0.00  0.00    +0.024 C 
ATOM     13  C   UNL     1     -10.514  -9.857  18.216  0.00  0.00    -0.023 C 
ATOM     14  C   UNL     1      -9.518 -10.591  18.748  0.00  0.00    -0.073 C 
ATOM     22  C   UNL     1      -9.780 -11.474  19.938  0.00  0.00    +0.039 C 
ENDROOT
BRANCH   7  11
ATOM     11  C   UNL     1      -9.363 -10.597  15.277  0.00  0.00    -0.013 C 
ATOM     18  C   UNL     1     -10.551 -10.379  14.345  0.00  0.00    +0.007 C 
ATOM     19  C   UNL     1      -8.106 -10.933  14.480  0.00  0.00    +0.007 C 
ENDBRANCH   7  11
BRANCH   8  12
ATOM     12  C   UNL     1     -10.404  -7.527  17.381  0.00  0.00    +0.092 C 
BRANCH  12   3
ATOM      3  N   UNL     1     -11.424  -6.802  16.625  0.00  0.00    -0.299 NA
ATOM      4  N   UNL     1     -12.979  -6.281  14.243  0.00  0.00    -0.298 NA
ATOM     16  C   UNL     1     -10.831  -6.135  15.458  0.00  0.00    +0.100 C 
ATOM     17  C   UNL     1     -12.504  -7.704  16.206  0.00  0.00    +0.100 C 
ATOM     20  C   UNL     1     -11.899  -5.378  14.662  0.00  0.00    +0.100 C 
ATOM     21  C   UNL     1     -13.571  -6.945  15.410  0.00  0.00    +0.100 C 
BRANCH   4  24
ATOM     24  C   UNL     1     -13.997  -5.556  13.485  0.00  0.00    +0.112 C 
BRANCH  24  25
ATOM     25  C   UNL     1     -13.369  -4.422  12.691  0.00  0.00    +0.171 C 
BRANCH  25   2
ATOM      2  O   UNL     1     -14.057  -3.216  12.996  0.00  0.00    -0.394 OA
ATOM     34  H   UNL     1     -14.814  -3.453  13.558  0.00  0.00    +0.209 HD
ENDBRANCH  25   2
ENDBRANCH  24  25
ENDBRANCH   4  24
ENDBRANCH  12   3
ENDBRANCH   8  12
BRANCH  10  15
ATOM     15  C   UNL     1      -7.018 -10.463  19.205  0.00  0.00    +0.105 C 
BRANCH  15  23
ATOM      1  O   UNL     1      -5.393 -10.514  17.384  0.00  0.00    -0.420 OA
ATOM      5  N   UNL     1      -4.718 -11.558  19.244  0.00  0.00    -0.112 NA
ATOM      6  N   UNL     1      -3.710 -11.664  18.303  0.00  0.00    -0.107 NA
ATOM     23  C   UNL     1      -5.680 -10.879  18.664  0.00  0.00    +0.218 A 
ATOM     26  C   UNL     1      -4.147 -11.040  17.235  0.00  0.00    +0.248 A 
BRANCH  26  27
ATOM     27  C   UNL     1      -3.527 -10.832  15.959  0.00  0.00    +0.038 A 
ATOM     28  C   UNL     1      -2.165 -10.537  15.885  0.00  0.00    +0.013 A 
ATOM     29  C   UNL     1      -4.284 -10.925  14.792  0.00  0.00    +0.013 A 
ATOM     30  C   UNL     1      -1.562 -10.336  14.644  0.00  0.00    +0.004 A 
ATOM     31  C   UNL     1      -3.681 -10.723  13.550  0.00  0.00    +0.004 A 
ATOM     32  C   UNL     1      -2.319 -10.429  13.477  0.00  0.00    -0.050 A 
ATOM     33  C   UNL     1      -1.674 -10.212  12.149  0.00  0.00    +0.044 C 
ENDBRANCH  26  27
ENDBRANCH  15  23
ENDBRANCH  10  15
TORSDOF 9
ENDMDL
MODEL 9
REMARK VINA RESULT:      -6.7     26.640     30.165
REMARK  Name = 38030637
REMARK  13 active torsions:
REMARK  status: ('A' for Active; 'I' for Inactive)
REMARK    1  A    between atoms: O_2  and  C_25
REMARK    2  A    between atoms: N_3  and  C_12
REMARK    3  A    between atoms: N_4  and  C_24
REMARK    4  A    between atoms: C_7  and  C_11
REMARK    5  A    between atoms: C_8  and  C_12
REMARK    6  A    between atoms: C_10  and  C_15
REMARK    7  A    between atoms: C_11  and  C_18
REMARK    8  A    between atoms: C_11  and  C_19
REMARK    9  A    between atoms: C_14  and  C_22
REMARK   10  A    between atoms: C_15  and  C_23
REMARK   11  A    between atoms: C_24  and  C_25
REMARK   12  A    between atoms: C_26  and  C_27
REMARK   13  A    between atoms: C_32  and  C_33
REMARK                            x       y       z     vdW  Elec       q    Type
REMARK                         _______ _______ _______ _____ _____    ______ ____
ROOT
ATOM      7  C   UNL     1      -3.719 -10.541  15.399  0.00  0.00    +0.000 C 
ATOM      8  C   UNL     1      -4.768 -10.892  14.318  0.00  0.00    +0.029 C 
ATOM      9  C   UNL     1      -4.113 -11.154  16.750  0.00  0.00    +0.012 C 
ATOM     10  C   UNL     1      -4.301 -12.686  16.695  0.00  0.00    +0.024 C 
ATOM     13  C   UNL     1      -5.197 -12.335  14.375  0.00  0.00    -0.023 C 
ATOM     14  C   UNL     1      -4.988 -13.156  15.422  0.00  0.00    -0.073 C 
ATOM     22  C   UNL     1      -5.382 -14.605  15.340  0.00  0.00    +0.039 C 
ENDROOT
BRANCH   7  11
ATOM     11  C   UNL     1      -2.312 -10.985  14.977  0.00  0.00    -0.013 C 
ATOM     18  C   UNL     1      -2.020 -10.540  13.547  0.00  0.00    +0.007 C 
ATOM     19  C   UNL     1      -1.268 -10.429  15.940  0.00  0.00    +0.007 C 
ENDBRANCH   7  11
BRANCH   8  12
ATOM     12  C   UNL     1      -6.005  -9.994  14.417  0.00  0.00    +0.092 C 
BRANCH  12   3
ATOM      3  N   UNL     1      -6.395  -9.506  13.095  0.00  0.00    -0.299 NA
ATOM      4  N   UNL     1      -6.984  -9.868  10.288  0.00  0.00    -0.298 NA
ATOM     16  C   UNL     1      -5.326  -9.743  12.116  0.00  0.00    +0.100 C 
ATOM     17  C   UNL     1      -7.644 -10.137  12.653  0.00  0.00    +0.100 C 
ATOM     20  C   UNL     1      -5.734  -9.236  10.730  0.00  0.00    +0.100 C 
ATOM     21  C   UNL     1      -8.051  -9.629  11.266  0.00  0.00    +0.100 C 
BRANCH   4  24
ATOM     24  C   UNL     1      -7.371  -9.382   8.965  0.00  0.00    +0.112 C 
BRANCH  24  25
ATOM     25  C   UNL     1      -7.994  -7.999   9.062  0.00  0.00    +0.171 C 
BRANCH  25   2
ATOM      2  O   UNL     1      -7.183  -7.081   8.339  0.00  0.00    -0.394 OA
ATOM     34  H   UNL     1      -6.329  -7.029   8.801  0.00  0.00    +0.209 HD
ENDBRANCH  25   2
ENDBRANCH  24  25
ENDBRANCH   4  24
ENDBRANCH  12   3
ENDBRANCH   8  12
BRANCH  10  15
ATOM     15  C   UNL     1      -5.030 -13.135  17.967  0.00  0.00    +0.105 C 
BRANCH  15  23
ATOM      1  O   UNL     1      -6.898 -11.574  17.792  0.00  0.00    -0.420 OA
ATOM      5  N   UNL     1      -5.735 -11.401  19.695  0.00  0.00    -0.112 NA
ATOM      6  N   UNL     1      -6.754 -10.466  19.729  0.00  0.00    -0.107 NA
ATOM     23  C   UNL     1      -5.858 -12.024  18.546  0.00  0.00    +0.218 A 
ATOM     26  C   UNL     1      -7.407 -10.604  18.599  0.00  0.00    +0.248 A 
BRANCH  26  27
ATOM     27  C   UNL     1      -8.551  -9.902  18.093  0.00  0.00    +0.038 A 
ATOM     28  C   UNL     1      -9.822 -10.191  18.589  0.00  0.00    +0.013 A 
ATOM     29  C   UNL     1      -8.392  -8.931  17.105  0.00  0.00    +0.013 A 
ATOM     30  C   UNL     1     -10.934  -9.509  18.099  0.00  0.00    +0.004 A 
ATOM     31  C   UNL     1      -9.505  -8.248  16.613  0.00  0.00    +0.004 A 
ATOM     32  C   UNL     1     -10.775  -8.537  17.111  0.00  0.00    -0.050 A 
ATOM     33  C   UNL     1     -11.966  -7.807  16.584  0.00  0.00    +0.044 C 
ENDBRANCH  26  27
ENDBRANCH  15  23
ENDBRANCH  10  15
TORSDOF 9
ENDMDL
MODEL 10
REMARK VINA RESULT:      -6.6      3.333      6.725
REMARK  Name = 38030637
REMARK  13 active torsions:
REMARK  status: ('A' for Active; 'I' for Inactive)
REMARK    1  A    between atoms: O_2  and  C_25
REMARK    2  A    between atoms: N_3  and  C_12
REMARK    3  A    between atoms: N_4  and  C_24
REMARK    4  A    between atoms: C_7  and  C_11
REMARK    5  A    between atoms: C_8  and  C_12
REMARK    6  A    between atoms: C_10  and  C_15
REMARK    7  A    between atoms: C_11  and  C_18
REMARK    8  A    between atoms: C_11  and  C_19
REMARK    9  A    between atoms: C_14  and  C_22
REMARK   10  A    between atoms: C_15  and  C_23
REMARK   11  A    between atoms: C_24  and  C_25
REMARK   12  A    between atoms: C_26  and  C_27
REMARK   13  A    between atoms: C_32  and  C_33
REMARK                            x       y       z     vdW  Elec       q    Type
REMARK                         _______ _______ _______ _____ _____    ______ ____
ROOT
ATOM      7  C   UNL     1      13.602  11.798  20.466  0.00  0.00    +0.000 C 
ATOM      8  C   UNL     1      12.748  11.253  21.635  0.00  0.00    +0.029 C 
ATOM      9  C   UNL     1      14.148  10.643  19.616  0.00  0.00    +0.012 C 
ATOM     10  C   UNL     1      13.044   9.719  19.058  0.00  0.00    +0.024 C 
ATOM     13  C   UNL     1      11.816  10.150  21.205  0.00  0.00    -0.023 C 
ATOM     14  C   UNL     1      11.924   9.461  20.054  0.00  0.00    -0.073 C 
ATOM     22  C   UNL     1      10.887   8.436  19.683  0.00  0.00    +0.039 C 
ENDROOT
BRANCH   7  11
ATOM     11  C   UNL     1      12.808  12.792  19.609  0.00  0.00    -0.013 C 
ATOM     18  C   UNL     1      12.135  13.839  20.492  0.00  0.00    +0.007 C 
ATOM     19  C   UNL     1      13.720  13.456  18.582  0.00  0.00    +0.007 C 
ENDBRANCH   7  11
BRANCH   8  12
ATOM     12  C   UNL     1      13.621  10.754  22.790  0.00  0.00    +0.092 C 
BRANCH  12   3
ATOM      3  N   UNL     1      13.748  11.782  23.823  0.00  0.00    -0.299 NA
ATOM      4  N   UNL     1      13.702  12.695  26.566  0.00  0.00    -0.298 NA
ATOM     16  C   UNL     1      12.482  11.949  24.549  0.00  0.00    +0.100 C 
ATOM     17  C   UNL     1      14.834  11.454  24.754  0.00  0.00    +0.100 C 
ATOM     20  C   UNL     1      12.615  13.023  25.634  0.00  0.00    +0.100 C 
ATOM     21  C   UNL     1      14.966  12.529  25.838  0.00  0.00    +0.100 C 
BRANCH   4  24
ATOM     24  C   UNL     1      13.827  13.721  27.599  0.00  0.00    +0.112 C 
BRANCH  24  25
ATOM     25  C   UNL     1      14.827  13.295  28.661  0.00  0.00    +0.171 C 
BRANCH  25   2
ATOM      2  O   UNL     1      14.230  12.296  29.477  0.00  0.00    -0.394 OA
ATOM     34  H   UNL     1      14.655  11.451  29.251  0.00  0.00    +0.209 HD
ENDBRANCH  25   2
ENDBRANCH  24  25
ENDBRANCH   4  24
ENDBRANCH  12   3
ENDBRANCH   8  12
BRANCH  10  15
ATOM     15  C   UNL     1      13.698   8.429  18.547  0.00  0.00    +0.105 C 
BRANCH  15  23
ATOM      1  O   UNL     1      15.891   7.941  19.501  0.00  0.00    -0.420 OA
ATOM      5  N   UNL     1      14.178   7.075  20.651  0.00  0.00    -0.112 NA
ATOM      6  N   UNL     1      15.349   6.724  21.297  0.00  0.00    -0.107 NA
ATOM     23  C   UNL     1      14.542   7.785  19.608  0.00  0.00    +0.218 A 
ATOM     26  C   UNL     1      16.322   7.251  20.591  0.00  0.00    +0.248 A 
BRANCH  26  27
ATOM     27  C   UNL     1      17.742   7.212  20.789  0.00  0.00    +0.038 A 
ATOM     28  C   UNL     1      18.389   8.278  21.414  0.00  0.00    +0.013 A 
ATOM     29  C   UNL     1      18.476   6.109  20.356  0.00  0.00    +0.013 A 
ATOM     30  C   UNL     1      19.769   8.240  21.607  0.00  0.00    +0.004 A 
ATOM     31  C   UNL     1      19.857   6.070  20.548  0.00  0.00    +0.004 A 
ATOM     32  C   UNL     1      20.503   7.136  21.174  0.00  0.00    -0.050 A 
ATOM     33  C   UNL     1      21.980   7.095  21.379  0.00  0.00    +0.044 C 
ENDBRANCH  26  27
ENDBRANCH  15  23
ENDBRANCH  10  15
TORSDOF 9
ENDMDL
