MODEL 1
REMARK VINA RESULT:      -7.2      0.000      0.000
REMARK  Name = 9423973
REMARK  5 active torsions:
REMARK  status: ('A' for Active; 'I' for Inactive)
REMARK    1  A    between atoms: O_5  and  C_22
REMARK    2  A    between atoms: O_5  and  C_27
REMARK    3  A    between atoms: N_7  and  C_10
REMARK    4  A    between atoms: C_17  and  C_22
REMARK    5  A    between atoms: C_20  and  C_23
REMARK                            x       y       z     vdW  Elec       q    Type
REMARK                         _______ _______ _______ _____ _____    ______ ____
ROOT
ATOM      2  O   UNL     1      16.386   5.764  18.012  0.00  0.00    -0.273 OA
ATOM      3  O   UNL     1      18.149   9.094  21.770  0.00  0.00    -0.270 OA
ATOM      6  N   UNL     1      16.651   7.705  20.713  0.00  0.00    -0.284 N 
ATOM      8  N   UNL     1      18.296   5.743  19.244  0.00  0.00    -0.283 N 
ATOM      9  C   UNL     1      16.182   6.389  20.329  0.00  0.00    +0.164 C 
ATOM     10  C   UNL     1      14.510   8.048  19.765  0.00  0.00    +0.093 C 
ATOM     11  C   UNL     1      14.674   6.566  20.115  0.00  0.00    +0.055 C 
ATOM     12  C   UNL     1      15.601   8.709  20.597  0.00  0.00    +0.131 C 
ATOM     13  C   UNL     1      16.949   5.986  19.086  0.00  0.00    +0.238 C 
ATOM     14  C   UNL     1      17.861   7.987  21.311  0.00  0.00    +0.249 C 
ATOM     15  C   UNL     1      18.879   6.908  21.388  0.00  0.00    +0.059 A 
ATOM     16  C   UNL     1      19.106   5.955  20.381  0.00  0.00    +0.046 A 
ATOM     18  C   UNL     1      19.764   6.981  22.479  0.00  0.00    +0.024 A 
ATOM     19  C   UNL     1      20.252   5.144  20.461  0.00  0.00    +0.024 A 
ATOM     20  C   UNL     1      20.870   6.136  22.565  0.00  0.00    -0.010 A 
ATOM     21  C   UNL     1      21.121   5.225  21.549  0.00  0.00    +0.011 A 
ATOM     29  H   UNL     1      18.742   5.260  18.468  0.00  0.00    +0.155 HD
ENDROOT
BRANCH  20  23
ATOM      1  S   UNL     1      23.138   5.205  23.748  0.00  0.00    -0.097 S 
ATOM     23  C   UNL     1      21.762   6.225  23.695  0.00  0.00    +0.019 A 
ATOM     24  C   UNL     1      21.687   7.044  24.800  0.00  0.00    +0.016 A 
ATOM     25  C   UNL     1      22.770   6.831  25.701  0.00  0.00    +0.008 A 
ATOM     26  C   UNL     1      23.633   5.857  25.250  0.00  0.00    +0.046 A 
ENDBRANCH  20  23
BRANCH  10   7
ATOM      4  O   UNL     1      12.689   7.375  17.614  0.00  0.00    -0.273 OA
ATOM      7  N   UNL     1      14.694   8.295  18.357  0.00  0.00    -0.309 N 
ATOM     17  C   UNL     1      13.760   7.935  17.394  0.00  0.00    +0.239 C 
ATOM     28  H   UNL     1      15.571   8.711  18.055  0.00  0.00    +0.149 HD
BRANCH  17  22
ATOM     22  C   UNL     1      14.213   8.316  16.000  0.00  0.00    +0.255 C 
BRANCH  22   5
ATOM      5  O   UNL     1      13.144   8.870  15.262  0.00  0.00    -0.374 OA
ATOM     27  C   UNL     1      13.094  10.288  15.383  0.00  0.00    +0.194 C 
ENDBRANCH  22   5
ENDBRANCH  17  22
ENDBRANCH  10   7
TORSDOF 4
ENDMDL
MODEL 2
REMARK VINA RESULT:      -7.1      2.359      3.940
REMARK  Name = 9423973
REMARK  5 active torsions:
REMARK  status: ('A' for Active; 'I' for Inactive)
REMARK    1  A    between atoms: O_5  and  C_22
REMARK    2  A    between atoms: O_5  and  C_27
REMARK    3  A    between atoms: N_7  and  C_10
REMARK    4  A    between atoms: C_17  and  C_22
REMARK    5  A    between atoms: C_20  and  C_23
REMARK                            x       y       z     vdW  Elec       q    Type
REMARK                         _______ _______ _______ _____ _____    ______ ____
ROOT
ATOM      2  O   UNL     1      15.005  10.010  21.631  0.00  0.00    -0.273 OA
ATOM      3  O   UNL     1      16.669   5.479  19.391  0.00  0.00    -0.270 OA
ATOM      6  N   UNL     1      15.882   7.638  19.453  0.00  0.00    -0.284 N 
ATOM      8  N   UNL     1      16.874   8.767  21.993  0.00  0.00    -0.283 N 
ATOM      9  C   UNL     1      16.062   9.056  19.687  0.00  0.00    +0.164 C 
ATOM     10  C   UNL     1      13.901   8.666  18.667  0.00  0.00    +0.093 C 
ATOM     11  C   UNL     1      14.993   9.729  18.817  0.00  0.00    +0.055 C 
ATOM     12  C   UNL     1      14.697   7.369  18.647  0.00  0.00    +0.131 C 
ATOM     13  C   UNL     1      15.896   9.289  21.175  0.00  0.00    +0.238 C 
ATOM     14  C   UNL     1      16.792   6.648  19.757  0.00  0.00    +0.249 C 
ATOM     15  C   UNL     1      17.972   7.006  20.586  0.00  0.00    +0.059 A 
ATOM     16  C   UNL     1      17.947   7.913  21.657  0.00  0.00    +0.046 A 
ATOM     18  C   UNL     1      19.131   6.239  20.359  0.00  0.00    +0.024 A 
ATOM     19  C   UNL     1      19.060   7.982  22.514  0.00  0.00    +0.024 A 
ATOM     20  C   UNL     1      20.243   6.355  21.192  0.00  0.00    -0.010 A 
ATOM     21  C   UNL     1      20.203   7.218  22.277  0.00  0.00    +0.011 A 
ATOM     29  H   UNL     1      16.874   9.120  22.948  0.00  0.00    +0.155 HD
ENDROOT
BRANCH  20  23
ATOM      1  S   UNL     1      22.897   6.361  20.588  0.00  0.00    -0.097 S 
ATOM     23  C   UNL     1      21.422   5.563  20.939  0.00  0.00    +0.019 A 
ATOM     24  C   UNL     1      21.564   4.193  20.936  0.00  0.00    +0.016 A 
ATOM     25  C   UNL     1      22.899   3.793  20.641  0.00  0.00    +0.008 A 
ATOM     26  C   UNL     1      23.728   4.873  20.430  0.00  0.00    +0.046 A 
ENDBRANCH  20  23
BRANCH  10   7
ATOM      4  O   UNL     1      11.052   8.147  18.554  0.00  0.00    -0.273 OA
ATOM      7  N   UNL     1      12.963   8.696  19.762  0.00  0.00    -0.309 N 
ATOM     17  C   UNL     1      11.609   8.432  19.611  0.00  0.00    +0.239 C 
ATOM     28  H   UNL     1      13.308   8.971  20.678  0.00  0.00    +0.149 HD
BRANCH  17  22
ATOM     22  C   UNL     1      10.865   8.534  20.927  0.00  0.00    +0.255 C 
BRANCH  22   5
ATOM      5  O   UNL     1      10.313   7.284  21.285  0.00  0.00    -0.374 OA
ATOM     27  C   UNL     1      11.322   6.307  21.522  0.00  0.00    +0.194 C 
ENDBRANCH  22   5
ENDBRANCH  17  22
ENDBRANCH  10   7
TORSDOF 4
ENDMDL
MODEL 3
REMARK VINA RESULT:      -6.2     30.282     33.471
REMARK  Name = 9423973
REMARK  5 active torsions:
REMARK  status: ('A' for Active; 'I' for Inactive)
REMARK    1  A    between atoms: O_5  and  C_22
REMARK    2  A    between atoms: O_5  and  C_27
REMARK    3  A    between atoms: N_7  and  C_10
REMARK    4  A    between atoms: C_17  and  C_22
REMARK    5  A    between atoms: C_20  and  C_23
REMARK                            x       y       z     vdW  Elec       q    Type
REMARK                         _______ _______ _______ _____ _____    ______ ____
ROOT
ATOM      2  O   UNL     1     -15.281   3.691  24.301  0.00  0.00    -0.273 OA
ATOM      3  O   UNL     1     -16.355   6.437  19.872  0.00  0.00    -0.270 OA
ATOM      6  N   UNL     1     -16.521   5.863  22.092  0.00  0.00    -0.284 N 
ATOM      8  N   UNL     1     -13.902   4.707  22.806  0.00  0.00    -0.283 N 
ATOM      9  C   UNL     1     -16.002   5.824  23.443  0.00  0.00    +0.164 C 
ATOM     10  C   UNL     1     -18.304   5.075  23.435  0.00  0.00    +0.093 C 
ATOM     11  C   UNL     1     -17.247   5.724  24.332  0.00  0.00    +0.055 C 
ATOM     12  C   UNL     1     -17.961   5.631  22.059  0.00  0.00    +0.131 C 
ATOM     13  C   UNL     1     -15.071   4.631  23.531  0.00  0.00    +0.238 C 
ATOM     14  C   UNL     1     -15.826   6.263  20.971  0.00  0.00    +0.249 C 
ATOM     15  C   UNL     1     -14.361   6.475  21.088  0.00  0.00    +0.059 A 
ATOM     16  C   UNL     1     -13.502   5.684  21.870  0.00  0.00    +0.046 A 
ATOM     18  C   UNL     1     -13.812   7.433  20.214  0.00  0.00    +0.024 A 
ATOM     19  C   UNL     1     -12.113   5.829  21.707  0.00  0.00    +0.024 A 
ATOM     20  C   UNL     1     -12.431   7.594  20.102  0.00  0.00    -0.010 A 
ATOM     21  C   UNL     1     -11.581   6.783  20.840  0.00  0.00    +0.011 A 
ATOM     29  H   UNL     1     -13.196   4.016  23.050  0.00  0.00    +0.155 HD
ENDROOT
BRANCH  20  23
ATOM      1  S   UNL     1     -12.350   8.548  17.554  0.00  0.00    -0.097 S 
ATOM     23  C   UNL     1     -11.889   8.584  19.204  0.00  0.00    +0.019 A 
ATOM     24  C   UNL     1     -11.014   9.613  19.472  0.00  0.00    +0.016 A 
ATOM     25  C   UNL     1     -10.717  10.381  18.308  0.00  0.00    +0.008 A 
ATOM     26  C   UNL     1     -11.377   9.910  17.195  0.00  0.00    +0.046 A 
ENDBRANCH  20  23
BRANCH  10   7
ATOM      4  O   UNL     1     -19.447   3.290  25.410  0.00  0.00    -0.273 OA
ATOM      7  N   UNL     1     -18.226   3.636  23.460  0.00  0.00    -0.309 N 
ATOM     17  C   UNL     1     -18.809   2.860  24.453  0.00  0.00    +0.239 C 
ATOM     28  H   UNL     1     -17.677   3.175  22.739  0.00  0.00    +0.149 HD
BRANCH  17  22
ATOM     22  C   UNL     1     -18.569   1.382  24.226  0.00  0.00    +0.255 C 
BRANCH  22   5
ATOM      5  O   UNL     1     -17.209   1.060  24.430  0.00  0.00    -0.374 OA
ATOM     27  C   UNL     1     -16.892   0.950  25.814  0.00  0.00    +0.194 C 
ENDBRANCH  22   5
ENDBRANCH  17  22
ENDBRANCH  10   7
TORSDOF 4
ENDMDL
MODEL 4
REMARK VINA RESULT:      -6.2      3.914      8.022
REMARK  Name = 9423973
REMARK  5 active torsions:
REMARK  status: ('A' for Active; 'I' for Inactive)
REMARK    1  A    between atoms: O_5  and  C_22
REMARK    2  A    between atoms: O_5  and  C_27
REMARK    3  A    between atoms: N_7  and  C_10
REMARK    4  A    between atoms: C_17  and  C_22
REMARK    5  A    between atoms: C_20  and  C_23
REMARK                            x       y       z     vdW  Elec       q    Type
REMARK                         _______ _______ _______ _____ _____    ______ ____
ROOT
ATOM      2  O   UNL     1      20.771   9.219  21.970  0.00  0.00    -0.273 OA
ATOM      3  O   UNL     1      17.233   5.987  19.655  0.00  0.00    -0.270 OA
ATOM      6  N   UNL     1      18.980   6.563  21.034  0.00  0.00    -0.284 N 
ATOM      8  N   UNL     1      18.512   9.383  21.766  0.00  0.00    -0.283 N 
ATOM      9  C   UNL     1      19.512   7.181  22.231  0.00  0.00    +0.164 C 
ATOM     10  C   UNL     1      21.258   5.925  21.120  0.00  0.00    +0.093 C 
ATOM     11  C   UNL     1      20.828   6.441  22.496  0.00  0.00    +0.055 C 
ATOM     12  C   UNL     1      19.927   5.622  20.446  0.00  0.00    +0.131 C 
ATOM     13  C   UNL     1      19.672   8.659  21.938  0.00  0.00    +0.238 C 
ATOM     14  C   UNL     1      17.682   6.662  20.583  0.00  0.00    +0.249 C 
ATOM     15  C   UNL     1      16.782   7.647  21.235  0.00  0.00    +0.059 A 
ATOM     16  C   UNL     1      17.183   8.917  21.682  0.00  0.00    +0.046 A 
ATOM     18  C   UNL     1      15.414   7.316  21.235  0.00  0.00    +0.024 A 
ATOM     19  C   UNL     1      16.195   9.847  22.055  0.00  0.00    +0.024 A 
ATOM     20  C   UNL     1      14.452   8.236  21.653  0.00  0.00    -0.010 A 
ATOM     21  C   UNL     1      14.843   9.507  22.052  0.00  0.00    +0.011 A 
ATOM     29  H   UNL     1      18.624  10.394  21.799  0.00  0.00    +0.155 HD
ENDROOT
BRANCH  20  23
ATOM      1  S   UNL     1      11.897   9.041  22.132  0.00  0.00    -0.097 S 
ATOM     23  C   UNL     1      13.056   7.876  21.650  0.00  0.00    +0.019 A 
ATOM     24  C   UNL     1      12.468   6.680  21.299  0.00  0.00    +0.016 A 
ATOM     25  C   UNL     1      11.050   6.721  21.430  0.00  0.00    +0.008 A 
ATOM     26  C   UNL     1      10.607   7.947  21.874  0.00  0.00    +0.046 A 
ENDBRANCH  20  23
BRANCH  10   7
ATOM      4  O   UNL     1      24.023   6.686  21.534  0.00  0.00    -0.273 OA
ATOM      7  N   UNL     1      22.012   6.910  20.385  0.00  0.00    -0.309 N 
ATOM     17  C   UNL     1      23.341   7.209  20.657  0.00  0.00    +0.239 C 
ATOM     28  H   UNL     1      21.530   7.441  19.665  0.00  0.00    +0.149 HD
BRANCH  17  22
ATOM     22  C   UNL     1      23.879   8.278  19.730  0.00  0.00    +0.255 C 
BRANCH  22   5
ATOM      5  O   UNL     1      22.822   8.951  19.079  0.00  0.00    -0.374 OA
ATOM     27  C   UNL     1      23.092  10.342  18.927  0.00  0.00    +0.194 C 
ENDBRANCH  22   5
ENDBRANCH  17  22
ENDBRANCH  10   7
TORSDOF 4
ENDMDL
MODEL 5
REMARK VINA RESULT:      -6.2     28.933     31.727
REMARK  Name = 9423973
REMARK  5 active torsions:
REMARK  status: ('A' for Active; 'I' for Inactive)
REMARK    1  A    between atoms: O_5  and  C_22
REMARK    2  A    between atoms: O_5  and  C_27
REMARK    3  A    between atoms: N_7  and  C_10
REMARK    4  A    between atoms: C_17  and  C_22
REMARK    5  A    between atoms: C_20  and  C_23
REMARK                            x       y       z     vdW  Elec       q    Type
REMARK                         _______ _______ _______ _____ _____    ______ ____
ROOT
ATOM      2  O   UNL     1     -10.922  -9.162  18.700  0.00  0.00    -0.273 OA
ATOM      3  O   UNL     1      -8.321  -9.997  14.134  0.00  0.00    -0.270 OA
ATOM      6  N   UNL     1      -9.541  -8.814  15.682  0.00  0.00    -0.284 N 
ATOM      8  N   UNL     1      -8.841  -9.984  18.300  0.00  0.00    -0.283 N 
ATOM      9  C   UNL     1      -9.664  -8.104  16.939  0.00  0.00    +0.164 C 
ATOM     10  C   UNL     1     -11.682  -7.806  15.635  0.00  0.00    +0.093 C 
ATOM     11  C   UNL     1     -10.837  -7.140  16.724  0.00  0.00    +0.055 C 
ATOM     12  C   UNL     1     -10.632  -8.492  14.771  0.00  0.00    +0.131 C 
ATOM     13  C   UNL     1      -9.895  -9.142  18.019  0.00  0.00    +0.238 C 
ATOM     14  C   UNL     1      -8.449  -9.550  15.274  0.00  0.00    +0.249 C 
ATOM     15  C   UNL     1      -7.381  -9.836  16.266  0.00  0.00    +0.059 A 
ATOM     16  C   UNL     1      -7.610 -10.118  17.623  0.00  0.00    +0.046 A 
ATOM     18  C   UNL     1      -6.085  -9.991  15.739  0.00  0.00    +0.024 A 
ATOM     19  C   UNL     1      -6.547 -10.611  18.401  0.00  0.00    +0.024 A 
ATOM     20  C   UNL     1      -5.033 -10.436  16.538  0.00  0.00    -0.010 A 
ATOM     21  C   UNL     1      -5.267 -10.758  17.868  0.00  0.00    +0.011 A 
ATOM     29  H   UNL     1      -8.928 -10.512  19.165  0.00  0.00    +0.155 HD
ENDROOT
BRANCH  20  23
ATOM      1  S   UNL     1      -3.536 -10.672  14.277  0.00  0.00    -0.097 S 
ATOM     23  C   UNL     1      -3.712 -10.584  15.979  0.00  0.00    +0.019 A 
ATOM     24  C   UNL     1      -2.499 -10.670  16.627  0.00  0.00    +0.016 A 
ATOM     25  C   UNL     1      -1.413 -10.810  15.715  0.00  0.00    +0.008 A 
ATOM     26  C   UNL     1      -1.836 -10.825  14.404  0.00  0.00    +0.046 A 
ENDBRANCH  20  23
BRANCH  10   7
ATOM      4  O   UNL     1     -14.431  -7.310  16.403  0.00  0.00    -0.273 OA
ATOM      7  N   UNL     1     -12.620  -8.754  16.182  0.00  0.00    -0.309 N 
ATOM     17  C   UNL     1     -13.925  -8.423  16.522  0.00  0.00    +0.239 C 
ATOM     28  H   UNL     1     -12.291  -9.698  16.370  0.00  0.00    +0.149 HD
BRANCH  17  22
ATOM     22  C   UNL     1     -14.683  -9.613  17.072  0.00  0.00    +0.255 C 
BRANCH  22   5
ATOM      5  O   UNL     1     -13.939 -10.254  18.086  0.00  0.00    -0.374 OA
ATOM     27  C   UNL     1     -14.396  -9.895  19.387  0.00  0.00    +0.194 C 
ENDBRANCH  22   5
ENDBRANCH  17  22
ENDBRANCH  10   7
TORSDOF 4
ENDMDL
MODEL 6
REMARK VINA RESULT:      -6.2     16.281     20.502
REMARK  Name = 9423973
REMARK  5 active torsions:
REMARK  status: ('A' for Active; 'I' for Inactive)
REMARK    1  A    between atoms: O_5  and  C_22
REMARK    2  A    between atoms: O_5  and  C_27
REMARK    3  A    between atoms: N_7  and  C_10
REMARK    4  A    between atoms: C_17  and  C_22
REMARK    5  A    between atoms: C_20  and  C_23
REMARK                            x       y       z     vdW  Elec       q    Type
REMARK                         _______ _______ _______ _____ _____    ______ ____
ROOT
ATOM      2  O   UNL     1      10.709   7.320  -0.583  0.00  0.00    -0.273 OA
ATOM      3  O   UNL     1      11.291   3.226   2.766  0.00  0.00    -0.270 OA
ATOM      6  N   UNL     1      11.965   4.897   1.338  0.00  0.00    -0.284 N 
ATOM      8  N   UNL     1       9.865   6.965   1.498  0.00  0.00    -0.283 N 
ATOM      9  C   UNL     1      12.185   6.293   1.020  0.00  0.00    +0.164 C 
ATOM     10  C   UNL     1      13.146   4.902  -0.713  0.00  0.00    +0.093 C 
ATOM     11  C   UNL     1      13.282   6.276  -0.051  0.00  0.00    +0.055 C 
ATOM     12  C   UNL     1      12.708   4.016   0.445  0.00  0.00    +0.131 C 
ATOM     13  C   UNL     1      10.860   6.861   0.551  0.00  0.00    +0.238 C 
ATOM     14  C   UNL     1      11.311   4.417   2.452  0.00  0.00    +0.249 C 
ATOM     15  C   UNL     1      10.575   5.382   3.309  0.00  0.00    +0.059 A 
ATOM     16  C   UNL     1       9.852   6.485   2.826  0.00  0.00    +0.046 A 
ATOM     18  C   UNL     1      10.481   5.039   4.671  0.00  0.00    +0.024 A 
ATOM     19  C   UNL     1       9.001   7.176   3.707  0.00  0.00    +0.024 A 
ATOM     20  C   UNL     1       9.668   5.766   5.540  0.00  0.00    -0.010 A 
ATOM     21  C   UNL     1       8.918   6.828   5.054  0.00  0.00    +0.011 A 
ATOM     29  H   UNL     1       9.075   7.548   1.233  0.00  0.00    +0.155 HD
ENDROOT
BRANCH  20  23
ATOM      1  S   UNL     1       9.143   6.593   8.079  0.00  0.00    -0.097 S 
ATOM     23  C   UNL     1       9.589   5.401   6.933  0.00  0.00    +0.019 A 
ATOM     24  C   UNL     1       9.826   4.180   7.526  0.00  0.00    +0.016 A 
ATOM     25  C   UNL     1       9.639   4.225   8.938  0.00  0.00    +0.008 A 
ATOM     26  C   UNL     1       9.267   5.478   9.371  0.00  0.00    +0.046 A 
ENDBRANCH  20  23
BRANCH  10   7
ATOM      4  O   UNL     1      12.928   3.017  -2.903  0.00  0.00    -0.273 OA
ATOM      7  N   UNL     1      12.172   4.907  -1.775  0.00  0.00    -0.309 N 
ATOM     17  C   UNL     1      12.145   3.957  -2.788  0.00  0.00    +0.239 C 
ATOM     28  H   UNL     1      11.503   5.672  -1.806  0.00  0.00    +0.149 HD
BRANCH  17  22
ATOM     22  C   UNL     1      11.016   4.207  -3.765  0.00  0.00    +0.255 C 
BRANCH  22   5
ATOM      5  O   UNL     1      10.675   3.019  -4.448  0.00  0.00    -0.374 OA
ATOM     27  C   UNL     1       9.421   2.499  -4.017  0.00  0.00    +0.194 C 
ENDBRANCH  22   5
ENDBRANCH  17  22
ENDBRANCH  10   7
TORSDOF 4
ENDMDL
MODEL 7
REMARK VINA RESULT:      -6.1      4.124      8.457
REMARK  Name = 9423973
REMARK  5 active torsions:
REMARK  status: ('A' for Active; 'I' for Inactive)
REMARK    1  A    between atoms: O_5  and  C_22
REMARK    2  A    between atoms: O_5  and  C_27
REMARK    3  A    between atoms: N_7  and  C_10
REMARK    4  A    between atoms: C_17  and  C_22
REMARK    5  A    between atoms: C_20  and  C_23
REMARK                            x       y       z     vdW  Elec       q    Type
REMARK                         _______ _______ _______ _____ _____    ______ ____
ROOT
ATOM      2  O   UNL     1      23.181   7.314  22.118  0.00  0.00    -0.273 OA
ATOM      3  O   UNL     1      19.234   4.659  19.733  0.00  0.00    -0.270 OA
ATOM      6  N   UNL     1      20.941   5.004  21.234  0.00  0.00    -0.284 N 
ATOM      8  N   UNL     1      21.039   7.922  21.662  0.00  0.00    -0.283 N 
ATOM      9  C   UNL     1      21.491   5.624  22.422  0.00  0.00    +0.164 C 
ATOM     10  C   UNL     1      23.010   3.919  21.617  0.00  0.00    +0.093 C 
ATOM     11  C   UNL     1      22.587   4.659  22.889  0.00  0.00    +0.055 C 
ATOM     12  C   UNL     1      21.706   3.828  20.835  0.00  0.00    +0.131 C 
ATOM     13  C   UNL     1      21.994   6.996  22.019  0.00  0.00    +0.238 C 
ATOM     14  C   UNL     1      19.739   5.322  20.640  0.00  0.00    +0.249 C 
ATOM     15  C   UNL     1      19.023   6.538  21.105  0.00  0.00    +0.059 A 
ATOM     16  C   UNL     1      19.652   7.738  21.478  0.00  0.00    +0.046 A 
ATOM     18  C   UNL     1      17.621   6.502  20.988  0.00  0.00    +0.024 A 
ATOM     19  C   UNL     1      18.863   8.888  21.661  0.00  0.00    +0.024 A 
ATOM     20  C   UNL     1      16.851   7.641  21.220  0.00  0.00    -0.010 A 
ATOM     21  C   UNL     1      17.474   8.838  21.545  0.00  0.00    +0.011 A 
ATOM     29  H   UNL     1      21.365   8.885  21.617  0.00  0.00    +0.155 HD
ENDROOT
BRANCH  20  23
ATOM      1  S   UNL     1      14.460   8.677  22.006  0.00  0.00    -0.097 S 
ATOM     23  C   UNL     1      15.415   7.582  21.099  0.00  0.00    +0.019 A 
ATOM     24  C   UNL     1      14.642   6.741  20.328  0.00  0.00    +0.016 A 
ATOM     25  C   UNL     1      13.250   7.000  20.485  0.00  0.00    +0.008 A 
ATOM     26  C   UNL     1      13.010   8.028  21.370  0.00  0.00    +0.046 A 
ENDBRANCH  20  23
BRANCH  10   7
ATOM      4  O   UNL     1      24.834   2.852  19.635  0.00  0.00    -0.273 OA
ATOM      7  N   UNL     1      24.020   4.639  20.883  0.00  0.00    -0.309 N 
ATOM     17  C   UNL     1      24.852   4.040  19.947  0.00  0.00    +0.239 C 
ATOM     28  H   UNL     1      24.156   5.623  21.098  0.00  0.00    +0.149 HD
BRANCH  17  22
ATOM     22  C   UNL     1      25.815   5.033  19.331  0.00  0.00    +0.255 C 
BRANCH  22   5
ATOM      5  O   UNL     1      25.523   6.345  19.764  0.00  0.00    -0.374 OA
ATOM     27  C   UNL     1      26.224   7.324  19.003  0.00  0.00    +0.194 C 
ENDBRANCH  22   5
ENDBRANCH  17  22
ENDBRANCH  10   7
TORSDOF 4
ENDMDL
MODEL 8
REMARK VINA RESULT:      -6.1     29.085     32.203
REMARK  Name = 9423973
REMARK  5 active torsions:
REMARK  status: ('A' for Active; 'I' for Inactive)
REMARK    1  A    between atoms: O_5  and  C_22
REMARK    2  A    between atoms: O_5  and  C_27
REMARK    3  A    between atoms: N_7  and  C_10
REMARK    4  A    between atoms: C_17  and  C_22
REMARK    5  A    between atoms: C_20  and  C_23
REMARK                            x       y       z     vdW  Elec       q    Type
REMARK                         _______ _______ _______ _____ _____    ______ ____
ROOT
ATOM      2  O   UNL     1      -5.592  -9.210  15.933  0.00  0.00    -0.273 OA
ATOM      3  O   UNL     1      -8.849 -12.891  17.972  0.00  0.00    -0.270 OA
ATOM      6  N   UNL     1      -6.966 -11.578  17.841  0.00  0.00    -0.284 N 
ATOM      8  N   UNL     1      -7.810  -9.129  16.425  0.00  0.00    -0.283 N 
ATOM      9  C   UNL     1      -6.287 -10.304  17.964  0.00  0.00    +0.164 C 
ATOM     10  C   UNL     1      -4.661 -12.063  17.608  0.00  0.00    +0.093 C 
ATOM     11  C   UNL     1      -4.822 -10.672  18.228  0.00  0.00    +0.055 C 
ATOM     12  C   UNL     1      -6.027 -12.693  17.844  0.00  0.00    +0.131 C 
ATOM     13  C   UNL     1      -6.520  -9.547  16.671  0.00  0.00    +0.238 C 
ATOM     14  C   UNL     1      -8.328 -11.776  17.915  0.00  0.00    +0.249 C 
ATOM     15  C   UNL     1      -9.217 -10.586  17.906  0.00  0.00    +0.059 A 
ATOM     16  C   UNL     1      -8.989  -9.429  17.140  0.00  0.00    +0.046 A 
ATOM     18  C   UNL     1     -10.439 -10.731  18.588  0.00  0.00    +0.024 A 
ATOM     19  C   UNL     1     -10.019  -8.479  17.027  0.00  0.00    +0.024 A 
ATOM     20  C   UNL     1     -11.431  -9.755  18.501  0.00  0.00    -0.010 A 
ATOM     21  C   UNL     1     -11.225  -8.634  17.710  0.00  0.00    +0.011 A 
ATOM     29  H   UNL     1      -7.907  -8.438  15.685  0.00  0.00    +0.155 HD
ENDROOT
BRANCH  20  23
ATOM      1  S   UNL     1     -13.992 -10.672  18.415  0.00  0.00    -0.097 S 
ATOM     23  C   UNL     1     -12.674  -9.922  19.212  0.00  0.00    +0.019 A 
ATOM     24  C   UNL     1     -12.993  -9.558  20.502  0.00  0.00    +0.016 A 
ATOM     25  C   UNL     1     -14.336  -9.897  20.839  0.00  0.00    +0.008 A 
ATOM     26  C   UNL     1     -14.992 -10.509  19.794  0.00  0.00    +0.046 A 
ENDBRANCH  20  23
BRANCH  10   7
ATOM      4  O   UNL     1      -2.229 -11.046  16.406  0.00  0.00    -0.273 OA
ATOM      7  N   UNL     1      -4.344 -11.995  16.203  0.00  0.00    -0.309 N 
ATOM     17  C   UNL     1      -3.145 -11.489  15.718  0.00  0.00    +0.239 C 
ATOM     28  H   UNL     1      -5.054 -12.290  15.538  0.00  0.00    +0.149 HD
BRANCH  17  22
ATOM     22  C   UNL     1      -3.082 -11.542  14.206  0.00  0.00    +0.255 C 
BRANCH  22   5
ATOM      5  O   UNL     1      -2.634 -10.310  13.683  0.00  0.00    -0.374 OA
ATOM     27  C   UNL     1      -1.995 -10.471  12.419  0.00  0.00    +0.194 C 
ENDBRANCH  22   5
ENDBRANCH  17  22
ENDBRANCH  10   7
TORSDOF 4
ENDMDL
MODEL 9
REMARK VINA RESULT:      -5.9      4.207      8.710
REMARK  Name = 9423973
REMARK  5 active torsions:
REMARK  status: ('A' for Active; 'I' for Inactive)
REMARK    1  A    between atoms: O_5  and  C_22
REMARK    2  A    between atoms: O_5  and  C_27
REMARK    3  A    between atoms: N_7  and  C_10
REMARK    4  A    between atoms: C_17  and  C_22
REMARK    5  A    between atoms: C_20  and  C_23
REMARK                            x       y       z     vdW  Elec       q    Type
REMARK                         _______ _______ _______ _____ _____    ______ ____
ROOT
ATOM      2  O   UNL     1      22.423   4.420  20.089  0.00  0.00    -0.273 OA
ATOM      3  O   UNL     1      19.543   7.740  23.089  0.00  0.00    -0.270 OA
ATOM      6  N   UNL     1      21.304   7.079  21.767  0.00  0.00    -0.284 N 
ATOM      8  N   UNL     1      20.220   4.976  20.002  0.00  0.00    -0.283 N 
ATOM      9  C   UNL     1      21.877   6.734  20.482  0.00  0.00    +0.164 C 
ATOM     10  C   UNL     1      23.634   6.897  22.140  0.00  0.00    +0.093 C 
ATOM     11  C   UNL     1      23.374   7.026  20.636  0.00  0.00    +0.055 C 
ATOM     12  C   UNL     1      22.333   7.402  22.748  0.00  0.00    +0.131 C 
ATOM     13  C   UNL     1      21.547   5.277  20.221  0.00  0.00    +0.238 C 
ATOM     14  C   UNL     1      19.966   7.287  22.024  0.00  0.00    +0.249 C 
ATOM     15  C   UNL     1      18.981   6.929  20.971  0.00  0.00    +0.059 A 
ATOM     16  C   UNL     1      19.090   5.812  20.126  0.00  0.00    +0.046 A 
ATOM     18  C   UNL     1      17.794   7.686  20.964  0.00  0.00    +0.024 A 
ATOM     19  C   UNL     1      17.981   5.444  19.343  0.00  0.00    +0.024 A 
ATOM     20  C   UNL     1      16.722   7.333  20.145  0.00  0.00    -0.010 A 
ATOM     21  C   UNL     1      16.811   6.203  19.344  0.00  0.00    +0.011 A 
ATOM     29  H   UNL     1      20.045   4.054  19.608  0.00  0.00    +0.155 HD
ENDROOT
BRANCH  20  23
ATOM      1  S   UNL     1      14.090   7.459  20.827  0.00  0.00    -0.097 S 
ATOM     23  C   UNL     1      15.517   8.124  20.150  0.00  0.00    +0.019 A 
ATOM     24  C   UNL     1      15.314   9.401  19.674  0.00  0.00    +0.016 A 
ATOM     25  C   UNL     1      13.971   9.838  19.866  0.00  0.00    +0.008 A 
ATOM     26  C   UNL     1      13.198   8.878  20.482  0.00  0.00    +0.046 A 
ENDBRANCH  20  23
BRANCH  10   7
ATOM      4  O   UNL     1      26.119   5.444  21.811  0.00  0.00    -0.273 OA
ATOM      7  N   UNL     1      23.907   5.535  22.526  0.00  0.00    -0.309 N 
ATOM     17  C   UNL     1      25.136   4.920  22.327  0.00  0.00    +0.239 C 
ATOM     28  H   UNL     1      23.145   4.989  22.920  0.00  0.00    +0.149 HD
BRANCH  17  22
ATOM     22  C   UNL     1      25.138   3.491  22.830  0.00  0.00    +0.255 C 
BRANCH  22   5
ATOM      5  O   UNL     1      25.826   2.648  21.931  0.00  0.00    -0.374 OA
ATOM     27  C   UNL     1      24.956   2.102  20.943  0.00  0.00    +0.194 C 
ENDBRANCH  22   5
ENDBRANCH  17  22
ENDBRANCH  10   7
TORSDOF 4
ENDMDL
MODEL 10
REMARK VINA RESULT:      -5.8     28.920     30.577
REMARK  Name = 9423973
REMARK  5 active torsions:
REMARK  status: ('A' for Active; 'I' for Inactive)
REMARK    1  A    between atoms: O_5  and  C_22
REMARK    2  A    between atoms: O_5  and  C_27
REMARK    3  A    between atoms: N_7  and  C_10
REMARK    4  A    between atoms: C_17  and  C_22
REMARK    5  A    between atoms: C_20  and  C_23
REMARK                            x       y       z     vdW  Elec       q    Type
REMARK                         _______ _______ _______ _____ _____    ______ ____
ROOT
ATOM      2  O   UNL     1     -12.507  10.953  16.439  0.00  0.00    -0.273 OA
ATOM      3  O   UNL     1     -12.059   7.761  20.673  0.00  0.00    -0.270 OA
ATOM      6  N   UNL     1     -11.364   8.870  18.783  0.00  0.00    -0.284 N 
ATOM      8  N   UNL     1     -13.051  11.286  18.621  0.00  0.00    -0.283 N 
ATOM      9  C   UNL     1     -10.976  10.076  18.080  0.00  0.00    +0.164 C 
ATOM     10  C   UNL     1     -10.541   8.144  16.686  0.00  0.00    +0.093 C 
ATOM     11  C   UNL     1     -10.082   9.584  16.935  0.00  0.00    +0.055 C 
ATOM     12  C   UNL     1     -10.925   7.670  18.081  0.00  0.00    +0.131 C 
ATOM     13  C   UNL     1     -12.250  10.762  17.630  0.00  0.00    +0.238 C 
ATOM     14  C   UNL     1     -11.899   8.813  20.052  0.00  0.00    +0.249 C 
ATOM     15  C   UNL     1     -12.323  10.082  20.697  0.00  0.00    +0.059 A 
ATOM     16  C   UNL     1     -12.928  11.155  20.021  0.00  0.00    +0.046 A 
ATOM     18  C   UNL     1     -12.251  10.106  22.102  0.00  0.00    +0.024 A 
ATOM     19  C   UNL     1     -13.504  12.192  20.775  0.00  0.00    +0.024 A 
ATOM     20  C   UNL     1     -12.787  11.167  22.831  0.00  0.00    -0.010 A 
ATOM     21  C   UNL     1     -13.425  12.205  22.167  0.00  0.00    +0.011 A 
ATOM     29  H   UNL     1     -13.770  11.931  18.300  0.00  0.00    +0.155 HD
ENDROOT
BRANCH  20  23
ATOM      1  S   UNL     1     -14.138  11.314  25.189  0.00  0.00    -0.097 S 
ATOM     23  C   UNL     1     -12.698  11.174  24.271  0.00  0.00    +0.019 A 
ATOM     24  C   UNL     1     -11.583  11.078  25.073  0.00  0.00    +0.016 A 
ATOM     25  C   UNL     1     -11.914  11.122  26.459  0.00  0.00    +0.008 A 
ATOM     26  C   UNL     1     -13.270  11.249  26.663  0.00  0.00    +0.046 A 
ENDBRANCH  20  23
BRANCH  10   7
ATOM      4  O   UNL     1     -10.451   8.069  13.791  0.00  0.00    -0.273 OA
ATOM      7  N   UNL     1     -11.660   8.083  15.778  0.00  0.00    -0.309 N 
ATOM     17  C   UNL     1     -11.519   8.051  14.397  0.00  0.00    +0.239 C 
ATOM     28  H   UNL     1     -12.597   8.113  16.172  0.00  0.00    +0.149 HD
BRANCH  17  22
ATOM     22  C   UNL     1     -12.858   7.986  13.695  0.00  0.00    +0.255 C 
BRANCH  22   5
ATOM      5  O   UNL     1     -13.171   6.656  13.339  0.00  0.00    -0.374 OA
ATOM     27  C   UNL     1     -14.411   6.571  12.642  0.00  0.00    +0.194 C 
ENDBRANCH  22   5
ENDBRANCH  17  22
ENDBRANCH  10   7
TORSDOF 4
ENDMDL
