MODEL 1
REMARK VINA RESULT:      -7.5      0.000      0.000
REMARK  Name = 75536769
REMARK  7 active torsions:
REMARK  status: ('A' for Active; 'I' for Inactive)
REMARK    1  A    between atoms: O_2  and  C_9
REMARK    2  A    between atoms: N_4  and  C_8
REMARK    3  A    between atoms: N_4  and  C_13
REMARK    4  A    between atoms: N_5  and  C_12
REMARK    5  A    between atoms: N_6  and  C_18
REMARK    6  A    between atoms: C_10  and  C_12
REMARK    7  A    between atoms: C_13  and  C_14
REMARK                            x       y       z     vdW  Elec       q    Type
REMARK                         _______ _______ _______ _____ _____    ______ ____
ROOT
ATOM      1  O   UNL     1      10.919   8.697  20.088  0.00  0.00    -0.371 OA
ATOM      8  C   UNL     1      12.368   6.883  19.586  0.00  0.00    +0.111 C 
ATOM      9  C   UNL     1      12.066   6.877  21.073  0.00  0.00    +0.164 C 
ATOM     10  C   UNL     1      10.785   7.700  21.114  0.00  0.00    +0.165 C 
ATOM     11  C   UNL     1      11.986   8.305  19.206  0.00  0.00    +0.181 C 
ENDROOT
BRANCH   9   2
ATOM      2  O   UNL     1      11.871   5.573  21.585  0.00  0.00    -0.388 OA
ATOM     27  H   UNL     1      12.393   4.953  21.050  0.00  0.00    +0.210 HD
ENDBRANCH   9   2
BRANCH   8   4
ATOM      4  N   UNL     1      13.752   6.565  19.271  0.00  0.00    -0.303 NA
ATOM     26  H   UNL     1      13.920   6.751  18.282  0.00  0.00    +0.123 HD
BRANCH   4  13
ATOM     13  C   UNL     1      14.670   7.374  20.065  0.00  0.00    +0.137 C 
BRANCH  13  14
ATOM      7  N   UNL     1      16.397   6.035  18.994  0.00  0.00    -0.259 NA
ATOM     14  C   UNL     1      16.067   6.812  20.050  0.00  0.00    +0.055 A 
ATOM     16  C   UNL     1      16.929   7.111  21.092  0.00  0.00    +0.024 A 
ATOM     17  C   UNL     1      18.213   6.579  21.049  0.00  0.00    +0.003 A 
ATOM     19  C   UNL     1      17.653   5.536  18.986  0.00  0.00    +0.111 A 
ATOM     20  C   UNL     1      18.589   5.775  19.979  0.00  0.00    +0.020 A 
ENDBRANCH  13  14
ENDBRANCH   4  13
ENDBRANCH   8   4
BRANCH  10  12
ATOM     12  C   UNL     1      10.545   8.371  22.455  0.00  0.00    +0.140 C 
BRANCH  12   5
ATOM      3  O   UNL     1      11.318  10.358  24.366  0.00  0.00    -0.253 OA
ATOM      5  N   UNL     1      10.419   9.793  22.312  0.00  0.00    -0.297 N 
ATOM      6  N   UNL     1      10.576  12.020  22.882  0.00  0.00    -0.269 N 
ATOM     15  C   UNL     1      10.822  10.708  23.298  0.00  0.00    +0.304 C 
ATOM     28  H   UNL     1      10.003  10.154  21.459  0.00  0.00    +0.150 HD
ATOM     29  H   UNL     1      10.157  12.135  21.964  0.00  0.00    +0.156 HD
BRANCH   6  18
ATOM     18  C   UNL     1      10.841  13.217  23.587  0.00  0.00    +0.035 A 
ATOM     21  C   UNL     1      10.343  13.390  24.879  0.00  0.00    +0.023 A 
ATOM     22  C   UNL     1      11.598  14.225  22.991  0.00  0.00    +0.023 A 
ATOM     23  C   UNL     1      10.603  14.570  25.575  0.00  0.00    +0.002 A 
ATOM     24  C   UNL     1      11.859  15.406  23.688  0.00  0.00    +0.002 A 
ATOM     25  C   UNL     1      11.361  15.578  24.979  0.00  0.00    +0.000 A 
ENDBRANCH   6  18
ENDBRANCH  12   5
ENDBRANCH  10  12
TORSDOF 7
ENDMDL
MODEL 2
REMARK VINA RESULT:      -7.2      1.725      1.965
REMARK  Name = 75536769
REMARK  7 active torsions:
REMARK  status: ('A' for Active; 'I' for Inactive)
REMARK    1  A    between atoms: O_2  and  C_9
REMARK    2  A    between atoms: N_4  and  C_8
REMARK    3  A    between atoms: N_4  and  C_13
REMARK    4  A    between atoms: N_5  and  C_12
REMARK    5  A    between atoms: N_6  and  C_18
REMARK    6  A    between atoms: C_10  and  C_12
REMARK    7  A    between atoms: C_13  and  C_14
REMARK                            x       y       z     vdW  Elec       q    Type
REMARK                         _______ _______ _______ _____ _____    ______ ____
ROOT
ATOM      1  O   UNL     1      10.591   8.396  19.793  0.00  0.00    -0.371 OA
ATOM      8  C   UNL     1      12.769   7.621  19.247  0.00  0.00    +0.111 C 
ATOM      9  C   UNL     1      12.601   7.599  20.754  0.00  0.00    +0.164 C 
ATOM     10  C   UNL     1      11.083   7.593  20.879  0.00  0.00    +0.165 C 
ATOM     11  C   UNL     1      11.649   8.561  18.832  0.00  0.00    +0.181 C 
ENDROOT
BRANCH   9   2
ATOM      2  O   UNL     1      13.183   6.457  21.352  0.00  0.00    -0.388 OA
ATOM     27  H   UNL     1      14.106   6.663  21.572  0.00  0.00    +0.210 HD
ENDBRANCH   9   2
BRANCH   8   4
ATOM      4  N   UNL     1      14.080   8.076  18.813  0.00  0.00    -0.303 NA
ATOM     26  H   UNL     1      14.513   8.613  19.565  0.00  0.00    +0.123 HD
BRANCH   4  13
ATOM     13  C   UNL     1      14.945   6.950  18.480  0.00  0.00    +0.137 C 
BRANCH  13  14
ATOM      7  N   UNL     1      16.150   7.710  20.452  0.00  0.00    -0.259 NA
ATOM     14  C   UNL     1      16.143   6.876  19.388  0.00  0.00    +0.055 A 
ATOM     16  C   UNL     1      17.159   5.979  19.098  0.00  0.00    +0.024 A 
ATOM     17  C   UNL     1      18.252   5.934  19.956  0.00  0.00    +0.003 A 
ATOM     19  C   UNL     1      17.229   7.637  21.263  0.00  0.00    +0.111 A 
ATOM     20  C   UNL     1      18.296   6.776  21.062  0.00  0.00    +0.020 A 
ENDBRANCH  13  14
ENDBRANCH   4  13
ENDBRANCH   8   4
BRANCH  10  12
ATOM     12  C   UNL     1      10.587   8.156  22.199  0.00  0.00    +0.140 C 
BRANCH  12   5
ATOM      3  O   UNL     1      10.850  11.002  22.375  0.00  0.00    -0.253 OA
ATOM      5  N   UNL     1      11.621   8.882  22.879  0.00  0.00    -0.297 N 
ATOM      6  N   UNL     1      12.797  10.706  23.652  0.00  0.00    -0.269 N 
ATOM     15  C   UNL     1      11.683  10.284  22.921  0.00  0.00    +0.304 C 
ATOM     28  H   UNL     1      12.353   8.351  23.342  0.00  0.00    +0.150 HD
ATOM     29  H   UNL     1      13.390   9.977  24.040  0.00  0.00    +0.156 HD
BRANCH   6  18
ATOM     18  C   UNL     1      13.206  12.033  23.922  0.00  0.00    +0.035 A 
ATOM     21  C   UNL     1      12.632  12.738  24.980  0.00  0.00    +0.023 A 
ATOM     22  C   UNL     1      14.182  12.637  23.129  0.00  0.00    +0.023 A 
ATOM     23  C   UNL     1      13.035  14.046  25.247  0.00  0.00    +0.002 A 
ATOM     24  C   UNL     1      14.584  13.946  23.396  0.00  0.00    +0.002 A 
ATOM     25  C   UNL     1      14.011  14.651  24.454  0.00  0.00    +0.000 A 
ENDBRANCH   6  18
ENDBRANCH  12   5
ENDBRANCH  10  12
TORSDOF 7
ENDMDL
MODEL 3
REMARK VINA RESULT:      -7.1      4.425     10.916
REMARK  Name = 75536769
REMARK  7 active torsions:
REMARK  status: ('A' for Active; 'I' for Inactive)
REMARK    1  A    between atoms: O_2  and  C_9
REMARK    2  A    between atoms: N_4  and  C_8
REMARK    3  A    between atoms: N_4  and  C_13
REMARK    4  A    between atoms: N_5  and  C_12
REMARK    5  A    between atoms: N_6  and  C_18
REMARK    6  A    between atoms: C_10  and  C_12
REMARK    7  A    between atoms: C_13  and  C_14
REMARK                            x       y       z     vdW  Elec       q    Type
REMARK                         _______ _______ _______ _____ _____    ______ ____
ROOT
ATOM      1  O   UNL     1      17.152   7.051  21.487  0.00  0.00    -0.371 OA
ATOM      8  C   UNL     1      15.467   6.745  19.841  0.00  0.00    +0.111 C 
ATOM      9  C   UNL     1      16.819   6.442  19.225  0.00  0.00    +0.164 C 
ATOM     10  C   UNL     1      17.652   6.168  20.470  0.00  0.00    +0.165 C 
ATOM     11  C   UNL     1      15.867   7.546  21.070  0.00  0.00    +0.181 C 
ENDROOT
BRANCH   9   2
ATOM      2  O   UNL     1      16.786   5.326  18.357  0.00  0.00    -0.388 OA
ATOM     27  H   UNL     1      17.689   4.979  18.269  0.00  0.00    +0.210 HD
ENDBRANCH   9   2
BRANCH   8   4
ATOM      4  N   UNL     1      14.573   7.475  18.956  0.00  0.00    -0.303 NA
ATOM     26  H   UNL     1      14.967   7.481  18.014  0.00  0.00    +0.123 HD
BRANCH   4  13
ATOM     13  C   UNL     1      13.254   6.855  18.911  0.00  0.00    +0.137 C 
BRANCH  13  14
ATOM      7  N   UNL     1      11.669   6.516  20.725  0.00  0.00    -0.259 NA
ATOM     14  C   UNL     1      12.336   7.413  19.965  0.00  0.00    +0.055 A 
ATOM     16  C   UNL     1      12.220   8.787  20.104  0.00  0.00    +0.024 A 
ATOM     17  C   UNL     1      11.365   9.271  21.087  0.00  0.00    +0.003 A 
ATOM     19  C   UNL     1      10.847   7.024  21.670  0.00  0.00    +0.111 A 
ATOM     20  C   UNL     1      10.661   8.380  21.890  0.00  0.00    +0.020 A 
ENDBRANCH  13  14
ENDBRANCH   4  13
ENDBRANCH   8   4
BRANCH  10  12
ATOM     12  C   UNL     1      19.137   6.410  20.264  0.00  0.00    +0.140 C 
BRANCH  12   5
ATOM      3  O   UNL     1      21.320   5.621  21.942  0.00  0.00    -0.253 OA
ATOM      5  N   UNL     1      19.864   5.175  20.201  0.00  0.00    -0.297 N 
ATOM      6  N   UNL     1      21.442   3.593  20.765  0.00  0.00    -0.269 N 
ATOM     15  C   UNL     1      20.928   4.859  21.062  0.00  0.00    +0.304 C 
ATOM     28  H   UNL     1      19.604   4.502  19.487  0.00  0.00    +0.150 HD
ATOM     29  H   UNL     1      21.001   3.091  20.000  0.00  0.00    +0.156 HD
BRANCH   6  18
ATOM     18  C   UNL     1      22.510   2.920  21.402  0.00  0.00    +0.035 A 
ATOM     21  C   UNL     1      23.531   2.353  20.638  0.00  0.00    +0.023 A 
ATOM     22  C   UNL     1      22.543   2.822  22.793  0.00  0.00    +0.023 A 
ATOM     23  C   UNL     1      24.585   1.689  21.265  0.00  0.00    +0.002 A 
ATOM     24  C   UNL     1      23.598   2.158  23.420  0.00  0.00    +0.002 A 
ATOM     25  C   UNL     1      24.618   1.591  22.656  0.00  0.00    +0.000 A 
ENDBRANCH   6  18
ENDBRANCH  12   5
ENDBRANCH  10  12
TORSDOF 7
ENDMDL
MODEL 4
REMARK VINA RESULT:      -7.1     26.604     29.193
REMARK  Name = 75536769
REMARK  7 active torsions:
REMARK  status: ('A' for Active; 'I' for Inactive)
REMARK    1  A    between atoms: O_2  and  C_9
REMARK    2  A    between atoms: N_4  and  C_8
REMARK    3  A    between atoms: N_4  and  C_13
REMARK    4  A    between atoms: N_5  and  C_12
REMARK    5  A    between atoms: N_6  and  C_18
REMARK    6  A    between atoms: C_10  and  C_12
REMARK    7  A    between atoms: C_13  and  C_14
REMARK                            x       y       z     vdW  Elec       q    Type
REMARK                         _______ _______ _______ _____ _____    ______ ____
ROOT
ATOM      1  O   UNL     1     -17.635   5.462  23.679  0.00  0.00    -0.371 OA
ATOM      8  C   UNL     1     -15.895   4.256  22.601  0.00  0.00    +0.111 C 
ATOM      9  C   UNL     1     -15.751   4.096  24.103  0.00  0.00    +0.164 C 
ATOM     10  C   UNL     1     -17.159   4.441  24.570  0.00  0.00    +0.165 C 
ATOM     11  C   UNL     1     -16.791   5.481  22.514  0.00  0.00    +0.181 C 
ENDROOT
BRANCH   9   2
ATOM      2  O   UNL     1     -15.378   2.784  24.478  0.00  0.00    -0.388 OA
ATOM     27  H   UNL     1     -16.140   2.197  24.338  0.00  0.00    +0.210 HD
ENDBRANCH   9   2
BRANCH   8   4
ATOM      4  N   UNL     1     -14.628   4.431  21.909  0.00  0.00    -0.303 NA
ATOM     26  H   UNL     1     -14.805   4.536  20.910  0.00  0.00    +0.123 HD
BRANCH   4  13
ATOM     13  C   UNL     1     -13.926   5.616  22.390  0.00  0.00    +0.137 C 
BRANCH  13  14
ATOM      7  N   UNL     1     -14.254   7.063  20.462  0.00  0.00    -0.259 NA
ATOM     14  C   UNL     1     -13.362   6.431  21.257  0.00  0.00    +0.055 A 
ATOM     16  C   UNL     1     -11.988   6.495  21.086  0.00  0.00    +0.024 A 
ATOM     17  C   UNL     1     -11.498   7.257  20.032  0.00  0.00    +0.003 A 
ATOM     19  C   UNL     1     -13.740   7.794  19.447  0.00  0.00    +0.111 A 
ATOM     20  C   UNL     1     -12.384   7.923  19.192  0.00  0.00    +0.020 A 
ENDBRANCH  13  14
ENDBRANCH   4  13
ENDBRANCH   8   4
BRANCH  10  12
ATOM     12  C   UNL     1     -17.210   4.944  26.002  0.00  0.00    +0.140 C 
BRANCH  12   5
ATOM      3  O   UNL     1     -17.533   3.468  28.435  0.00  0.00    -0.253 OA
ATOM      5  N   UNL     1     -16.167   4.362  26.797  0.00  0.00    -0.297 N 
ATOM      6  N   UNL     1     -15.203   3.203  28.539  0.00  0.00    -0.269 N 
ATOM     15  C   UNL     1     -16.405   3.650  27.983  0.00  0.00    +0.304 C 
ATOM     28  H   UNL     1     -15.206   4.485  26.491  0.00  0.00    +0.150 HD
ATOM     29  H   UNL     1     -14.352   3.441  28.037  0.00  0.00    +0.156 HD
BRANCH   6  18
ATOM     18  C   UNL     1     -15.021   2.454  29.725  0.00  0.00    +0.035 A 
ATOM     21  C   UNL     1     -15.274   1.083  29.730  0.00  0.00    +0.023 A 
ATOM     22  C   UNL     1     -14.589   3.088  30.891  0.00  0.00    +0.023 A 
ATOM     23  C   UNL     1     -15.095   0.343  30.899  0.00  0.00    +0.002 A 
ATOM     24  C   UNL     1     -14.410   2.348  32.060  0.00  0.00    +0.002 A 
ATOM     25  C   UNL     1     -14.663   0.977  32.065  0.00  0.00    +0.000 A 
ENDBRANCH   6  18
ENDBRANCH  12   5
ENDBRANCH  10  12
TORSDOF 7
ENDMDL
MODEL 5
REMARK VINA RESULT:      -7.1      1.871      2.383
REMARK  Name = 75536769
REMARK  7 active torsions:
REMARK  status: ('A' for Active; 'I' for Inactive)
REMARK    1  A    between atoms: O_2  and  C_9
REMARK    2  A    between atoms: N_4  and  C_8
REMARK    3  A    between atoms: N_4  and  C_13
REMARK    4  A    between atoms: N_5  and  C_12
REMARK    5  A    between atoms: N_6  and  C_18
REMARK    6  A    between atoms: C_10  and  C_12
REMARK    7  A    between atoms: C_13  and  C_14
REMARK                            x       y       z     vdW  Elec       q    Type
REMARK                         _______ _______ _______ _____ _____    ______ ____
ROOT
ATOM      1  O   UNL     1      13.132   8.255  18.897  0.00  0.00    -0.371 OA
ATOM      8  C   UNL     1      14.217   6.646  20.267  0.00  0.00    +0.111 C 
ATOM      9  C   UNL     1      12.914   7.059  20.926  0.00  0.00    +0.164 C 
ATOM     10  C   UNL     1      12.151   7.625  19.736  0.00  0.00    +0.165 C 
ATOM     11  C   UNL     1      14.436   7.790  19.289  0.00  0.00    +0.181 C 
ENDROOT
BRANCH   9   2
ATOM      2  O   UNL     1      12.234   5.969  21.519  0.00  0.00    -0.388 OA
ATOM     27  H   UNL     1      11.519   5.693  20.921  0.00  0.00    +0.210 HD
ENDBRANCH   9   2
BRANCH   8   4
ATOM      4  N   UNL     1      15.318   6.484  21.203  0.00  0.00    -0.303 NA
ATOM     26  H   UNL     1      15.960   5.777  20.843  0.00  0.00    +0.123 HD
BRANCH   4  13
ATOM     13  C   UNL     1      16.047   7.734  21.380  0.00  0.00    +0.137 C 
BRANCH  13  14
ATOM      7  N   UNL     1      18.317   8.488  21.823  0.00  0.00    -0.259 NA
ATOM     14  C   UNL     1      17.535   7.538  21.265  0.00  0.00    +0.055 A 
ATOM     16  C   UNL     1      18.021   6.419  20.608  0.00  0.00    +0.024 A 
ATOM     17  C   UNL     1      19.400   6.265  20.519  0.00  0.00    +0.003 A 
ATOM     19  C   UNL     1      19.652   8.304  21.717  0.00  0.00    +0.111 A 
ATOM     20  C   UNL     1      20.238   7.221  21.082  0.00  0.00    +0.020 A 
ENDBRANCH  13  14
ENDBRANCH   4  13
ENDBRANCH   8   4
BRANCH  10  12
ATOM     12  C   UNL     1      11.087   8.634  20.130  0.00  0.00    +0.140 C 
BRANCH  12   5
ATOM      3  O   UNL     1      11.591  11.228  21.232  0.00  0.00    -0.253 OA
ATOM      5  N   UNL     1      11.178   8.972  21.522  0.00  0.00    -0.297 N 
ATOM      6  N   UNL     1      11.463  10.298  23.384  0.00  0.00    -0.269 N 
ATOM     15  C   UNL     1      11.429  10.273  21.986  0.00  0.00    +0.304 C 
ATOM     28  H   UNL     1      11.068   8.227  22.203  0.00  0.00    +0.150 HD
ATOM     29  H   UNL     1      11.309   9.413  23.859  0.00  0.00    +0.156 HD
BRANCH   6  18
ATOM     18  C   UNL     1      11.687  11.412  24.226  0.00  0.00    +0.035 A 
ATOM     21  C   UNL     1      10.610  12.181  24.666  0.00  0.00    +0.023 A 
ATOM     22  C   UNL     1      12.985  11.741  24.616  0.00  0.00    +0.023 A 
ATOM     23  C   UNL     1      10.830  13.280  25.497  0.00  0.00    +0.002 A 
ATOM     24  C   UNL     1      13.205  12.840  25.447  0.00  0.00    +0.002 A 
ATOM     25  C   UNL     1      12.128  13.610  25.887  0.00  0.00    +0.000 A 
ENDBRANCH   6  18
ENDBRANCH  12   5
ENDBRANCH  10  12
TORSDOF 7
ENDMDL
MODEL 6
REMARK VINA RESULT:      -6.8      5.622     11.260
REMARK  Name = 75536769
REMARK  7 active torsions:
REMARK  status: ('A' for Active; 'I' for Inactive)
REMARK    1  A    between atoms: O_2  and  C_9
REMARK    2  A    between atoms: N_4  and  C_8
REMARK    3  A    between atoms: N_4  and  C_13
REMARK    4  A    between atoms: N_5  and  C_12
REMARK    5  A    between atoms: N_6  and  C_18
REMARK    6  A    between atoms: C_10  and  C_12
REMARK    7  A    between atoms: C_13  and  C_14
REMARK                            x       y       z     vdW  Elec       q    Type
REMARK                         _______ _______ _______ _____ _____    ______ ____
ROOT
ATOM      1  O   UNL     1      17.564   6.908  21.621  0.00  0.00    -0.371 OA
ATOM      8  C   UNL     1      16.298   6.112  19.776  0.00  0.00    +0.111 C 
ATOM      9  C   UNL     1      17.766   6.136  19.394  0.00  0.00    +0.164 C 
ATOM     10  C   UNL     1      18.425   6.137  20.767  0.00  0.00    +0.165 C 
ATOM     11  C   UNL     1      16.284   7.042  20.979  0.00  0.00    +0.181 C 
ENDROOT
BRANCH   9   2
ATOM      2  O   UNL     1      18.148   5.010  18.627  0.00  0.00    -0.388 OA
ATOM     27  H   UNL     1      17.804   5.123  17.726  0.00  0.00    +0.210 HD
ENDBRANCH   9   2
BRANCH   8   4
ATOM      4  N   UNL     1      15.411   6.552  18.711  0.00  0.00    -0.303 NA
ATOM     26  H   UNL     1      14.765   5.796  18.481  0.00  0.00    +0.123 HD
BRANCH   4  13
ATOM     13  C   UNL     1      14.640   7.721  19.117  0.00  0.00    +0.137 C 
BRANCH  13  14
ATOM      7  N   UNL     1      14.062   7.987  16.770  0.00  0.00    -0.259 NA
ATOM     14  C   UNL     1      14.304   8.606  17.947  0.00  0.00    +0.055 A 
ATOM     16  C   UNL     1      14.257   9.979  18.126  0.00  0.00    +0.024 A 
ATOM     17  C   UNL     1      13.942  10.768  17.025  0.00  0.00    +0.003 A 
ATOM     19  C   UNL     1      13.758   8.787  15.723  0.00  0.00    +0.111 A 
ATOM     20  C   UNL     1      13.686  10.168  15.797  0.00  0.00    +0.020 A 
ENDBRANCH  13  14
ENDBRANCH   4  13
ENDBRANCH   8   4
BRANCH  10  12
ATOM     12  C   UNL     1      19.818   6.739  20.763  0.00  0.00    +0.140 C 
BRANCH  12   5
ATOM      3  O   UNL     1      21.855   5.346  22.217  0.00  0.00    -0.253 OA
ATOM      5  N   UNL     1      20.782   5.823  20.224  0.00  0.00    -0.297 N 
ATOM      6  N   UNL     1      22.551   4.346  20.209  0.00  0.00    -0.269 N 
ATOM     15  C   UNL     1      21.754   5.176  21.004  0.00  0.00    +0.304 C 
ATOM     28  H   UNL     1      20.767   5.645  19.225  0.00  0.00    +0.150 HD
ATOM     29  H   UNL     1      22.333   4.320  19.217  0.00  0.00    +0.156 HD
BRANCH   6  18
ATOM     18  C   UNL     1      23.632   3.531  20.618  0.00  0.00    +0.035 A 
ATOM     21  C   UNL     1      23.419   2.182  20.901  0.00  0.00    +0.023 A 
ATOM     22  C   UNL     1      24.910   4.076  20.739  0.00  0.00    +0.023 A 
ATOM     23  C   UNL     1      24.485   1.377  21.304  0.00  0.00    +0.002 A 
ATOM     24  C   UNL     1      25.975   3.271  21.143  0.00  0.00    +0.002 A 
ATOM     25  C   UNL     1      25.763   1.922  21.425  0.00  0.00    +0.000 A 
ENDBRANCH   6  18
ENDBRANCH  12   5
ENDBRANCH  10  12
TORSDOF 7
ENDMDL
MODEL 7
REMARK VINA RESULT:      -6.8     26.310     29.077
REMARK  Name = 75536769
REMARK  7 active torsions:
REMARK  status: ('A' for Active; 'I' for Inactive)
REMARK    1  A    between atoms: O_2  and  C_9
REMARK    2  A    between atoms: N_4  and  C_8
REMARK    3  A    between atoms: N_4  and  C_13
REMARK    4  A    between atoms: N_5  and  C_12
REMARK    5  A    between atoms: N_6  and  C_18
REMARK    6  A    between atoms: C_10  and  C_12
REMARK    7  A    between atoms: C_13  and  C_14
REMARK                            x       y       z     vdW  Elec       q    Type
REMARK                         _______ _______ _______ _____ _____    ______ ____
ROOT
ATOM      1  O   UNL     1     -16.899   1.999  24.248  0.00  0.00    -0.371 OA
ATOM      8  C   UNL     1     -16.512   3.320  26.184  0.00  0.00    +0.111 C 
ATOM      9  C   UNL     1     -16.083   4.103  24.958  0.00  0.00    +0.164 C 
ATOM     10  C   UNL     1     -16.861   3.383  23.864  0.00  0.00    +0.165 C 
ATOM     11  C   UNL     1     -16.545   1.900  25.639  0.00  0.00    +0.181 C 
ENDROOT
BRANCH   9   2
ATOM      2  O   UNL     1     -16.429   5.472  25.037  0.00  0.00    -0.388 OA
ATOM     27  H   UNL     1     -17.376   5.561  24.837  0.00  0.00    +0.210 HD
ENDBRANCH   9   2
BRANCH   8   4
ATOM      4  N   UNL     1     -15.612   3.469  27.317  0.00  0.00    -0.303 NA
ATOM     26  H   UNL     1     -15.255   4.425  27.335  0.00  0.00    +0.123 HD
BRANCH   4  13
ATOM     13  C   UNL     1     -16.300   3.200  28.574  0.00  0.00    +0.137 C 
BRANCH  13  14
ATOM      7  N   UNL     1     -14.359   2.478  29.850  0.00  0.00    -0.259 NA
ATOM     14  C   UNL     1     -15.588   2.155  29.390  0.00  0.00    +0.055 A 
ATOM     16  C   UNL     1     -16.211   0.940  29.627  0.00  0.00    +0.024 A 
ATOM     17  C   UNL     1     -15.528  -0.005  30.385  0.00  0.00    +0.003 A 
ATOM     19  C   UNL     1     -13.726   1.535  30.584  0.00  0.00    +0.111 A 
ATOM     20  C   UNL     1     -14.261   0.291  30.876  0.00  0.00    +0.020 A 
ENDBRANCH  13  14
ENDBRANCH   4  13
ENDBRANCH   8   4
BRANCH  10  12
ATOM     12  C   UNL     1     -16.229   3.518  22.490  0.00  0.00    +0.140 C 
BRANCH  12   5
ATOM      3  O   UNL     1     -15.527   5.730  20.811  0.00  0.00    -0.253 OA
ATOM      5  N   UNL     1     -15.018   4.287  22.546  0.00  0.00    -0.297 N 
ATOM      6  N   UNL     1     -13.494   5.917  21.972  0.00  0.00    -0.269 N 
ATOM     15  C   UNL     1     -14.745   5.361  21.684  0.00  0.00    +0.304 C 
ATOM     28  H   UNL     1     -14.319   4.029  23.235  0.00  0.00    +0.150 HD
ATOM     29  H   UNL     1     -12.970   5.490  22.731  0.00  0.00    +0.156 HD
BRANCH   6  18
ATOM     18  C   UNL     1     -12.861   7.008  21.332  0.00  0.00    +0.035 A 
ATOM     21  C   UNL     1     -11.853   6.778  20.396  0.00  0.00    +0.023 A 
ATOM     22  C   UNL     1     -13.245   8.314  21.637  0.00  0.00    +0.023 A 
ATOM     23  C   UNL     1     -11.229   7.853  19.764  0.00  0.00    +0.002 A 
ATOM     24  C   UNL     1     -12.621   9.389  21.005  0.00  0.00    +0.002 A 
ATOM     25  C   UNL     1     -11.612   9.159  20.069  0.00  0.00    +0.000 A 
ENDBRANCH   6  18
ENDBRANCH  12   5
ENDBRANCH  10  12
TORSDOF 7
ENDMDL
MODEL 8
REMARK VINA RESULT:      -6.7     27.852     30.461
REMARK  Name = 75536769
REMARK  7 active torsions:
REMARK  status: ('A' for Active; 'I' for Inactive)
REMARK    1  A    between atoms: O_2  and  C_9
REMARK    2  A    between atoms: N_4  and  C_8
REMARK    3  A    between atoms: N_4  and  C_13
REMARK    4  A    between atoms: N_5  and  C_12
REMARK    5  A    between atoms: N_6  and  C_18
REMARK    6  A    between atoms: C_10  and  C_12
REMARK    7  A    between atoms: C_13  and  C_14
REMARK                            x       y       z     vdW  Elec       q    Type
REMARK                         _______ _______ _______ _____ _____    ______ ____
ROOT
ATOM      1  O   UNL     1     -12.479  -8.144  15.288  0.00  0.00    -0.371 OA
ATOM      8  C   UNL     1     -11.878  -6.078  14.280  0.00  0.00    +0.111 C 
ATOM      9  C   UNL     1     -11.099  -6.243  15.571  0.00  0.00    +0.164 C 
ATOM     10  C   UNL     1     -11.186  -7.750  15.774  0.00  0.00    +0.165 C 
ATOM     11  C   UNL     1     -13.007  -7.078  14.480  0.00  0.00    +0.181 C 
ENDROOT
BRANCH   9   2
ATOM      2  O   UNL     1      -9.759  -5.803  15.459  0.00  0.00    -0.388 OA
ATOM     27  H   UNL     1      -9.730  -4.855  15.672  0.00  0.00    +0.210 HD
ENDBRANCH   9   2
BRANCH   8   4
ATOM      4  N   UNL     1     -12.356  -4.724  14.055  0.00  0.00    -0.303 NA
ATOM     26  H   UNL     1     -11.951  -4.106  14.760  0.00  0.00    +0.123 HD
BRANCH   4  13
ATOM     13  C   UNL     1     -11.972  -4.244  12.732  0.00  0.00    +0.137 C 
BRANCH  13  14
ATOM      7  N   UNL     1     -14.180  -3.221  12.725  0.00  0.00    -0.259 NA
ATOM     14  C   UNL     1     -13.146  -3.674  11.981  0.00  0.00    +0.055 A 
ATOM     16  C   UNL     1     -13.112  -3.639  10.596  0.00  0.00    +0.024 A 
ATOM     17  C   UNL     1     -14.210  -3.105   9.932  0.00  0.00    +0.003 A 
ATOM     19  C   UNL     1     -15.230  -2.709  12.044  0.00  0.00    +0.111 A 
ATOM     20  C   UNL     1     -15.294  -2.629  10.662  0.00  0.00    +0.020 A 
ENDBRANCH  13  14
ENDBRANCH   4  13
ENDBRANCH   8   4
BRANCH  10  12
ATOM     12  C   UNL     1     -11.033  -8.169  17.226  0.00  0.00    +0.140 C 
BRANCH  12   5
ATOM      3  O   UNL     1      -9.373 -10.501  17.322  0.00  0.00    -0.253 OA
ATOM      5  N   UNL     1      -9.652  -8.223  17.611  0.00  0.00    -0.297 N 
ATOM      6  N   UNL     1      -7.591  -9.155  18.050  0.00  0.00    -0.269 N 
ATOM     15  C   UNL     1      -8.901  -9.410  17.634  0.00  0.00    +0.304 C 
ATOM     28  H   UNL     1      -9.200  -7.359  17.895  0.00  0.00    +0.150 HD
ATOM     29  H   UNL     1      -7.363  -8.191  18.272  0.00  0.00    +0.156 HD
BRANCH   6  18
ATOM     18  C   UNL     1      -6.534 -10.083  18.202  0.00  0.00    +0.035 A 
ATOM     21  C   UNL     1      -5.631 -10.288  17.158  0.00  0.00    +0.023 A 
ATOM     22  C   UNL     1      -6.394 -10.793  19.394  0.00  0.00    +0.023 A 
ATOM     23  C   UNL     1      -4.588 -11.203  17.307  0.00  0.00    +0.002 A 
ATOM     24  C   UNL     1      -5.351 -11.707  19.543  0.00  0.00    +0.002 A 
ATOM     25  C   UNL     1      -4.449 -11.912  18.500  0.00  0.00    +0.000 A 
ENDBRANCH   6  18
ENDBRANCH  12   5
ENDBRANCH  10  12
TORSDOF 7
ENDMDL
MODEL 9
REMARK VINA RESULT:      -6.7      2.664      4.188
REMARK  Name = 75536769
REMARK  7 active torsions:
REMARK  status: ('A' for Active; 'I' for Inactive)
REMARK    1  A    between atoms: O_2  and  C_9
REMARK    2  A    between atoms: N_4  and  C_8
REMARK    3  A    between atoms: N_4  and  C_13
REMARK    4  A    between atoms: N_5  and  C_12
REMARK    5  A    between atoms: N_6  and  C_18
REMARK    6  A    between atoms: C_10  and  C_12
REMARK    7  A    between atoms: C_13  and  C_14
REMARK                            x       y       z     vdW  Elec       q    Type
REMARK                         _______ _______ _______ _____ _____    ______ ____
ROOT
ATOM      1  O   UNL     1      15.730   6.238  18.942  0.00  0.00    -0.371 OA
ATOM      8  C   UNL     1      16.919   6.330  20.997  0.00  0.00    +0.111 C 
ATOM      9  C   UNL     1      15.672   7.186  21.108  0.00  0.00    +0.164 C 
ATOM     10  C   UNL     1      14.817   6.606  19.989  0.00  0.00    +0.165 C 
ATOM     11  C   UNL     1      17.061   6.199  19.488  0.00  0.00    +0.181 C 
ENDROOT
BRANCH   9   2
ATOM      2  O   UNL     1      15.040   7.067  22.369  0.00  0.00    -0.388 OA
ATOM     27  H   UNL     1      14.108   7.325  22.270  0.00  0.00    +0.210 HD
ENDBRANCH   9   2
BRANCH   8   4
ATOM      4  N   UNL     1      18.090   6.920  21.625  0.00  0.00    -0.303 NA
ATOM     26  H   UNL     1      18.294   6.416  22.489  0.00  0.00    +0.123 HD
BRANCH   4  13
ATOM     13  C   UNL     1      19.253   6.843  20.749  0.00  0.00    +0.137 C 
BRANCH  13  14
ATOM      7  N   UNL     1      20.847   6.188  22.465  0.00  0.00    -0.259 NA
ATOM     14  C   UNL     1      20.288   5.884  21.273  0.00  0.00    +0.055 A 
ATOM     16  C   UNL     1      20.610   4.761  20.528  0.00  0.00    +0.024 A 
ATOM     17  C   UNL     1      21.568   3.893  21.041  0.00  0.00    +0.003 A 
ATOM     19  C   UNL     1      21.774   5.321  22.931  0.00  0.00    +0.111 A 
ATOM     20  C   UNL     1      22.167   4.172  22.264  0.00  0.00    +0.020 A 
ENDBRANCH  13  14
ENDBRANCH   4  13
ENDBRANCH   8   4
BRANCH  10  12
ATOM     12  C   UNL     1      13.787   7.584  19.452  0.00  0.00    +0.140 C 
BRANCH  12   5
ATOM      3  O   UNL     1      11.540   8.813  20.731  0.00  0.00    -0.253 OA
ATOM      5  N   UNL     1      13.790   8.808  20.200  0.00  0.00    -0.297 N 
ATOM      6  N   UNL     1      12.949  10.546  21.458  0.00  0.00    -0.269 N 
ATOM     15  C   UNL     1      12.642   9.350  20.800  0.00  0.00    +0.304 C 
ATOM     28  H   UNL     1      14.666   9.315  20.286  0.00  0.00    +0.150 HD
ATOM     29  H   UNL     1      13.917  10.853  21.417  0.00  0.00    +0.156 HD
BRANCH   6  18
ATOM     18  C   UNL     1      12.071  11.388  22.178  0.00  0.00    +0.035 A 
ATOM     21  C   UNL     1      11.718  11.069  23.489  0.00  0.00    +0.023 A 
ATOM     22  C   UNL     1      11.558  12.538  21.578  0.00  0.00    +0.023 A 
ATOM     23  C   UNL     1      10.852  11.900  24.201  0.00  0.00    +0.002 A 
ATOM     24  C   UNL     1      10.693  13.369  22.290  0.00  0.00    +0.002 A 
ATOM     25  C   UNL     1      10.339  13.050  23.601  0.00  0.00    +0.000 A 
ENDBRANCH   6  18
ENDBRANCH  12   5
ENDBRANCH  10  12
TORSDOF 7
ENDMDL
MODEL 10
REMARK VINA RESULT:      -6.7     26.660     29.407
REMARK  Name = 75536769
REMARK  7 active torsions:
REMARK  status: ('A' for Active; 'I' for Inactive)
REMARK    1  A    between atoms: O_2  and  C_9
REMARK    2  A    between atoms: N_4  and  C_8
REMARK    3  A    between atoms: N_4  and  C_13
REMARK    4  A    between atoms: N_5  and  C_12
REMARK    5  A    between atoms: N_6  and  C_18
REMARK    6  A    between atoms: C_10  and  C_12
REMARK    7  A    between atoms: C_13  and  C_14
REMARK                            x       y       z     vdW  Elec       q    Type
REMARK                         _______ _______ _______ _____ _____    ______ ____
ROOT
ATOM      1  O   UNL     1     -17.480   5.058  25.996  0.00  0.00    -0.371 OA
ATOM      8  C   UNL     1     -16.353   2.996  26.345  0.00  0.00    +0.111 C 
ATOM      9  C   UNL     1     -16.391   3.293  24.858  0.00  0.00    +0.164 C 
ATOM     10  C   UNL     1     -16.632   4.797  24.865  0.00  0.00    +0.165 C 
ATOM     11  C   UNL     1     -17.452   3.911  26.863  0.00  0.00    +0.181 C 
ENDROOT
BRANCH   9   2
ATOM      2  O   UNL     1     -15.183   2.956  24.203  0.00  0.00    -0.388 OA
ATOM     27  H   UNL     1     -14.904   3.716  23.666  0.00  0.00    +0.210 HD
ENDBRANCH   9   2
BRANCH   8   4
ATOM      4  N   UNL     1     -16.582   1.597  26.668  0.00  0.00    -0.303 NA
ATOM     26  H   UNL     1     -15.707   1.083  26.564  0.00  0.00    +0.123 HD
BRANCH   4  13
ATOM     13  C   UNL     1     -17.058   1.445  28.038  0.00  0.00    +0.137 C 
BRANCH  13  14
ATOM      7  N   UNL     1     -15.220   0.133  28.942  0.00  0.00    -0.259 NA
ATOM     14  C   UNL     1     -15.922   1.286  29.012  0.00  0.00    +0.055 A 
ATOM     16  C   UNL     1     -15.654   2.305  29.912  0.00  0.00    +0.024 A 
ATOM     17  C   UNL     1     -14.596   2.129  30.798  0.00  0.00    +0.003 A 
ATOM     19  C   UNL     1     -14.199  -0.002  29.819  0.00  0.00    +0.111 A 
ATOM     20  C   UNL     1     -13.851   0.956  30.757  0.00  0.00    +0.020 A 
ENDBRANCH  13  14
ENDBRANCH   4  13
ENDBRANCH   8   4
BRANCH  10  12
ATOM     12  C   UNL     1     -17.295   5.304  23.597  0.00  0.00    +0.140 C 
BRANCH  12   5
ATOM      3  O   UNL     1     -15.159   4.848  21.745  0.00  0.00    -0.253 OA
ATOM      5  N   UNL     1     -16.493   6.302  22.951  0.00  0.00    -0.297 N 
ATOM      6  N   UNL     1     -14.854   7.171  21.584  0.00  0.00    -0.269 N 
ATOM     15  C   UNL     1     -15.458   6.000  22.051  0.00  0.00    +0.304 C 
ATOM     28  H   UNL     1     -16.675   7.278  23.169  0.00  0.00    +0.150 HD
ATOM     29  H   UNL     1     -15.224   8.048  21.941  0.00  0.00    +0.156 HD
BRANCH   6  18
ATOM     18  C   UNL     1     -13.782   7.288  20.669  0.00  0.00    +0.035 A 
ATOM     21  C   UNL     1     -14.018   7.743  19.372  0.00  0.00    +0.023 A 
ATOM     22  C   UNL     1     -12.488   6.948  21.064  0.00  0.00    +0.023 A 
ATOM     23  C   UNL     1     -12.962   7.860  18.469  0.00  0.00    +0.002 A 
ATOM     24  C   UNL     1     -11.431   7.064  20.161  0.00  0.00    +0.002 A 
ATOM     25  C   UNL     1     -11.668   7.519  18.864  0.00  0.00    +0.000 A 
ENDBRANCH   6  18
ENDBRANCH  12   5
ENDBRANCH  10  12
TORSDOF 7
ENDMDL
