MODEL 1
REMARK VINA RESULT:      -7.5      0.000      0.000
REMARK  Name = 40777720
REMARK  10 active torsions:
REMARK  status: ('A' for Active; 'I' for Inactive)
REMARK    1  A    between atoms: N_3  and  C_15
REMARK    2  A    between atoms: N_4  and  C_8
REMARK    3  A    between atoms: C_6  and  C_9
REMARK    4  A    between atoms: C_12  and  C_16
REMARK    5  A    between atoms: C_13  and  C_18
REMARK    6  A    between atoms: C_14  and  C_17
REMARK    7  A    between atoms: C_14  and  C_24
REMARK    8  A    between atoms: C_14  and  C_25
REMARK    9  A    between atoms: C_14  and  C_26
REMARK   10  A    between atoms: C_21  and  C_27
REMARK                            x       y       z     vdW  Elec       q    Type
REMARK                         _______ _______ _______ _____ _____    ______ ____
ROOT
ATOM      3  N   UNL     1     -14.692   6.188  21.691  0.00  0.00    -0.236 N 
ATOM      5  N   UNL     1     -16.003   6.483  21.724  0.00  0.00    -0.171 NA
ATOM      9  C   UNL     1     -15.484   4.806  23.185  0.00  0.00    +0.003 A 
ATOM     12  C   UNL     1     -14.330   5.190  22.547  0.00  0.00    +0.046 A 
ATOM     13  C   UNL     1     -16.481   5.636  22.639  0.00  0.00    +0.064 A 
ATOM     16  C   UNL     1     -12.943   4.699  22.679  0.00  0.00    +0.066 C 
ATOM     18  C   UNL     1     -17.919   5.654  22.963  0.00  0.00    +0.068 C 
ENDROOT
BRANCH   3  15
ATOM     15  C   UNL     1     -13.847   6.887  20.828  0.00  0.00    +0.066 A 
ATOM     17  C   UNL     1     -12.155   8.278  19.102  0.00  0.00    -0.042 A 
ATOM     19  C   UNL     1     -14.349   7.426  19.643  0.00  0.00    +0.028 A 
ATOM     20  C   UNL     1     -12.498   7.045  21.150  0.00  0.00    +0.028 A 
ATOM     22  C   UNL     1     -13.503   8.121  18.780  0.00  0.00    +0.006 A 
ATOM     23  C   UNL     1     -11.653   7.741  20.287  0.00  0.00    +0.006 A 
BRANCH  17  14
ATOM     14  C   UNL     1     -11.250   9.022  18.178  0.00  0.00    -0.013 C 
ATOM     24  C   UNL     1     -10.114   9.749  18.963  0.00  0.00    +0.015 C 
ATOM     25  C   UNL     1     -12.031  10.107  17.372  0.00  0.00    +0.015 C 
ATOM     26  C   UNL     1     -10.522   8.149  17.103  0.00  0.00    +0.015 C 
ENDBRANCH  17  14
ENDBRANCH   3  15
BRANCH   9   6
ATOM      6  C   UNL     1     -15.643   3.733  24.237  0.00  0.00    +0.047 C 
ATOM      7  C   UNL     1     -16.159   4.274  25.588  0.00  0.00    +0.039 C 
ATOM      8  C   UNL     1     -17.048   3.168  26.170  0.00  0.00    +0.097 C 
ATOM     10  C   UNL     1     -16.654   2.673  23.907  0.00  0.00    -0.021 C 
ATOM     11  C   UNL     1     -17.414   2.367  24.964  0.00  0.00    -0.009 C 
BRANCH   8   4
ATOM      1  O   UNL     1     -16.200   3.876  28.821  0.00  0.00    -0.267 OA
ATOM      4  N   UNL     1     -16.347   2.326  27.102  0.00  0.00    -0.303 N 
ATOM     21  C   UNL     1     -15.976   2.756  28.371  0.00  0.00    +0.280 C 
ATOM     31  H   UNL     1     -16.079   1.389  26.809  0.00  0.00    +0.150 HD
BRANCH  21  27
ATOM      2  O   UNL     1     -15.585   0.464  29.104  0.00  0.00    -0.458 OA
ATOM     27  C   UNL     1     -15.235   1.774  29.203  0.00  0.00    +0.189 A 
ATOM     28  C   UNL     1     -14.207   1.933  30.105  0.00  0.00    +0.054 A 
ATOM     29  C   UNL     1     -13.906   0.638  30.589  0.00  0.00    +0.042 A 
ATOM     30  C   UNL     1     -14.771  -0.221  29.950  0.00  0.00    +0.196 A 
ENDBRANCH  21  27
ENDBRANCH   8   4
ENDBRANCH   9   6
TORSDOF 5
ENDMDL
MODEL 2
REMARK VINA RESULT:      -7.4     16.975     18.233
REMARK  Name = 40777720
REMARK  10 active torsions:
REMARK  status: ('A' for Active; 'I' for Inactive)
REMARK    1  A    between atoms: N_3  and  C_15
REMARK    2  A    between atoms: N_4  and  C_8
REMARK    3  A    between atoms: C_6  and  C_9
REMARK    4  A    between atoms: C_12  and  C_16
REMARK    5  A    between atoms: C_13  and  C_18
REMARK    6  A    between atoms: C_14  and  C_17
REMARK    7  A    between atoms: C_14  and  C_24
REMARK    8  A    between atoms: C_14  and  C_25
REMARK    9  A    between atoms: C_14  and  C_26
REMARK   10  A    between atoms: C_21  and  C_27
REMARK                            x       y       z     vdW  Elec       q    Type
REMARK                         _______ _______ _______ _____ _____    ______ ____
ROOT
ATOM      3  N   UNL     1      -7.253 -10.212  16.976  0.00  0.00    -0.236 N 
ATOM      5  N   UNL     1      -7.971  -9.099  16.744  0.00  0.00    -0.171 NA
ATOM      9  C   UNL     1      -9.081 -10.542  18.125  0.00  0.00    +0.003 A 
ATOM     12  C   UNL     1      -7.873 -11.107  17.796  0.00  0.00    +0.046 A 
ATOM     13  C   UNL     1      -9.086  -9.306  17.450  0.00  0.00    +0.064 A 
ATOM     16  C   UNL     1      -7.273 -12.399  18.187  0.00  0.00    +0.066 C 
ATOM     18  C   UNL     1     -10.146  -8.282  17.447  0.00  0.00    +0.068 C 
ENDROOT
BRANCH   3  15
ATOM     15  C   UNL     1      -5.995 -10.358  16.389  0.00  0.00    +0.066 A 
ATOM     17  C   UNL     1      -3.480 -10.657  15.221  0.00  0.00    -0.042 A 
ATOM     19  C   UNL     1      -5.885 -10.566  15.014  0.00  0.00    +0.028 A 
ATOM     20  C   UNL     1      -4.847 -10.299  17.180  0.00  0.00    +0.028 A 
ATOM     22  C   UNL     1      -4.628 -10.715  14.431  0.00  0.00    +0.006 A 
ATOM     23  C   UNL     1      -3.590 -10.448  16.595  0.00  0.00    +0.006 A 
BRANCH  17  14
ATOM     14  C   UNL     1      -2.136 -10.817  14.596  0.00  0.00    -0.013 C 
ATOM     24  C   UNL     1      -1.753 -12.323  14.452  0.00  0.00    +0.015 C 
ATOM     25  C   UNL     1      -1.027 -10.131  15.454  0.00  0.00    +0.015 C 
ATOM     26  C   UNL     1      -1.985 -10.210  13.161  0.00  0.00    +0.015 C 
ENDBRANCH  17  14
ENDBRANCH   3  15
BRANCH   9   6
ATOM      6  C   UNL     1     -10.159 -11.118  19.013  0.00  0.00    +0.047 C 
ATOM      7  C   UNL     1     -10.715 -10.104  20.035  0.00  0.00    +0.039 C 
ATOM      8  C   UNL     1     -12.202 -10.443  20.195  0.00  0.00    +0.097 C 
ATOM     10  C   UNL     1     -11.399 -11.561  18.291  0.00  0.00    -0.021 C 
ATOM     11  C   UNL     1     -12.508 -11.193  18.941  0.00  0.00    -0.009 C 
BRANCH   8   4
ATOM      1  O   UNL     1     -14.743 -10.905  21.451  0.00  0.00    -0.267 OA
ATOM      4  N   UNL     1     -12.460 -11.291  21.328  0.00  0.00    -0.303 N 
ATOM     21  C   UNL     1     -13.729 -11.455  21.871  0.00  0.00    +0.280 C 
ATOM     31  H   UNL     1     -11.676 -11.763  21.775  0.00  0.00    +0.150 HD
BRANCH  21  27
ATOM      2  O   UNL     1     -12.839 -13.264  23.242  0.00  0.00    -0.458 OA
ATOM     27  C   UNL     1     -13.823 -12.345  23.057  0.00  0.00    +0.189 A 
ATOM     28  C   UNL     1     -14.759 -12.429  24.062  0.00  0.00    +0.054 A 
ATOM     29  C   UNL     1     -14.321 -13.466  24.920  0.00  0.00    +0.042 A 
ATOM     30  C   UNL     1     -13.149 -13.941  24.378  0.00  0.00    +0.196 A 
ENDBRANCH  21  27
ENDBRANCH   8   4
ENDBRANCH   9   6
TORSDOF 5
ENDMDL
MODEL 3
REMARK VINA RESULT:      -7.4      6.050     12.457
REMARK  Name = 40777720
REMARK  10 active torsions:
REMARK  status: ('A' for Active; 'I' for Inactive)
REMARK    1  A    between atoms: N_3  and  C_15
REMARK    2  A    between atoms: N_4  and  C_8
REMARK    3  A    between atoms: C_6  and  C_9
REMARK    4  A    between atoms: C_12  and  C_16
REMARK    5  A    between atoms: C_13  and  C_18
REMARK    6  A    between atoms: C_14  and  C_17
REMARK    7  A    between atoms: C_14  and  C_24
REMARK    8  A    between atoms: C_14  and  C_25
REMARK    9  A    between atoms: C_14  and  C_26
REMARK   10  A    between atoms: C_21  and  C_27
REMARK                            x       y       z     vdW  Elec       q    Type
REMARK                         _______ _______ _______ _____ _____    ______ ____
ROOT
ATOM      3  N   UNL     1     -12.493   7.850  19.863  0.00  0.00    -0.236 N 
ATOM      5  N   UNL     1     -12.048   7.276  18.732  0.00  0.00    -0.171 NA
ATOM      9  C   UNL     1     -11.211   9.386  18.986  0.00  0.00    +0.003 A 
ATOM     12  C   UNL     1     -12.021   9.114  20.061  0.00  0.00    +0.046 A 
ATOM     13  C   UNL     1     -11.264   8.218  18.201  0.00  0.00    +0.064 A 
ATOM     16  C   UNL     1     -12.377   9.938  21.235  0.00  0.00    +0.066 C 
ATOM     18  C   UNL     1     -10.579   7.956  16.923  0.00  0.00    +0.068 C 
ENDROOT
BRANCH   3  15
ATOM     15  C   UNL     1     -13.358   7.147  20.702  0.00  0.00    +0.066 A 
ATOM     17  C   UNL     1     -15.090   5.737  22.373  0.00  0.00    -0.042 A 
ATOM     19  C   UNL     1     -12.864   6.135  21.526  0.00  0.00    +0.028 A 
ATOM     20  C   UNL     1     -14.719   7.454  20.714  0.00  0.00    +0.028 A 
ATOM     22  C   UNL     1     -13.730   5.431  22.361  0.00  0.00    +0.006 A 
ATOM     23  C   UNL     1     -15.584   6.749  21.550  0.00  0.00    +0.006 A 
BRANCH  17  14
ATOM     14  C   UNL     1     -16.016   4.983  23.267  0.00  0.00    -0.013 C 
ATOM     24  C   UNL     1     -15.237   3.981  24.174  0.00  0.00    +0.015 C 
ATOM     25  C   UNL     1     -17.054   4.160  22.441  0.00  0.00    +0.015 C 
ATOM     26  C   UNL     1     -16.866   5.859  24.247  0.00  0.00    +0.015 C 
ENDBRANCH  17  14
ENDBRANCH   3  15
BRANCH   9   6
ATOM      6  C   UNL     1     -10.436  10.654  18.711  0.00  0.00    +0.047 C 
ATOM      7  C   UNL     1      -9.730  10.652  17.339  0.00  0.00    +0.039 C 
ATOM      8  C   UNL     1      -9.775  12.102  16.842  0.00  0.00    +0.097 C 
ATOM     10  C   UNL     1     -11.273  11.899  18.641  0.00  0.00    -0.021 C 
ATOM     11  C   UNL     1     -10.906  12.685  17.624  0.00  0.00    -0.009 C 
BRANCH   8   4
ATOM      1  O   UNL     1      -8.104  13.497  14.968  0.00  0.00    -0.267 OA
ATOM      4  N   UNL     1      -8.570  12.829  17.140  0.00  0.00    -0.303 N 
ATOM     21  C   UNL     1      -7.823  13.477  16.163  0.00  0.00    +0.280 C 
ATOM     31  H   UNL     1      -8.230  12.840  18.099  0.00  0.00    +0.150 HD
BRANCH  21  27
ATOM      2  O   UNL     1      -6.531  14.547  17.932  0.00  0.00    -0.458 OA
ATOM     27  C   UNL     1      -6.589  14.161  16.630  0.00  0.00    +0.189 A 
ATOM     28  C   UNL     1      -5.430  14.501  15.972  0.00  0.00    +0.054 A 
ATOM     29  C   UNL     1      -4.606  15.136  16.932  0.00  0.00    +0.042 A 
ATOM     30  C   UNL     1      -5.320  15.139  18.108  0.00  0.00    +0.196 A 
ENDBRANCH  21  27
ENDBRANCH   8   4
ENDBRANCH   9   6
TORSDOF 5
ENDMDL
MODEL 4
REMARK VINA RESULT:      -7.3     17.898     20.873
REMARK  Name = 40777720
REMARK  10 active torsions:
REMARK  status: ('A' for Active; 'I' for Inactive)
REMARK    1  A    between atoms: N_3  and  C_15
REMARK    2  A    between atoms: N_4  and  C_8
REMARK    3  A    between atoms: C_6  and  C_9
REMARK    4  A    between atoms: C_12  and  C_16
REMARK    5  A    between atoms: C_13  and  C_18
REMARK    6  A    between atoms: C_14  and  C_17
REMARK    7  A    between atoms: C_14  and  C_24
REMARK    8  A    between atoms: C_14  and  C_25
REMARK    9  A    between atoms: C_14  and  C_26
REMARK   10  A    between atoms: C_21  and  C_27
REMARK                            x       y       z     vdW  Elec       q    Type
REMARK                         _______ _______ _______ _____ _____    ______ ____
ROOT
ATOM      3  N   UNL     1      -9.272 -11.090  19.141  0.00  0.00    -0.236 N 
ATOM      5  N   UNL     1      -8.292 -11.133  20.060  0.00  0.00    -0.171 NA
ATOM      9  C   UNL     1      -7.452 -11.166  17.936  0.00  0.00    +0.003 A 
ATOM     12  C   UNL     1      -8.822 -11.109  17.854  0.00  0.00    +0.046 A 
ATOM     13  C   UNL     1      -7.183 -11.177  19.318  0.00  0.00    +0.064 A 
ATOM     16  C   UNL     1      -9.719 -11.071  16.681  0.00  0.00    +0.066 C 
ATOM     18  C   UNL     1      -5.868 -11.234  19.981  0.00  0.00    +0.068 C 
ENDROOT
BRANCH   3  15
ATOM     15  C   UNL     1     -10.604 -11.035  19.553  0.00  0.00    +0.066 A 
ATOM     17  C   UNL     1     -13.269 -10.923  20.368  0.00  0.00    -0.042 A 
ATOM     19  C   UNL     1     -11.287 -12.210  19.870  0.00  0.00    +0.028 A 
ATOM     20  C   UNL     1     -11.255  -9.804  19.644  0.00  0.00    +0.028 A 
ATOM     22  C   UNL     1     -12.619 -12.153  20.277  0.00  0.00    +0.006 A 
ATOM     23  C   UNL     1     -12.586  -9.749  20.052  0.00  0.00    +0.006 A 
BRANCH  17  14
ATOM     14  C   UNL     1     -14.695 -10.863  20.805  0.00  0.00    -0.013 C 
ATOM     24  C   UNL     1     -15.627 -11.606  19.798  0.00  0.00    +0.015 C 
ATOM     25  C   UNL     1     -15.194  -9.388  20.906  0.00  0.00    +0.015 C 
ATOM     26  C   UNL     1     -14.997 -11.501  22.201  0.00  0.00    +0.015 C 
ENDBRANCH  17  14
ENDBRANCH   3  15
BRANCH   9   6
ATOM      6  C   UNL     1      -6.461 -11.206  16.796  0.00  0.00    +0.047 C 
ATOM      7  C   UNL     1      -5.345 -10.147  16.920  0.00  0.00    +0.039 C 
ATOM      8  C   UNL     1      -4.084 -10.797  16.338  0.00  0.00    +0.097 C 
ATOM     10  C   UNL     1      -5.681 -12.485  16.686  0.00  0.00    -0.021 C 
ATOM     11  C   UNL     1      -4.388 -12.256  16.433  0.00  0.00    -0.009 C 
BRANCH   8   4
ATOM      1  O   UNL     1      -1.778 -11.437  14.750  0.00  0.00    -0.267 OA
ATOM      4  N   UNL     1      -3.866 -10.449  14.959  0.00  0.00    -0.303 N 
ATOM     21  C   UNL     1      -2.713 -10.803  14.268  0.00  0.00    +0.280 C 
ATOM     31  H   UNL     1      -4.567  -9.889  14.479  0.00  0.00    +0.150 HD
BRANCH  21  27
ATOM      2  O   UNL     1      -1.431  -9.885  12.408  0.00  0.00    -0.458 OA
ATOM     27  C   UNL     1      -2.629 -10.345  12.857  0.00  0.00    +0.189 A 
ATOM     28  C   UNL     1      -3.573 -10.290  11.858  0.00  0.00    +0.054 A 
ATOM     29  C   UNL     1      -2.913  -9.763  10.723  0.00  0.00    +0.042 A 
ATOM     30  C   UNL     1      -1.613  -9.534  11.108  0.00  0.00    +0.196 A 
ENDBRANCH  21  27
ENDBRANCH   8   4
ENDBRANCH   9   6
TORSDOF 5
ENDMDL
MODEL 5
REMARK VINA RESULT:      -7.3      9.366     13.625
REMARK  Name = 40777720
REMARK  10 active torsions:
REMARK  status: ('A' for Active; 'I' for Inactive)
REMARK    1  A    between atoms: N_3  and  C_15
REMARK    2  A    between atoms: N_4  and  C_8
REMARK    3  A    between atoms: C_6  and  C_9
REMARK    4  A    between atoms: C_12  and  C_16
REMARK    5  A    between atoms: C_13  and  C_18
REMARK    6  A    between atoms: C_14  and  C_17
REMARK    7  A    between atoms: C_14  and  C_24
REMARK    8  A    between atoms: C_14  and  C_25
REMARK    9  A    between atoms: C_14  and  C_26
REMARK   10  A    between atoms: C_21  and  C_27
REMARK                            x       y       z     vdW  Elec       q    Type
REMARK                         _______ _______ _______ _____ _____    ______ ____
ROOT
ATOM      3  N   UNL     1     -13.681   6.556  33.332  0.00  0.00    -0.236 N 
ATOM      5  N   UNL     1     -13.045   7.649  32.876  0.00  0.00    -0.171 NA
ATOM      9  C   UNL     1     -12.972   7.526  35.156  0.00  0.00    +0.003 A 
ATOM     12  C   UNL     1     -13.666   6.436  34.690  0.00  0.00    +0.046 A 
ATOM     13  C   UNL     1     -12.613   8.237  33.995  0.00  0.00    +0.064 A 
ATOM     16  C   UNL     1     -14.303   5.316  35.412  0.00  0.00    +0.066 C 
ATOM     18  C   UNL     1     -11.853   9.496  33.905  0.00  0.00    +0.068 C 
ENDROOT
BRANCH   3  15
ATOM     15  C   UNL     1     -14.276   5.674  32.428  0.00  0.00    +0.066 A 
ATOM     17  C   UNL     1     -15.463   3.918  30.616  0.00  0.00    -0.042 A 
ATOM     19  C   UNL     1     -13.689   4.435  32.172  0.00  0.00    +0.028 A 
ATOM     20  C   UNL     1     -15.456   6.035  31.778  0.00  0.00    +0.028 A 
ATOM     22  C   UNL     1     -14.283   3.557  31.266  0.00  0.00    +0.006 A 
ATOM     23  C   UNL     1     -16.049   5.157  30.873  0.00  0.00    +0.006 A 
BRANCH  17  14
ATOM     14  C   UNL     1     -16.097   2.978  29.646  0.00  0.00    -0.013 C 
ATOM     24  C   UNL     1     -15.623   3.264  28.187  0.00  0.00    +0.015 C 
ATOM     25  C   UNL     1     -17.652   3.108  29.668  0.00  0.00    +0.015 C 
ATOM     26  C   UNL     1     -15.803   1.461  29.890  0.00  0.00    +0.015 C 
ENDBRANCH  17  14
ENDBRANCH   3  15
BRANCH   9   6
ATOM      6  C   UNL     1     -12.664   7.879  36.593  0.00  0.00    +0.047 C 
ATOM      7  C   UNL     1     -11.190   7.636  36.978  0.00  0.00    +0.039 C 
ATOM      8  C   UNL     1     -10.832   8.739  37.981  0.00  0.00    +0.097 C 
ATOM     10  C   UNL     1     -12.853   9.327  36.938  0.00  0.00    -0.021 C 
ATOM     11  C   UNL     1     -11.854   9.790  37.698  0.00  0.00    -0.009 C 
BRANCH   8   4
ATOM      1  O   UNL     1      -8.713   8.462  39.900  0.00  0.00    -0.267 OA
ATOM      4  N   UNL     1     -10.961   8.311  39.348  0.00  0.00    -0.303 N 
ATOM     21  C   UNL     1      -9.873   8.206  40.209  0.00  0.00    +0.280 C 
ATOM     31  H   UNL     1     -11.879   8.037  39.691  0.00  0.00    +0.150 HD
BRANCH  21  27
ATOM      2  O   UNL     1      -9.389   6.736  42.092  0.00  0.00    -0.458 OA
ATOM     27  C   UNL     1     -10.171   7.724  41.582  0.00  0.00    +0.189 A 
ATOM     28  C   UNL     1     -11.132   8.098  42.492  0.00  0.00    +0.054 A 
ATOM     29  C   UNL     1     -10.927   7.289  43.634  0.00  0.00    +0.042 A 
ATOM     30  C   UNL     1      -9.855   6.477  43.341  0.00  0.00    +0.196 A 
ENDBRANCH  21  27
ENDBRANCH   8   4
ENDBRANCH   9   6
TORSDOF 5
ENDMDL
MODEL 6
REMARK VINA RESULT:      -7.3     21.875     24.815
REMARK  Name = 40777720
REMARK  10 active torsions:
REMARK  status: ('A' for Active; 'I' for Inactive)
REMARK    1  A    between atoms: N_3  and  C_15
REMARK    2  A    between atoms: N_4  and  C_8
REMARK    3  A    between atoms: C_6  and  C_9
REMARK    4  A    between atoms: C_12  and  C_16
REMARK    5  A    between atoms: C_13  and  C_18
REMARK    6  A    between atoms: C_14  and  C_17
REMARK    7  A    between atoms: C_14  and  C_24
REMARK    8  A    between atoms: C_14  and  C_25
REMARK    9  A    between atoms: C_14  and  C_26
REMARK   10  A    between atoms: C_21  and  C_27
REMARK                            x       y       z     vdW  Elec       q    Type
REMARK                         _______ _______ _______ _____ _____    ______ ____
ROOT
ATOM      3  N   UNL     1      -3.713 -10.653  13.424  0.00  0.00    -0.236 N 
ATOM      5  N   UNL     1      -2.458 -10.187  13.304  0.00  0.00    -0.171 NA
ATOM      9  C   UNL     1      -3.431 -10.508  11.263  0.00  0.00    +0.003 A 
ATOM     12  C   UNL     1      -4.339 -10.862  12.230  0.00  0.00    +0.046 A 
ATOM     13  C   UNL     1      -2.291 -10.099  11.982  0.00  0.00    +0.064 A 
ATOM     16  C   UNL     1      -5.720 -11.373  12.118  0.00  0.00    +0.066 C 
ATOM     18  C   UNL     1      -1.008  -9.615  11.443  0.00  0.00    +0.068 C 
ENDROOT
BRANCH   3  15
ATOM     15  C   UNL     1      -4.251 -10.876  14.692  0.00  0.00    +0.066 A 
ATOM     17  C   UNL     1      -5.332 -11.323  17.224  0.00  0.00    -0.042 A 
ATOM     19  C   UNL     1      -3.859 -11.993  15.430  0.00  0.00    +0.028 A 
ATOM     20  C   UNL     1      -5.183  -9.982  15.220  0.00  0.00    +0.028 A 
ATOM     22  C   UNL     1      -4.399 -12.216  16.696  0.00  0.00    +0.006 A 
ATOM     23  C   UNL     1      -5.723 -10.206  16.486  0.00  0.00    +0.006 A 
BRANCH  17  14
ATOM     14  C   UNL     1      -5.910 -11.563  18.578  0.00  0.00    -0.013 C 
ATOM     24  C   UNL     1      -4.801 -11.940  19.609  0.00  0.00    +0.015 C 
ATOM     25  C   UNL     1      -6.944 -12.732  18.553  0.00  0.00    +0.015 C 
ATOM     26  C   UNL     1      -6.670 -10.349  19.209  0.00  0.00    +0.015 C 
ENDBRANCH  17  14
ENDBRANCH   3  15
BRANCH   9   6
ATOM      6  C   UNL     1      -3.616 -10.549   9.763  0.00  0.00    +0.047 C 
ATOM      7  C   UNL     1      -4.519 -11.708   9.292  0.00  0.00    +0.039 C 
ATOM      8  C   UNL     1      -5.289 -11.173   8.078  0.00  0.00    +0.097 C 
ATOM     10  C   UNL     1      -4.305  -9.348   9.183  0.00  0.00    -0.021 C 
ATOM     11  C   UNL     1      -5.212  -9.693   8.262  0.00  0.00    -0.009 C 
BRANCH   8   4
ATOM      1  O   UNL     1      -6.627 -11.747   5.603  0.00  0.00    -0.267 OA
ATOM      4  N   UNL     1      -4.670 -11.526   6.828  0.00  0.00    -0.303 N 
ATOM     21  C   UNL     1      -5.402 -11.788   5.675  0.00  0.00    +0.280 C 
ATOM     31  H   UNL     1      -3.658 -11.625   6.794  0.00  0.00    +0.150 HD
BRANCH  21  27
ATOM      2  O   UNL     1      -3.260 -12.161   4.573  0.00  0.00    -0.458 OA
ATOM     27  C   UNL     1      -4.616 -12.165   4.473  0.00  0.00    +0.189 A 
ATOM     28  C   UNL     1      -5.006 -12.538   3.208  0.00  0.00    +0.054 A 
ATOM     29  C   UNL     1      -3.814 -12.781   2.485  0.00  0.00    +0.042 A 
ATOM     30  C   UNL     1      -2.780 -12.538   3.360  0.00  0.00    +0.196 A 
ENDBRANCH  21  27
ENDBRANCH   8   4
ENDBRANCH   9   6
TORSDOF 5
ENDMDL
MODEL 7
REMARK VINA RESULT:      -7.2     30.065     33.787
REMARK  Name = 40777720
REMARK  10 active torsions:
REMARK  status: ('A' for Active; 'I' for Inactive)
REMARK    1  A    between atoms: N_3  and  C_15
REMARK    2  A    between atoms: N_4  and  C_8
REMARK    3  A    between atoms: C_6  and  C_9
REMARK    4  A    between atoms: C_12  and  C_16
REMARK    5  A    between atoms: C_13  and  C_18
REMARK    6  A    between atoms: C_14  and  C_17
REMARK    7  A    between atoms: C_14  and  C_24
REMARK    8  A    between atoms: C_14  and  C_25
REMARK    9  A    between atoms: C_14  and  C_26
REMARK   10  A    between atoms: C_21  and  C_27
REMARK                            x       y       z     vdW  Elec       q    Type
REMARK                         _______ _______ _______ _____ _____    ______ ____
ROOT
ATOM      3  N   UNL     1      19.740   5.456  20.464  0.00  0.00    -0.236 N 
ATOM      5  N   UNL     1      19.019   5.185  19.363  0.00  0.00    -0.171 NA
ATOM      9  C   UNL     1      17.894   6.579  20.780  0.00  0.00    +0.003 A 
ATOM     12  C   UNL     1      19.111   6.286  21.344  0.00  0.00    +0.046 A 
ATOM     13  C   UNL     1      17.893   5.874  19.561  0.00  0.00    +0.064 A 
ATOM     16  C   UNL     1      19.712   6.718  22.623  0.00  0.00    +0.066 C 
ATOM     18  C   UNL     1      16.826   5.828  18.545  0.00  0.00    +0.068 C 
ENDROOT
BRANCH   3  15
ATOM     15  C   UNL     1      21.010   4.897  20.615  0.00  0.00    +0.066 A 
ATOM     17  C   UNL     1      23.546   3.774  20.908  0.00  0.00    -0.042 A 
ATOM     19  C   UNL     1      22.145   5.650  20.315  0.00  0.00    +0.028 A 
ATOM     20  C   UNL     1      21.143   3.581  21.061  0.00  0.00    +0.028 A 
ATOM     22  C   UNL     1      23.413   5.089  20.463  0.00  0.00    +0.006 A 
ATOM     23  C   UNL     1      22.411   3.021  21.208  0.00  0.00    +0.006 A 
BRANCH  17  14
ATOM     14  C   UNL     1      24.903   3.174  21.066  0.00  0.00    -0.013 C 
ATOM     24  C   UNL     1      24.823   1.622  21.208  0.00  0.00    +0.015 C 
ATOM     25  C   UNL     1      25.621   3.725  22.337  0.00  0.00    +0.015 C 
ATOM     26  C   UNL     1      25.894   3.434  19.882  0.00  0.00    +0.015 C 
ENDBRANCH  17  14
ENDBRANCH   3  15
BRANCH   9   6
ATOM      6  C   UNL     1      16.803   7.460  21.344  0.00  0.00    +0.047 C 
ATOM      7  C   UNL     1      16.495   8.689  20.462  0.00  0.00    +0.039 C 
ATOM      8  C   UNL     1      14.988   8.937  20.601  0.00  0.00    +0.097 C 
ATOM     10  C   UNL     1      15.459   6.801  21.459  0.00  0.00    -0.021 C 
ATOM     11  C   UNL     1      14.474   7.612  21.057  0.00  0.00    -0.009 C 
BRANCH   8   4
ATOM      1  O   UNL     1      12.504  10.347  20.902  0.00  0.00    -0.267 OA
ATOM      4  N   UNL     1      14.679   9.931  21.595  0.00  0.00    -0.303 N 
ATOM     21  C   UNL     1      13.442  10.563  21.664  0.00  0.00    +0.280 C 
ATOM     31  H   UNL     1      15.405  10.210  22.250  0.00  0.00    +0.150 HD
BRANCH  21  27
ATOM      2  O   UNL     1      12.310  11.399  23.655  0.00  0.00    -0.458 OA
ATOM     27  C   UNL     1      13.290  11.585  22.732  0.00  0.00    +0.189 A 
ATOM     28  C   UNL     1      13.982  12.747  22.988  0.00  0.00    +0.054 A 
ATOM     29  C   UNL     1      13.389  13.310  24.142  0.00  0.00    +0.042 A 
ATOM     30  C   UNL     1      12.378  12.453  24.510  0.00  0.00    +0.196 A 
ENDBRANCH  21  27
ENDBRANCH   8   4
ENDBRANCH   9   6
TORSDOF 5
ENDMDL
MODEL 8
REMARK VINA RESULT:      -7.2     31.032     34.872
REMARK  Name = 40777720
REMARK  10 active torsions:
REMARK  status: ('A' for Active; 'I' for Inactive)
REMARK    1  A    between atoms: N_3  and  C_15
REMARK    2  A    between atoms: N_4  and  C_8
REMARK    3  A    between atoms: C_6  and  C_9
REMARK    4  A    between atoms: C_12  and  C_16
REMARK    5  A    between atoms: C_13  and  C_18
REMARK    6  A    between atoms: C_14  and  C_17
REMARK    7  A    between atoms: C_14  and  C_24
REMARK    8  A    between atoms: C_14  and  C_25
REMARK    9  A    between atoms: C_14  and  C_26
REMARK   10  A    between atoms: C_21  and  C_27
REMARK                            x       y       z     vdW  Elec       q    Type
REMARK                         _______ _______ _______ _____ _____    ______ ____
ROOT
ATOM      3  N   UNL     1      17.317   7.746  21.066  0.00  0.00    -0.236 N 
ATOM      5  N   UNL     1      18.037   8.505  21.910  0.00  0.00    -0.171 NA
ATOM      9  C   UNL     1      19.348   6.976  20.833  0.00  0.00    +0.003 A 
ATOM     12  C   UNL     1      18.055   6.814  20.398  0.00  0.00    +0.046 A 
ATOM     13  C   UNL     1      19.277   8.031  21.762  0.00  0.00    +0.064 A 
ATOM     16  C   UNL     1      17.475   5.869  19.421  0.00  0.00    +0.066 C 
ATOM     18  C   UNL     1      20.378   8.623  22.542  0.00  0.00    +0.068 C 
ENDROOT
BRANCH   3  15
ATOM     15  C   UNL     1      15.943   7.957  20.947  0.00  0.00    +0.066 A 
ATOM     17  C   UNL     1      13.197   8.385  20.714  0.00  0.00    -0.042 A 
ATOM     19  C   UNL     1      15.434   8.636  19.840  0.00  0.00    +0.028 A 
ATOM     20  C   UNL     1      15.078   7.491  21.938  0.00  0.00    +0.028 A 
ATOM     22  C   UNL     1      14.061   8.850  19.723  0.00  0.00    +0.006 A 
ATOM     23  C   UNL     1      13.705   7.705  21.820  0.00  0.00    +0.006 A 
BRANCH  17  14
ATOM     14  C   UNL     1      11.728   8.614  20.589  0.00  0.00    -0.013 C 
ATOM     24  C   UNL     1      10.916   7.452  21.242  0.00  0.00    +0.015 C 
ATOM     25  C   UNL     1      11.295   8.705  19.093  0.00  0.00    +0.015 C 
ATOM     26  C   UNL     1      11.193   9.924  21.257  0.00  0.00    +0.015 C 
ENDBRANCH  17  14
ENDBRANCH   3  15
BRANCH   9   6
ATOM      6  C   UNL     1      20.569   6.194  20.407  0.00  0.00    +0.047 C 
ATOM      7  C   UNL     1      21.791   6.427  21.320  0.00  0.00    +0.039 C 
ATOM      8  C   UNL     1      22.541   5.090  21.366  0.00  0.00    +0.097 C 
ATOM     10  C   UNL     1      20.410   4.702  20.456  0.00  0.00    -0.021 C 
ATOM     11  C   UNL     1      21.488   4.106  20.976  0.00  0.00    -0.009 C 
BRANCH   8   4
ATOM      1  O   UNL     1      25.132   3.927  21.793  0.00  0.00    -0.267 OA
ATOM      4  N   UNL     1      23.622   5.027  20.418  0.00  0.00    -0.303 N 
ATOM     21  C   UNL     1      24.847   4.440  20.715  0.00  0.00    +0.280 C 
ATOM     31  H   UNL     1      23.499   5.460  19.506  0.00  0.00    +0.150 HD
BRANCH  21  27
ATOM      2  O   UNL     1      26.087   5.666  19.011  0.00  0.00    -0.458 OA
ATOM     27  C   UNL     1      25.868   4.479  19.637  0.00  0.00    +0.189 A 
ATOM     28  C   UNL     1      26.682   3.500  19.115  0.00  0.00    +0.054 A 
ATOM     29  C   UNL     1      27.451   4.126  18.106  0.00  0.00    +0.042 A 
ATOM     30  C   UNL     1      27.053   5.443  18.082  0.00  0.00    +0.196 A 
ENDBRANCH  21  27
ENDBRANCH   8   4
ENDBRANCH   9   6
TORSDOF 5
ENDMDL
MODEL 9
REMARK VINA RESULT:      -7.0     22.155     25.402
REMARK  Name = 40777720
REMARK  10 active torsions:
REMARK  status: ('A' for Active; 'I' for Inactive)
REMARK    1  A    between atoms: N_3  and  C_15
REMARK    2  A    between atoms: N_4  and  C_8
REMARK    3  A    between atoms: C_6  and  C_9
REMARK    4  A    between atoms: C_12  and  C_16
REMARK    5  A    between atoms: C_13  and  C_18
REMARK    6  A    between atoms: C_14  and  C_17
REMARK    7  A    between atoms: C_14  and  C_24
REMARK    8  A    between atoms: C_14  and  C_25
REMARK    9  A    between atoms: C_14  and  C_26
REMARK   10  A    between atoms: C_21  and  C_27
REMARK                            x       y       z     vdW  Elec       q    Type
REMARK                         _______ _______ _______ _____ _____    ______ ____
ROOT
ATOM      3  N   UNL     1      -6.695  -8.722   8.426  0.00  0.00    -0.236 N 
ATOM      5  N   UNL     1      -7.427  -7.639   8.741  0.00  0.00    -0.171 NA
ATOM      9  C   UNL     1      -7.962  -8.440   6.670  0.00  0.00    +0.003 A 
ATOM     12  C   UNL     1      -6.977  -9.239   7.196  0.00  0.00    +0.046 A 
ATOM     13  C   UNL     1      -8.200  -7.472   7.665  0.00  0.00    +0.064 A 
ATOM     16  C   UNL     1      -6.296 -10.426   6.640  0.00  0.00    +0.066 C 
ATOM     18  C   UNL     1      -9.163  -6.358   7.629  0.00  0.00    +0.068 C 
ENDROOT
BRANCH   3  15
ATOM     15  C   UNL     1      -5.752  -9.208   9.333  0.00  0.00    +0.066 A 
ATOM     17  C   UNL     1      -3.868 -10.185  11.142  0.00  0.00    -0.042 A 
ATOM     19  C   UNL     1      -4.411  -8.842   9.210  0.00  0.00    +0.028 A 
ATOM     20  C   UNL     1      -6.150 -10.062  10.361  0.00  0.00    +0.028 A 
ATOM     22  C   UNL     1      -3.470  -9.331  10.115  0.00  0.00    +0.006 A 
ATOM     23  C   UNL     1      -5.208 -10.550  11.266  0.00  0.00    +0.006 A 
BRANCH  17  14
ATOM     14  C   UNL     1      -2.860 -10.708  12.110  0.00  0.00    -0.013 C 
ATOM     24  C   UNL     1      -1.468 -10.037  11.895  0.00  0.00    +0.015 C 
ATOM     25  C   UNL     1      -2.669 -12.248  11.951  0.00  0.00    +0.015 C 
ATOM     26  C   UNL     1      -3.201 -10.486  13.621  0.00  0.00    +0.015 C 
ENDBRANCH  17  14
ENDBRANCH   3  15
BRANCH   9   6
ATOM      6  C   UNL     1      -8.638  -8.573   5.324  0.00  0.00    +0.047 C 
ATOM      7  C   UNL     1      -7.697  -8.279   4.137  0.00  0.00    +0.039 C 
ATOM      8  C   UNL     1      -8.139  -9.220   3.010  0.00  0.00    +0.097 C 
ATOM     10  C   UNL     1      -9.138  -9.952   5.006  0.00  0.00    -0.021 C 
ATOM     11  C   UNL     1      -8.867 -10.298   3.742  0.00  0.00    -0.009 C 
BRANCH   8   4
ATOM      1  O   UNL     1      -8.145  -9.520   0.153  0.00  0.00    -0.267 OA
ATOM      4  N   UNL     1      -9.038  -8.589   2.081  0.00  0.00    -0.303 N 
ATOM     21  C   UNL     1      -8.966  -8.795   0.708  0.00  0.00    +0.280 C 
ATOM     31  H   UNL     1      -9.733  -7.937   2.438  0.00  0.00    +0.150 HD
BRANCH  21  27
ATOM      2  O   UNL     1     -10.554  -6.965   0.437  0.00  0.00    -0.458 OA
ATOM     27  C   UNL     1      -9.951  -8.049  -0.118  0.00  0.00    +0.189 A 
ATOM     28  C   UNL     1     -10.400  -8.247  -1.403  0.00  0.00    +0.054 A 
ATOM     29  C   UNL     1     -11.338  -7.218  -1.654  0.00  0.00    +0.042 A 
ATOM     30  C   UNL     1     -11.396  -6.464  -0.505  0.00  0.00    +0.196 A 
ENDBRANCH  21  27
ENDBRANCH   8   4
ENDBRANCH   9   6
TORSDOF 5
ENDMDL
MODEL 10
REMARK VINA RESULT:      -6.9     28.184     32.150
REMARK  Name = 40777720
REMARK  10 active torsions:
REMARK  status: ('A' for Active; 'I' for Inactive)
REMARK    1  A    between atoms: N_3  and  C_15
REMARK    2  A    between atoms: N_4  and  C_8
REMARK    3  A    between atoms: C_6  and  C_9
REMARK    4  A    between atoms: C_12  and  C_16
REMARK    5  A    between atoms: C_13  and  C_18
REMARK    6  A    between atoms: C_14  and  C_17
REMARK    7  A    between atoms: C_14  and  C_24
REMARK    8  A    between atoms: C_14  and  C_25
REMARK    9  A    between atoms: C_14  and  C_26
REMARK   10  A    between atoms: C_21  and  C_27
REMARK                            x       y       z     vdW  Elec       q    Type
REMARK                         _______ _______ _______ _____ _____    ______ ____
ROOT
ATOM      3  N   UNL     1      10.551   5.294   3.306  0.00  0.00    -0.236 N 
ATOM      5  N   UNL     1      10.471   4.396   4.304  0.00  0.00    -0.171 NA
ATOM      9  C   UNL     1       9.870   6.486   5.005  0.00  0.00    +0.003 A 
ATOM     12  C   UNL     1      10.203   6.559   3.674  0.00  0.00    +0.046 A 
ATOM     13  C   UNL     1      10.053   5.130   5.338  0.00  0.00    +0.064 A 
ATOM     16  C   UNL     1      10.217   7.707   2.744  0.00  0.00    +0.066 C 
ATOM     18  C   UNL     1       9.842   4.486   6.647  0.00  0.00    +0.068 C 
ENDROOT
BRANCH   3  15
ATOM     15  C   UNL     1      10.964   4.883   2.038  0.00  0.00    +0.066 A 
ATOM     17  C   UNL     1      11.790   4.054  -0.494  0.00  0.00    -0.042 A 
ATOM     19  C   UNL     1      10.076   4.934   0.963  0.00  0.00    +0.028 A 
ATOM     20  C   UNL     1      12.266   4.417   1.846  0.00  0.00    +0.028 A 
ATOM     22  C   UNL     1      10.489   4.520  -0.302  0.00  0.00    +0.006 A 
ATOM     23  C   UNL     1      12.678   4.004   0.580  0.00  0.00    +0.006 A 
BRANCH  17  14
ATOM     14  C   UNL     1      12.231   3.611  -1.848  0.00  0.00    -0.013 C 
ATOM     24  C   UNL     1      13.737   3.941  -2.089  0.00  0.00    +0.015 C 
ATOM     25  C   UNL     1      11.410   4.319  -2.971  0.00  0.00    +0.015 C 
ATOM     26  C   UNL     1      12.089   2.078  -2.134  0.00  0.00    +0.015 C 
ENDBRANCH  17  14
ENDBRANCH   3  15
BRANCH   9   6
ATOM      6  C   UNL     1       9.411   7.610   5.905  0.00  0.00    +0.047 C 
ATOM      7  C   UNL     1      10.459   8.731   6.064  0.00  0.00    +0.039 C 
ATOM      8  C   UNL     1       9.663  10.035   6.185  0.00  0.00    +0.097 C 
ATOM     10  C   UNL     1       8.209   8.360   5.409  0.00  0.00    -0.021 C 
ATOM     11  C   UNL     1       8.350   9.681   5.568  0.00  0.00    -0.009 C 
BRANCH   8   4
ATOM      1  O   UNL     1      11.418  11.635   7.800  0.00  0.00    -0.267 OA
ATOM      4  N   UNL     1       9.450  10.433   7.551  0.00  0.00    -0.303 N 
ATOM     21  C   UNL     1      10.360  11.212   8.257  0.00  0.00    +0.280 C 
ATOM     31  H   UNL     1       8.619  10.100   8.034  0.00  0.00    +0.150 HD
BRANCH  21  27
ATOM      2  O   UNL     1      11.021  11.729  10.546  0.00  0.00    -0.458 OA
ATOM     27  C   UNL     1      10.006  11.514   9.668  0.00  0.00    +0.189 A 
ATOM     28  C   UNL     1       8.789  11.626  10.299  0.00  0.00    +0.054 A 
ATOM     29  C   UNL     1       9.075  11.930  11.651  0.00  0.00    +0.042 A 
ATOM     30  C   UNL     1      10.446  11.982  11.750  0.00  0.00    +0.196 A 
ENDBRANCH  21  27
ENDBRANCH   8   4
ENDBRANCH   9   6
TORSDOF 5
ENDMDL
