MODEL 1
REMARK VINA RESULT:      -6.6      0.000      0.000
REMARK  Name = 11865733
REMARK  11 active torsions:
REMARK  status: ('A' for Active; 'I' for Inactive)
REMARK    1  A    between atoms: S_1  and  C_18
REMARK    2  A    between atoms: S_1  and  C_26
REMARK    3  A    between atoms: N_7  and  C_11
REMARK    4  A    between atoms: N_8  and  C_17
REMARK    5  A    between atoms: N_9  and  C_23
REMARK    6  A    between atoms: C_12  and  C_15
REMARK    7  A    between atoms: C_16  and  C_18
REMARK    8  A    between atoms: C_17  and  C_20
REMARK    9  A    between atoms: C_17  and  C_21
REMARK   10  A    between atoms: C_20  and  C_22
REMARK   11  A    between atoms: C_23  and  C_29
REMARK                            x       y       z     vdW  Elec       q    Type
REMARK                         _______ _______ _______ _____ _____    ______ ____
ROOT
ATOM      3  O   UNL     1      11.445  10.705  23.215  0.00  0.00    -0.275 OA
ATOM      6  N   UNL     1      13.651  11.215  22.733  0.00  0.00    -0.287 N 
ATOM     11  C   UNL     1      15.881  11.425  21.944  0.00  0.00    +0.094 C 
ATOM     12  C   UNL     1      13.671  10.609  21.411  0.00  0.00    +0.164 C 
ATOM     13  C   UNL     1      14.959  11.111  20.763  0.00  0.00    +0.055 C 
ATOM     14  C   UNL     1      14.917  11.882  23.034  0.00  0.00    +0.131 C 
ATOM     16  C   UNL     1      12.497  11.280  23.499  0.00  0.00    +0.226 C 
ENDROOT
BRANCH  11   7
ATOM      4  O   UNL     1      18.308  10.433  20.739  0.00  0.00    -0.253 OA
ATOM      7  N   UNL     1      16.644  10.273  22.351  0.00  0.00    -0.295 N 
ATOM      9  N   UNL     1      18.345   8.721  22.306  0.00  0.00    -0.296 N 
ATOM     19  C   UNL     1      17.812   9.861  21.709  0.00  0.00    +0.300 C 
ATOM     32  H   UNL     1      16.284   9.694  23.104  0.00  0.00    +0.151 HD
ATOM     34  H   UNL     1      17.875   8.329  23.115  0.00  0.00    +0.151 HD
BRANCH   9  23
ATOM     23  C   UNL     1      19.554   8.085  21.837  0.00  0.00    +0.132 C 
BRANCH  23  29
ATOM     29  C   UNL     1      19.190   6.926  20.969  0.00  0.00    -0.016 C 
ATOM     31  C   UNL     1      17.936   6.489  20.797  0.00  0.00    +0.005 C 
ENDBRANCH  23  29
ENDBRANCH   9  23
ENDBRANCH  11   7
BRANCH  12  15
ATOM      2  O   UNL     1      14.438   8.550  22.343  0.00  0.00    -0.274 OA
ATOM      8  N   UNL     1      12.765   8.500  20.726  0.00  0.00    -0.302 N 
ATOM     15  C   UNL     1      13.677   9.117  21.565  0.00  0.00    +0.234 C 
ATOM     33  H   UNL     1      12.167   9.073  20.135  0.00  0.00    +0.150 HD
BRANCH   8  17
ATOM     17  C   UNL     1      12.591   7.067  20.665  0.00  0.00    +0.163 C 
BRANCH  17  21
ATOM      5  O   UNL     1      10.501   7.601  21.785  0.00  0.00    -0.274 OA
ATOM     10  N   UNL     1      10.946   5.406  21.277  0.00  0.00    -0.328 N 
ATOM     21  C   UNL     1      11.252   6.750  21.315  0.00  0.00    +0.231 C 
ATOM     35  H   UNL     1      10.074   5.059  21.665  0.00  0.00    +0.145 HD
ATOM     36  H   UNL     1      11.564   4.716  20.864  0.00  0.00    +0.145 HD
ENDBRANCH  17  21
BRANCH  17  20
ATOM     20  C   UNL     1      12.623   6.540  19.226  0.00  0.00    +0.067 C 
BRANCH  20  22
ATOM     22  C   UNL     1      12.799   7.639  18.206  0.00  0.00    -0.045 A 
ATOM     24  C   UNL     1      11.682   8.196  17.581  0.00  0.00    +0.004 A 
ATOM     25  C   UNL     1      14.077   8.100  17.890  0.00  0.00    +0.004 A 
ATOM     27  C   UNL     1      11.845   9.212  16.638  0.00  0.00    +0.000 A 
ATOM     28  C   UNL     1      14.239   9.116  16.947  0.00  0.00    +0.000 A 
ATOM     30  C   UNL     1      13.123   9.671  16.322  0.00  0.00    +0.000 A 
ENDBRANCH  20  22
ENDBRANCH  17  20
ENDBRANCH   8  17
ENDBRANCH  12  15
BRANCH  16  18
ATOM     18  C   UNL     1      12.595  12.112  24.754  0.00  0.00    +0.164 C 
BRANCH  18   1
ATOM      1  S   UNL     1      10.924  12.378  25.365  0.00  0.00    -0.155 S 
ATOM     26  C   UNL     1      11.034  14.150  25.717  0.00  0.00    +0.085 C 
ENDBRANCH  18   1
ENDBRANCH  16  18
TORSDOF 10
ENDMDL
MODEL 2
REMARK VINA RESULT:      -6.3      2.868      6.763
REMARK  Name = 11865733
REMARK  11 active torsions:
REMARK  status: ('A' for Active; 'I' for Inactive)
REMARK    1  A    between atoms: S_1  and  C_18
REMARK    2  A    between atoms: S_1  and  C_26
REMARK    3  A    between atoms: N_7  and  C_11
REMARK    4  A    between atoms: N_8  and  C_17
REMARK    5  A    between atoms: N_9  and  C_23
REMARK    6  A    between atoms: C_12  and  C_15
REMARK    7  A    between atoms: C_16  and  C_18
REMARK    8  A    between atoms: C_17  and  C_20
REMARK    9  A    between atoms: C_17  and  C_21
REMARK   10  A    between atoms: C_20  and  C_22
REMARK   11  A    between atoms: C_23  and  C_29
REMARK                            x       y       z     vdW  Elec       q    Type
REMARK                         _______ _______ _______ _____ _____    ______ ____
ROOT
ATOM      3  O   UNL     1      12.653   6.950  21.397  0.00  0.00    -0.275 OA
ATOM      6  N   UNL     1      12.167   7.910  19.348  0.00  0.00    -0.287 N 
ATOM     11  C   UNL     1      12.086   8.828  17.159  0.00  0.00    +0.094 C 
ATOM     12  C   UNL     1      13.326   7.381  18.645  0.00  0.00    +0.164 C 
ATOM     13  C   UNL     1      13.041   7.631  17.165  0.00  0.00    +0.055 C 
ATOM     14  C   UNL     1      11.286   8.650  18.446  0.00  0.00    +0.131 C 
ATOM     16  C   UNL     1      11.887   7.577  20.665  0.00  0.00    +0.226 C 
ENDROOT
BRANCH  11   7
ATOM      4  O   UNL     1      13.320  10.091  14.876  0.00  0.00    -0.253 OA
ATOM      7  N   UNL     1      12.796  10.081  17.138  0.00  0.00    -0.295 N 
ATOM      9  N   UNL     1      13.990  11.838  16.248  0.00  0.00    -0.296 N 
ATOM     19  C   UNL     1      13.365  10.621  15.985  0.00  0.00    +0.300 C 
ATOM     32  H   UNL     1      12.945  10.569  18.017  0.00  0.00    +0.151 HD
ATOM     34  H   UNL     1      13.960  12.207  17.193  0.00  0.00    +0.151 HD
BRANCH   9  23
ATOM     23  C   UNL     1      14.659  12.610  15.228  0.00  0.00    +0.132 C 
BRANCH  23  29
ATOM     29  C   UNL     1      13.714  13.636  14.696  0.00  0.00    -0.016 C 
ATOM     31  C   UNL     1      12.996  13.479  13.577  0.00  0.00    +0.005 C 
ENDBRANCH  23  29
ENDBRANCH   9  23
ENDBRANCH  11   7
BRANCH  12  15
ATOM      2  O   UNL     1      14.914   9.162  18.563  0.00  0.00    -0.274 OA
ATOM      8  N   UNL     1      15.183   7.485  20.154  0.00  0.00    -0.302 N 
ATOM     15  C   UNL     1      14.547   8.123  19.103  0.00  0.00    +0.234 C 
ATOM     33  H   UNL     1      14.777   6.636  20.539  0.00  0.00    +0.150 HD
BRANCH   8  17
ATOM     17  C   UNL     1      16.395   7.983  20.763  0.00  0.00    +0.163 C 
BRANCH  17  21
ATOM      5  O   UNL     1      16.417  10.128  21.906  0.00  0.00    -0.274 OA
ATOM     10  N   UNL     1      15.023   8.480  22.690  0.00  0.00    -0.328 N 
ATOM     21  C   UNL     1      15.981   8.982  21.834  0.00  0.00    +0.231 C 
ATOM     35  H   UNL     1      14.649   9.047  23.443  0.00  0.00    +0.145 HD
ATOM     36  H   UNL     1      14.654   7.538  22.604  0.00  0.00    +0.145 HD
ENDBRANCH  17  21
BRANCH  17  20
ATOM     20  C   UNL     1      17.238   6.861  21.379  0.00  0.00    +0.067 C 
BRANCH  20  22
ATOM     22  C   UNL     1      18.720   7.062  21.171  0.00  0.00    -0.045 A 
ATOM     24  C   UNL     1      19.505   6.015  20.686  0.00  0.00    +0.004 A 
ATOM     25  C   UNL     1      19.304   8.295  21.463  0.00  0.00    +0.004 A 
ATOM     27  C   UNL     1      20.874   6.202  20.495  0.00  0.00    +0.000 A 
ATOM     28  C   UNL     1      20.673   8.481  21.271  0.00  0.00    +0.000 A 
ATOM     30  C   UNL     1      21.458   7.435  20.787  0.00  0.00    +0.000 A 
ENDBRANCH  20  22
ENDBRANCH  17  20
ENDBRANCH   8  17
ENDBRANCH  12  15
BRANCH  16  18
ATOM     18  C   UNL     1      10.550   8.045  21.184  0.00  0.00    +0.164 C 
BRANCH  18   1
ATOM      1  S   UNL     1      10.854   9.067  22.632  0.00  0.00    -0.155 S 
ATOM     26  C   UNL     1      11.406  10.575  21.799  0.00  0.00    +0.085 C 
ENDBRANCH  18   1
ENDBRANCH  16  18
TORSDOF 10
ENDMDL
MODEL 3
REMARK VINA RESULT:      -6.1     26.764     29.278
REMARK  Name = 11865733
REMARK  11 active torsions:
REMARK  status: ('A' for Active; 'I' for Inactive)
REMARK    1  A    between atoms: S_1  and  C_18
REMARK    2  A    between atoms: S_1  and  C_26
REMARK    3  A    between atoms: N_7  and  C_11
REMARK    4  A    between atoms: N_8  and  C_17
REMARK    5  A    between atoms: N_9  and  C_23
REMARK    6  A    between atoms: C_12  and  C_15
REMARK    7  A    between atoms: C_16  and  C_18
REMARK    8  A    between atoms: C_17  and  C_20
REMARK    9  A    between atoms: C_17  and  C_21
REMARK   10  A    between atoms: C_20  and  C_22
REMARK   11  A    between atoms: C_23  and  C_29
REMARK                            x       y       z     vdW  Elec       q    Type
REMARK                         _______ _______ _______ _____ _____    ______ ____
ROOT
ATOM      3  O   UNL     1      -9.942  -9.507  17.396  0.00  0.00    -0.275 OA
ATOM      6  N   UNL     1      -9.286 -10.080  15.251  0.00  0.00    -0.287 N 
ATOM     11  C   UNL     1      -8.266 -10.836  13.245  0.00  0.00    +0.094 C 
ATOM     12  C   UNL     1      -8.332 -11.105  15.645  0.00  0.00    +0.164 C 
ATOM     13  C   UNL     1      -8.001 -11.855  14.356  0.00  0.00    +0.055 C 
ATOM     14  C   UNL     1      -9.416  -9.999  13.797  0.00  0.00    +0.131 C 
ATOM     16  C   UNL     1     -10.079  -9.415  16.175  0.00  0.00    +0.226 C 
ENDROOT
BRANCH  11   7
ATOM      4  O   UNL     1      -7.441  -9.803  10.679  0.00  0.00    -0.253 OA
ATOM      7  N   UNL     1      -7.104 -10.031  12.965  0.00  0.00    -0.295 N 
ATOM      9  N   UNL     1      -5.606  -8.820  11.704  0.00  0.00    -0.296 N 
ATOM     19  C   UNL     1      -6.778  -9.572  11.690  0.00  0.00    +0.300 C 
ATOM     32  H   UNL     1      -6.455  -9.838  13.722  0.00  0.00    +0.151 HD
ATOM     34  H   UNL     1      -5.135  -8.667  12.590  0.00  0.00    +0.151 HD
BRANCH   9  23
ATOM     23  C   UNL     1      -5.044  -8.225  10.514  0.00  0.00    +0.132 C 
BRANCH  23  29
ATOM     29  C   UNL     1      -4.050  -9.168   9.921  0.00  0.00    -0.016 C 
ATOM     31  C   UNL     1      -2.828  -9.377  10.425  0.00  0.00    +0.005 C 
ENDBRANCH  23  29
ENDBRANCH   9  23
ENDBRANCH  11   7
BRANCH  12  15
ATOM      2  O   UNL     1      -6.781  -9.306  15.885  0.00  0.00    -0.274 OA
ATOM      8  N   UNL     1      -6.451 -11.250  17.120  0.00  0.00    -0.302 N 
ATOM     15  C   UNL     1      -7.118 -10.438  16.220  0.00  0.00    +0.234 C 
ATOM     33  H   UNL     1      -6.833 -12.166  17.341  0.00  0.00    +0.150 HD
BRANCH   8  17
ATOM     17  C   UNL     1      -5.238 -10.851  17.798  0.00  0.00    +0.163 C 
BRANCH  17  21
ATOM      5  O   UNL     1      -4.897 -11.701  20.049  0.00  0.00    -0.274 OA
ATOM     10  N   UNL     1      -6.477 -10.067  19.719  0.00  0.00    -0.328 N 
ATOM     21  C   UNL     1      -5.507 -10.949  19.293  0.00  0.00    +0.231 C 
ATOM     35  H   UNL     1      -6.744 -10.020  20.697  0.00  0.00    +0.145 HD
ATOM     36  H   UNL     1      -6.957  -9.434  19.087  0.00  0.00    +0.145 HD
ENDBRANCH  17  21
BRANCH  17  20
ATOM     20  C   UNL     1      -4.043 -11.730  17.412  0.00  0.00    +0.067 C 
BRANCH  20  22
ATOM     22  C   UNL     1      -3.292 -11.201  16.214  0.00  0.00    -0.045 A 
ATOM     24  C   UNL     1      -3.903 -11.188  14.959  0.00  0.00    +0.004 A 
ATOM     25  C   UNL     1      -1.990 -10.725  16.361  0.00  0.00    +0.004 A 
ATOM     27  C   UNL     1      -3.209 -10.699  13.852  0.00  0.00    +0.000 A 
ATOM     28  C   UNL     1      -1.296 -10.237  15.253  0.00  0.00    +0.000 A 
ATOM     30  C   UNL     1      -1.906 -10.224  13.999  0.00  0.00    +0.000 A 
ENDBRANCH  20  22
ENDBRANCH  17  20
ENDBRANCH   8  17
ENDBRANCH  12  15
BRANCH  16  18
ATOM     18  C   UNL     1     -11.153  -8.529  15.593  0.00  0.00    +0.164 C 
BRANCH  18   1
ATOM      1  S   UNL     1     -10.567  -6.831  15.683  0.00  0.00    -0.155 S 
ATOM     26  C   UNL     1     -12.151  -5.978  15.487  0.00  0.00    +0.085 C 
ENDBRANCH  18   1
ENDBRANCH  16  18
TORSDOF 10
ENDMDL
MODEL 4
REMARK VINA RESULT:      -6.1      2.020      3.337
REMARK  Name = 11865733
REMARK  11 active torsions:
REMARK  status: ('A' for Active; 'I' for Inactive)
REMARK    1  A    between atoms: S_1  and  C_18
REMARK    2  A    between atoms: S_1  and  C_26
REMARK    3  A    between atoms: N_7  and  C_11
REMARK    4  A    between atoms: N_8  and  C_17
REMARK    5  A    between atoms: N_9  and  C_23
REMARK    6  A    between atoms: C_12  and  C_15
REMARK    7  A    between atoms: C_16  and  C_18
REMARK    8  A    between atoms: C_17  and  C_20
REMARK    9  A    between atoms: C_17  and  C_21
REMARK   10  A    between atoms: C_20  and  C_22
REMARK   11  A    between atoms: C_23  and  C_29
REMARK                            x       y       z     vdW  Elec       q    Type
REMARK                         _______ _______ _______ _____ _____    ______ ____
ROOT
ATOM      3  O   UNL     1      11.202  11.418  21.851  0.00  0.00    -0.275 OA
ATOM      6  N   UNL     1      13.375  12.111  21.454  0.00  0.00    -0.287 N 
ATOM     11  C   UNL     1      15.634  12.462  20.811  0.00  0.00    +0.094 C 
ATOM     12  C   UNL     1      13.590  11.295  20.269  0.00  0.00    +0.164 C 
ATOM     13  C   UNL     1      14.872  11.837  19.640  0.00  0.00    +0.055 C 
ATOM     14  C   UNL     1      14.524  12.973  21.725  0.00  0.00    +0.131 C 
ATOM     16  C   UNL     1      12.151  12.160  22.105  0.00  0.00    +0.226 C 
ENDROOT
BRANCH  11   7
ATOM      4  O   UNL     1      18.242  12.933  21.954  0.00  0.00    -0.253 OA
ATOM      7  N   UNL     1      16.477  11.501  21.478  0.00  0.00    -0.295 N 
ATOM      9  N   UNL     1      18.328  10.703  22.590  0.00  0.00    -0.296 N 
ATOM     19  C   UNL     1      17.730  11.815  22.003  0.00  0.00    +0.300 C 
ATOM     32  H   UNL     1      16.172  10.533  21.514  0.00  0.00    +0.151 HD
ATOM     34  H   UNL     1      17.821   9.824  22.598  0.00  0.00    +0.151 HD
BRANCH   9  23
ATOM     23  C   UNL     1      19.631  10.751  23.210  0.00  0.00    +0.132 C 
BRANCH  23  29
ATOM     29  C   UNL     1      20.676  10.528  22.167  0.00  0.00    -0.016 C 
ATOM     31  C   UNL     1      20.632   9.536  21.269  0.00  0.00    +0.005 C 
ENDBRANCH  23  29
ENDBRANCH   9  23
ENDBRANCH  11   7
BRANCH  12  15
ATOM      2  O   UNL     1      13.901   9.549  21.866  0.00  0.00    -0.274 OA
ATOM      8  N   UNL     1      13.716   8.995  19.614  0.00  0.00    -0.302 N 
ATOM     15  C   UNL     1      13.745   9.864  20.690  0.00  0.00    +0.234 C 
ATOM     33  H   UNL     1      13.559   9.365  18.680  0.00  0.00    +0.150 HD
BRANCH   8  17
ATOM     17  C   UNL     1      13.868   7.564  19.749  0.00  0.00    +0.163 C 
BRANCH  17  21
ATOM      5  O   UNL     1      11.765   6.494  20.334  0.00  0.00    -0.274 OA
ATOM     10  N   UNL     1      12.177   6.973  18.126  0.00  0.00    -0.328 N 
ATOM     21  C   UNL     1      12.509   6.940  19.464  0.00  0.00    +0.231 C 
ATOM     35  H   UNL     1      11.291   6.601  17.800  0.00  0.00    +0.145 HD
ATOM     36  H   UNL     1      12.791   7.367  17.420  0.00  0.00    +0.145 HD
ENDBRANCH  17  21
BRANCH  17  20
ATOM     20  C   UNL     1      14.924   7.000  18.792  0.00  0.00    +0.067 C 
BRANCH  20  22
ATOM     22  C   UNL     1      16.249   6.747  19.469  0.00  0.00    -0.045 A 
ATOM     24  C   UNL     1      16.588   7.453  20.624  0.00  0.00    +0.004 A 
ATOM     25  C   UNL     1      17.134   5.807  18.941  0.00  0.00    +0.004 A 
ATOM     27  C   UNL     1      17.813   7.218  21.250  0.00  0.00    +0.000 A 
ATOM     28  C   UNL     1      18.359   5.574  19.567  0.00  0.00    +0.000 A 
ATOM     30  C   UNL     1      18.698   6.279  20.721  0.00  0.00    +0.000 A 
ENDBRANCH  20  22
ENDBRANCH  17  20
ENDBRANCH   8  17
ENDBRANCH  12  15
BRANCH  16  18
ATOM     18  C   UNL     1      12.035  13.200  23.193  0.00  0.00    +0.164 C 
BRANCH  18   1
ATOM      1  S   UNL     1      12.164  12.353  24.774  0.00  0.00    -0.155 S 
ATOM     26  C   UNL     1      10.622  12.928  25.526  0.00  0.00    +0.085 C 
ENDBRANCH  18   1
ENDBRANCH  16  18
TORSDOF 10
ENDMDL
MODEL 5
REMARK VINA RESULT:      -6.0     14.382     18.040
REMARK  Name = 11865733
REMARK  11 active torsions:
REMARK  status: ('A' for Active; 'I' for Inactive)
REMARK    1  A    between atoms: S_1  and  C_18
REMARK    2  A    between atoms: S_1  and  C_26
REMARK    3  A    between atoms: N_7  and  C_11
REMARK    4  A    between atoms: N_8  and  C_17
REMARK    5  A    between atoms: N_9  and  C_23
REMARK    6  A    between atoms: C_12  and  C_15
REMARK    7  A    between atoms: C_16  and  C_18
REMARK    8  A    between atoms: C_17  and  C_20
REMARK    9  A    between atoms: C_17  and  C_21
REMARK   10  A    between atoms: C_20  and  C_22
REMARK   11  A    between atoms: C_23  and  C_29
REMARK                            x       y       z     vdW  Elec       q    Type
REMARK                         _______ _______ _______ _____ _____    ______ ____
ROOT
ATOM      3  O   UNL     1      13.994   7.399   1.570  0.00  0.00    -0.275 OA
ATOM      6  N   UNL     1      12.353   6.006   2.422  0.00  0.00    -0.287 N 
ATOM     11  C   UNL     1      10.515   4.937   3.480  0.00  0.00    +0.094 C 
ATOM     12  C   UNL     1      11.390   7.056   2.718  0.00  0.00    +0.164 C 
ATOM     13  C   UNL     1      10.080   6.325   3.002  0.00  0.00    +0.055 C 
ATOM     14  C   UNL     1      11.802   4.681   2.701  0.00  0.00    +0.131 C 
ATOM     16  C   UNL     1      13.560   6.267   1.790  0.00  0.00    +0.226 C 
ENDROOT
BRANCH  11   7
ATOM      4  O   UNL     1       8.676   5.767   5.543  0.00  0.00    -0.253 OA
ATOM      7  N   UNL     1      10.735   4.904   4.904  0.00  0.00    -0.295 N 
ATOM      9  N   UNL     1      10.258   5.187   7.139  0.00  0.00    -0.296 N 
ATOM     19  C   UNL     1       9.787   5.326   5.835  0.00  0.00    +0.300 C 
ATOM     32  H   UNL     1      11.646   4.616   5.247  0.00  0.00    +0.151 HD
ATOM     34  H   UNL     1      11.183   4.796   7.284  0.00  0.00    +0.151 HD
BRANCH   9  23
ATOM     23  C   UNL     1       9.476   5.551   8.296  0.00  0.00    +0.132 C 
BRANCH  23  29
ATOM     29  C   UNL     1       9.458   4.405   9.253  0.00  0.00    -0.016 C 
ATOM     31  C   UNL     1       8.866   4.445  10.452  0.00  0.00    +0.005 C 
ENDBRANCH  23  29
ENDBRANCH   9  23
ENDBRANCH  11   7
BRANCH  12  15
ATOM      2  O   UNL     1      11.268   8.810   4.334  0.00  0.00    -0.274 OA
ATOM      8  N   UNL     1      13.029   7.293   4.449  0.00  0.00    -0.302 N 
ATOM     15  C   UNL     1      11.865   7.821   3.918  0.00  0.00    +0.234 C 
ATOM     33  H   UNL     1      13.428   6.454   4.035  0.00  0.00    +0.150 HD
BRANCH   8  17
ATOM     17  C   UNL     1      13.704   7.860   5.594  0.00  0.00    +0.163 C 
BRANCH  17  21
ATOM      5  O   UNL     1      11.989   7.619   7.299  0.00  0.00    -0.274 OA
ATOM     10  N   UNL     1      13.802   6.212   7.359  0.00  0.00    -0.328 N 
ATOM     21  C   UNL     1      13.065   7.253   6.836  0.00  0.00    +0.231 C 
ATOM     35  H   UNL     1      13.482   5.709   8.181  0.00  0.00    +0.145 HD
ATOM     36  H   UNL     1      14.679   5.903   6.952  0.00  0.00    +0.145 HD
ENDBRANCH  17  21
BRANCH  17  20
ATOM     20  C   UNL     1      15.210   7.578   5.578  0.00  0.00    +0.067 C 
BRANCH  20  22
ATOM     22  C   UNL     1      16.036   8.794   5.922  0.00  0.00    -0.045 A 
ATOM     24  C   UNL     1      17.429   8.727   5.876  0.00  0.00    +0.004 A 
ATOM     25  C   UNL     1      15.406   9.985   6.283  0.00  0.00    +0.004 A 
ATOM     27  C   UNL     1      18.191   9.851   6.193  0.00  0.00    +0.000 A 
ATOM     28  C   UNL     1      16.170  11.109   6.601  0.00  0.00    +0.000 A 
ATOM     30  C   UNL     1      17.561  11.042   6.556  0.00  0.00    +0.000 A 
ENDBRANCH  20  22
ENDBRANCH  17  20
ENDBRANCH   8  17
ENDBRANCH  12  15
BRANCH  16  18
ATOM     18  C   UNL     1      14.354   5.053   1.378  0.00  0.00    +0.164 C 
BRANCH  18   1
ATOM      1  S   UNL     1      14.326   4.966  -0.419  0.00  0.00    -0.155 S 
ATOM     26  C   UNL     1      13.347   3.457  -0.611  0.00  0.00    +0.085 C 
ENDBRANCH  18   1
ENDBRANCH  16  18
TORSDOF 10
ENDMDL
MODEL 6
REMARK VINA RESULT:      -6.0     27.533     29.311
REMARK  Name = 11865733
REMARK  11 active torsions:
REMARK  status: ('A' for Active; 'I' for Inactive)
REMARK    1  A    between atoms: S_1  and  C_18
REMARK    2  A    between atoms: S_1  and  C_26
REMARK    3  A    between atoms: N_7  and  C_11
REMARK    4  A    between atoms: N_8  and  C_17
REMARK    5  A    between atoms: N_9  and  C_23
REMARK    6  A    between atoms: C_12  and  C_15
REMARK    7  A    between atoms: C_16  and  C_18
REMARK    8  A    between atoms: C_17  and  C_20
REMARK    9  A    between atoms: C_17  and  C_21
REMARK   10  A    between atoms: C_20  and  C_22
REMARK   11  A    between atoms: C_23  and  C_29
REMARK                            x       y       z     vdW  Elec       q    Type
REMARK                         _______ _______ _______ _____ _____    ______ ____
ROOT
ATOM      3  O   UNL     1      -8.790 -11.368  17.713  0.00  0.00    -0.275 OA
ATOM      6  N   UNL     1      -6.478 -11.404  17.821  0.00  0.00    -0.287 N 
ATOM     11  C   UNL     1      -4.125 -11.227  17.559  0.00  0.00    +0.094 C 
ATOM     12  C   UNL     1      -6.257 -10.311  16.887  0.00  0.00    +0.164 C 
ATOM     13  C   UNL     1      -4.784  -9.943  17.049  0.00  0.00    +0.055 C 
ATOM     14  C   UNL     1      -5.220 -11.880  18.396  0.00  0.00    +0.131 C 
ATOM     16  C   UNL     1      -7.750 -11.790  18.219  0.00  0.00    +0.226 C 
ENDROOT
BRANCH  11   7
ATOM      4  O   UNL     1      -2.114 -10.639  15.574  0.00  0.00    -0.253 OA
ATOM      7  N   UNL     1      -3.698 -12.078  16.477  0.00  0.00    -0.295 N 
ATOM      9  N   UNL     1      -2.499 -12.719  14.619  0.00  0.00    -0.296 N 
ATOM     19  C   UNL     1      -2.715 -11.714  15.558  0.00  0.00    +0.300 C 
ATOM     32  H   UNL     1      -4.178 -12.962  16.337  0.00  0.00    +0.151 HD
ATOM     34  H   UNL     1      -3.030 -13.581  14.696  0.00  0.00    +0.151 HD
BRANCH   9  23
ATOM     23  C   UNL     1      -1.532 -12.600  13.553  0.00  0.00    +0.132 C 
BRANCH  23  29
ATOM     29  C   UNL     1      -2.172 -11.918  12.389  0.00  0.00    -0.016 C 
ATOM     31  C   UNL     1      -1.952 -10.639  12.063  0.00  0.00    +0.005 C 
ENDBRANCH  23  29
ENDBRANCH   9  23
ENDBRANCH  11   7
BRANCH  12  15
ATOM      2  O   UNL     1      -6.533 -11.988  15.212  0.00  0.00    -0.274 OA
ATOM      8  N   UNL     1      -6.818  -9.754  14.627  0.00  0.00    -0.302 N 
ATOM     15  C   UNL     1      -6.555 -10.795  15.500  0.00  0.00    +0.234 C 
ATOM     33  H   UNL     1      -6.830  -8.800  14.980  0.00  0.00    +0.150 HD
BRANCH   8  17
ATOM     17  C   UNL     1      -7.112  -9.952  13.226  0.00  0.00    +0.163 C 
BRANCH  17  21
ATOM      5  O   UNL     1      -9.233 -10.477  12.161  0.00  0.00    -0.274 OA
ATOM     10  N   UNL     1      -9.253  -9.265  14.111  0.00  0.00    -0.328 N 
ATOM     21  C   UNL     1      -8.627  -9.928  13.078  0.00  0.00    +0.231 C 
ATOM     35  H   UNL     1     -10.264  -9.186  14.142  0.00  0.00    +0.145 HD
ATOM     36  H   UNL     1      -8.741  -8.836  14.875  0.00  0.00    +0.145 HD
ENDBRANCH  17  21
BRANCH  17  20
ATOM     20  C   UNL     1      -6.473  -8.875  12.342  0.00  0.00    +0.067 C 
BRANCH  20  22
ATOM     22  C   UNL     1      -5.668  -9.456  11.205  0.00  0.00    -0.045 A 
ATOM     24  C   UNL     1      -5.736 -10.822  10.928  0.00  0.00    +0.004 A 
ATOM     25  C   UNL     1      -4.856  -8.627  10.430  0.00  0.00    +0.004 A 
ATOM     27  C   UNL     1      -4.992 -11.358   9.877  0.00  0.00    +0.000 A 
ATOM     28  C   UNL     1      -4.112  -9.164   9.379  0.00  0.00    +0.000 A 
ATOM     30  C   UNL     1      -4.180 -10.529   9.103  0.00  0.00    +0.000 A 
ENDBRANCH  20  22
ENDBRANCH  17  20
ENDBRANCH   8  17
ENDBRANCH  12  15
BRANCH  16  18
ATOM     18  C   UNL     1      -7.803 -12.801  19.338  0.00  0.00    +0.164 C 
BRANCH  18   1
ATOM      1  S   UNL     1      -9.534 -13.169  19.661  0.00  0.00    -0.155 S 
ATOM     26  C   UNL     1      -9.319 -14.405  20.964  0.00  0.00    +0.085 C 
ENDBRANCH  18   1
ENDBRANCH  16  18
TORSDOF 10
ENDMDL
MODEL 7
REMARK VINA RESULT:      -6.0      2.920      6.328
REMARK  Name = 11865733
REMARK  11 active torsions:
REMARK  status: ('A' for Active; 'I' for Inactive)
REMARK    1  A    between atoms: S_1  and  C_18
REMARK    2  A    between atoms: S_1  and  C_26
REMARK    3  A    between atoms: N_7  and  C_11
REMARK    4  A    between atoms: N_8  and  C_17
REMARK    5  A    between atoms: N_9  and  C_23
REMARK    6  A    between atoms: C_12  and  C_15
REMARK    7  A    between atoms: C_16  and  C_18
REMARK    8  A    between atoms: C_17  and  C_20
REMARK    9  A    between atoms: C_17  and  C_21
REMARK   10  A    between atoms: C_20  and  C_22
REMARK   11  A    between atoms: C_23  and  C_29
REMARK                            x       y       z     vdW  Elec       q    Type
REMARK                         _______ _______ _______ _____ _____    ______ ____
ROOT
ATOM      3  O   UNL     1      12.511   9.934  17.969  0.00  0.00    -0.275 OA
ATOM      6  N   UNL     1      13.810   8.239  18.861  0.00  0.00    -0.287 N 
ATOM     11  C   UNL     1      14.978   6.625  20.155  0.00  0.00    +0.094 C 
ATOM     12  C   UNL     1      13.079   8.119  20.113  0.00  0.00    +0.164 C 
ATOM     13  C   UNL     1      13.576   6.818  20.740  0.00  0.00    +0.055 C 
ATOM     14  C   UNL     1      14.866   7.232  18.760  0.00  0.00    +0.131 C 
ATOM     16  C   UNL     1      13.406   9.097  17.849  0.00  0.00    +0.226 C 
ENDROOT
BRANCH  11   7
ATOM      4  O   UNL     1      17.831   6.213  20.030  0.00  0.00    -0.253 OA
ATOM      7  N   UNL     1      15.986   7.284  20.946  0.00  0.00    -0.295 N 
ATOM      9  N   UNL     1      18.098   7.796  21.706  0.00  0.00    -0.296 N 
ATOM     19  C   UNL     1      17.350   7.023  20.821  0.00  0.00    +0.300 C 
ATOM     32  H   UNL     1      15.687   7.926  21.675  0.00  0.00    +0.151 HD
ATOM     34  H   UNL     1      17.615   8.453  22.310  0.00  0.00    +0.151 HD
BRANCH   9  23
ATOM     23  C   UNL     1      19.538   7.722  21.783  0.00  0.00    +0.132 C 
BRANCH  23  29
ATOM     29  C   UNL     1      19.920   6.681  22.784  0.00  0.00    -0.016 C 
ATOM     31  C   UNL     1      21.161   6.201  22.923  0.00  0.00    +0.005 C 
ENDBRANCH  23  29
ENDBRANCH   9  23
ENDBRANCH  11   7
BRANCH  12  15
ATOM      2  O   UNL     1      14.318   9.281  21.790  0.00  0.00    -0.274 OA
ATOM      8  N   UNL     1      12.542  10.365  20.748  0.00  0.00    -0.302 N 
ATOM     15  C   UNL     1      13.401   9.303  20.975  0.00  0.00    +0.234 C 
ATOM     33  H   UNL     1      11.827  10.281  20.030  0.00  0.00    +0.150 HD
BRANCH   8  17
ATOM     17  C   UNL     1      12.625  11.616  21.466  0.00  0.00    +0.163 C 
BRANCH  17  21
ATOM      5  O   UNL     1      14.532  13.095  21.183  0.00  0.00    -0.274 OA
ATOM     10  N   UNL     1      13.255  12.585  19.344  0.00  0.00    -0.328 N 
ATOM     21  C   UNL     1      13.568  12.519  20.685  0.00  0.00    +0.231 C 
ATOM     35  H   UNL     1      13.813  13.143  18.706  0.00  0.00    +0.145 HD
ATOM     36  H   UNL     1      12.469  12.085  18.941  0.00  0.00    +0.145 HD
ENDBRANCH  17  21
BRANCH  17  20
ATOM     20  C   UNL     1      11.255  12.286  21.624  0.00  0.00    +0.067 C 
BRANCH  20  22
ATOM     22  C   UNL     1      10.982  12.729  23.041  0.00  0.00    -0.045 A 
ATOM     24  C   UNL     1      11.239  11.863  24.104  0.00  0.00    +0.004 A 
ATOM     25  C   UNL     1      10.474  14.005  23.287  0.00  0.00    +0.004 A 
ATOM     27  C   UNL     1      10.987  12.274  25.414  0.00  0.00    +0.000 A 
ATOM     28  C   UNL     1      10.222  14.414  24.597  0.00  0.00    +0.000 A 
ATOM     30  C   UNL     1      10.478  13.549  25.659  0.00  0.00    +0.000 A 
ENDBRANCH  20  22
ENDBRANCH  17  20
ENDBRANCH   8  17
ENDBRANCH  12  15
BRANCH  16  18
ATOM     18  C   UNL     1      14.151   8.960  16.544  0.00  0.00    +0.164 C 
BRANCH  18   1
ATOM      1  S   UNL     1      13.969  10.508  15.646  0.00  0.00    -0.155 S 
ATOM     26  C   UNL     1      15.270  11.461  16.466  0.00  0.00    +0.085 C 
ENDBRANCH  18   1
ENDBRANCH  16  18
TORSDOF 10
ENDMDL
MODEL 8
REMARK VINA RESULT:      -5.8      2.751      5.184
REMARK  Name = 11865733
REMARK  11 active torsions:
REMARK  status: ('A' for Active; 'I' for Inactive)
REMARK    1  A    between atoms: S_1  and  C_18
REMARK    2  A    between atoms: S_1  and  C_26
REMARK    3  A    between atoms: N_7  and  C_11
REMARK    4  A    between atoms: N_8  and  C_17
REMARK    5  A    between atoms: N_9  and  C_23
REMARK    6  A    between atoms: C_12  and  C_15
REMARK    7  A    between atoms: C_16  and  C_18
REMARK    8  A    between atoms: C_17  and  C_20
REMARK    9  A    between atoms: C_17  and  C_21
REMARK   10  A    between atoms: C_20  and  C_22
REMARK   11  A    between atoms: C_23  and  C_29
REMARK                            x       y       z     vdW  Elec       q    Type
REMARK                         _______ _______ _______ _____ _____    ______ ____
ROOT
ATOM      3  O   UNL     1      11.141   9.141  19.742  0.00  0.00    -0.275 OA
ATOM      6  N   UNL     1      11.289  10.009  21.882  0.00  0.00    -0.287 N 
ATOM     11  C   UNL     1      11.654  11.226  23.889  0.00  0.00    +0.094 C 
ATOM     12  C   UNL     1      11.562  11.381  21.480  0.00  0.00    +0.164 C 
ATOM     13  C   UNL     1      11.381  12.210  22.749  0.00  0.00    +0.055 C 
ATOM     14  C   UNL     1      11.158   9.894  23.334  0.00  0.00    +0.131 C 
ATOM     16  C   UNL     1      11.019   9.009  20.960  0.00  0.00    +0.226 C 
ENDROOT
BRANCH  11   7
ATOM      4  O   UNL     1      12.946  12.535  26.113  0.00  0.00    -0.253 OA
ATOM      7  N   UNL     1      13.052  11.176  24.233  0.00  0.00    -0.295 N 
ATOM      9  N   UNL     1      14.968  11.624  25.429  0.00  0.00    -0.296 N 
ATOM     19  C   UNL     1      13.596  11.842  25.330  0.00  0.00    +0.300 C 
ATOM     32  H   UNL     1      13.686  10.681  23.612  0.00  0.00    +0.151 HD
ATOM     34  H   UNL     1      15.417  11.022  24.746  0.00  0.00    +0.151 HD
BRANCH   9  23
ATOM     23  C   UNL     1      15.778  12.200  26.476  0.00  0.00    +0.132 C 
BRANCH  23  29
ATOM     29  C   UNL     1      15.877  11.228  27.605  0.00  0.00    -0.016 C 
ATOM     31  C   UNL     1      17.015  10.950  28.252  0.00  0.00    +0.005 C 
ENDBRANCH  23  29
ENDBRANCH   9  23
ENDBRANCH  11   7
BRANCH  12  15
ATOM      2  O   UNL     1      13.417  12.486  20.462  0.00  0.00    -0.274 OA
ATOM      8  N   UNL     1      13.649  10.264  21.112  0.00  0.00    -0.302 N 
ATOM     15  C   UNL     1      12.969  11.461  20.966  0.00  0.00    +0.234 C 
ATOM     33  H   UNL     1      13.185   9.481  21.565  0.00  0.00    +0.150 HD
BRANCH   8  17
ATOM     17  C   UNL     1      15.013  10.072  20.675  0.00  0.00    +0.163 C 
BRANCH  17  21
ATOM      5  O   UNL     1      15.958  10.676  22.831  0.00  0.00    -0.274 OA
ATOM     10  N   UNL     1      16.459   8.615  21.951  0.00  0.00    -0.328 N 
ATOM     21  C   UNL     1      15.857   9.855  21.923  0.00  0.00    +0.231 C 
ATOM     35  H   UNL     1      17.041   8.336  22.735  0.00  0.00    +0.145 HD
ATOM     36  H   UNL     1      16.348   7.936  21.205  0.00  0.00    +0.145 HD
ENDBRANCH  17  21
BRANCH  17  20
ATOM     20  C   UNL     1      15.154   8.878  19.723  0.00  0.00    +0.067 C 
BRANCH  20  22
ATOM     22  C   UNL     1      14.578   9.152  18.355  0.00  0.00    -0.045 A 
ATOM     24  C   UNL     1      14.760  10.401  17.759  0.00  0.00    +0.004 A 
ATOM     25  C   UNL     1      13.867   8.157  17.685  0.00  0.00    +0.004 A 
ATOM     27  C   UNL     1      14.228  10.654  16.494  0.00  0.00    +0.000 A 
ATOM     28  C   UNL     1      13.335   8.411  16.420  0.00  0.00    +0.000 A 
ATOM     30  C   UNL     1      13.516   9.659  15.825  0.00  0.00    +0.000 A 
ENDBRANCH  20  22
ENDBRANCH  17  20
ENDBRANCH   8  17
ENDBRANCH  12  15
BRANCH  16  18
ATOM     18  C   UNL     1      10.563   7.694  21.543  0.00  0.00    +0.164 C 
BRANCH  18   1
ATOM      1  S   UNL     1      11.849   6.478  21.222  0.00  0.00    -0.155 S 
ATOM     26  C   UNL     1      10.920   4.977  21.616  0.00  0.00    +0.085 C 
ENDBRANCH  18   1
ENDBRANCH  16  18
TORSDOF 10
ENDMDL
MODEL 9
REMARK VINA RESULT:      -5.7     27.012     29.871
REMARK  Name = 11865733
REMARK  11 active torsions:
REMARK  status: ('A' for Active; 'I' for Inactive)
REMARK    1  A    between atoms: S_1  and  C_18
REMARK    2  A    between atoms: S_1  and  C_26
REMARK    3  A    between atoms: N_7  and  C_11
REMARK    4  A    between atoms: N_8  and  C_17
REMARK    5  A    between atoms: N_9  and  C_23
REMARK    6  A    between atoms: C_12  and  C_15
REMARK    7  A    between atoms: C_16  and  C_18
REMARK    8  A    between atoms: C_17  and  C_20
REMARK    9  A    between atoms: C_17  and  C_21
REMARK   10  A    between atoms: C_20  and  C_22
REMARK   11  A    between atoms: C_23  and  C_29
REMARK                            x       y       z     vdW  Elec       q    Type
REMARK                         _______ _______ _______ _____ _____    ______ ____
ROOT
ATOM      3  O   UNL     1      -6.656 -10.170  16.288  0.00  0.00    -0.275 OA
ATOM      6  N   UNL     1      -7.825 -10.272  14.293  0.00  0.00    -0.287 N 
ATOM     11  C   UNL     1      -8.645 -10.494  12.075  0.00  0.00    +0.094 C 
ATOM     12  C   UNL     1      -6.871 -11.119  13.592  0.00  0.00    +0.164 C 
ATOM     13  C   UNL     1      -7.603 -11.585  12.335  0.00  0.00    +0.055 C 
ATOM     14  C   UNL     1      -9.008 -10.009  13.475  0.00  0.00    +0.131 C 
ATOM     16  C   UNL     1      -7.668  -9.932  15.628  0.00  0.00    +0.226 C 
ENDROOT
BRANCH  11   7
ATOM      4  O   UNL     1      -8.966 -10.162   9.226  0.00  0.00    -0.253 OA
ATOM      7  N   UNL     1      -8.116  -9.430  11.260  0.00  0.00    -0.295 N 
ATOM      9  N   UNL     1      -7.699  -8.222   9.345  0.00  0.00    -0.296 N 
ATOM     19  C   UNL     1      -8.320  -9.346   9.883  0.00  0.00    +0.300 C 
ATOM     32  H   UNL     1      -7.513  -8.739  11.696  0.00  0.00    +0.151 HD
ATOM     34  H   UNL     1      -7.201  -7.594   9.968  0.00  0.00    +0.151 HD
BRANCH   9  23
ATOM     23  C   UNL     1      -7.753  -7.895   7.939  0.00  0.00    +0.132 C 
BRANCH  23  29
ATOM     29  C   UNL     1      -8.144  -6.463   7.786  0.00  0.00    -0.016 C 
ATOM     31  C   UNL     1      -9.191  -5.906   8.407  0.00  0.00    +0.005 C 
ENDBRANCH  23  29
ENDBRANCH   9  23
ENDBRANCH  11   7
BRANCH  12  15
ATOM      2  O   UNL     1      -5.752  -9.163  12.804  0.00  0.00    -0.274 OA
ATOM      8  N   UNL     1      -4.482 -10.992  13.481  0.00  0.00    -0.302 N 
ATOM     15  C   UNL     1      -5.660 -10.302  13.252  0.00  0.00    +0.234 C 
ATOM     33  H   UNL     1      -4.523 -11.928  13.877  0.00  0.00    +0.150 HD
BRANCH   8  17
ATOM     17  C   UNL     1      -3.176 -10.435  13.214  0.00  0.00    +0.163 C 
BRANCH  17  21
ATOM      5  O   UNL     1      -2.339 -11.794  15.047  0.00  0.00    -0.274 OA
ATOM     10  N   UNL     1      -1.431  -9.710  14.721  0.00  0.00    -0.328 N 
ATOM     21  C   UNL     1      -2.304 -10.736  14.424  0.00  0.00    +0.231 C 
ATOM     35  H   UNL     1      -0.783  -9.786  15.498  0.00  0.00    +0.145 HD
ATOM     36  H   UNL     1      -1.396  -8.850  14.183  0.00  0.00    +0.145 HD
ENDBRANCH  17  21
BRANCH  17  20
ATOM     20  C   UNL     1      -2.546 -11.021  11.945  0.00  0.00    +0.067 C 
BRANCH  20  22
ATOM     22  C   UNL     1      -3.299 -10.646  10.692  0.00  0.00    -0.045 A 
ATOM     24  C   UNL     1      -3.359  -9.311  10.288  0.00  0.00    +0.004 A 
ATOM     25  C   UNL     1      -3.936 -11.632   9.938  0.00  0.00    +0.004 A 
ATOM     27  C   UNL     1      -4.055  -8.964   9.129  0.00  0.00    +0.000 A 
ATOM     28  C   UNL     1      -4.632 -11.284   8.781  0.00  0.00    +0.000 A 
ATOM     30  C   UNL     1      -4.692  -9.951   8.376  0.00  0.00    +0.000 A 
ENDBRANCH  20  22
ENDBRANCH  17  20
ENDBRANCH   8  17
ENDBRANCH  12  15
BRANCH  16  18
ATOM     18  C   UNL     1      -8.838  -9.217  16.259  0.00  0.00    +0.164 C 
BRANCH  18   1
ATOM      1  S   UNL     1      -9.249 -10.081  17.782  0.00  0.00    -0.155 S 
ATOM     26  C   UNL     1     -11.024 -10.302  17.508  0.00  0.00    +0.085 C 
ENDBRANCH  18   1
ENDBRANCH  16  18
TORSDOF 10
ENDMDL
MODEL 10
REMARK VINA RESULT:      -5.7     20.930     23.941
REMARK  Name = 11865733
REMARK  11 active torsions:
REMARK  status: ('A' for Active; 'I' for Inactive)
REMARK    1  A    between atoms: S_1  and  C_18
REMARK    2  A    between atoms: S_1  and  C_26
REMARK    3  A    between atoms: N_7  and  C_11
REMARK    4  A    between atoms: N_8  and  C_17
REMARK    5  A    between atoms: N_9  and  C_23
REMARK    6  A    between atoms: C_12  and  C_15
REMARK    7  A    between atoms: C_16  and  C_18
REMARK    8  A    between atoms: C_17  and  C_20
REMARK    9  A    between atoms: C_17  and  C_21
REMARK   10  A    between atoms: C_20  and  C_22
REMARK   11  A    between atoms: C_23  and  C_29
REMARK                            x       y       z     vdW  Elec       q    Type
REMARK                         _______ _______ _______ _____ _____    ______ ____
ROOT
ATOM      3  O   UNL     1       7.408  -3.941  37.112  0.00  0.00    -0.275 OA
ATOM      6  N   UNL     1       5.993  -5.619  37.846  0.00  0.00    -0.287 N 
ATOM     11  C   UNL     1       4.801  -7.604  38.376  0.00  0.00    +0.094 C 
ATOM     12  C   UNL     1       6.918  -6.719  37.620  0.00  0.00    +0.164 C 
ATOM     13  C   UNL     1       6.300  -7.913  38.344  0.00  0.00    +0.055 C 
ATOM     14  C   UNL     1       4.755  -6.082  38.472  0.00  0.00    +0.131 C 
ATOM     16  C   UNL     1       6.355  -4.296  37.643  0.00  0.00    +0.226 C 
ENDROOT
BRANCH  11   7
ATOM      4  O   UNL     1       3.465 -10.142  38.054  0.00  0.00    -0.253 OA
ATOM      7  N   UNL     1       4.127  -8.087  37.198  0.00  0.00    -0.295 N 
ATOM      9  N   UNL     1       2.933  -9.546  35.875  0.00  0.00    -0.296 N 
ATOM     19  C   UNL     1       3.505  -9.333  37.127  0.00  0.00    +0.300 C 
ATOM     32  H   UNL     1       4.157  -7.520  36.355  0.00  0.00    +0.151 HD
ATOM     34  H   UNL     1       3.001  -8.813  35.177  0.00  0.00    +0.151 HD
BRANCH   9  23
ATOM     23  C   UNL     1       2.226 -10.758  35.534  0.00  0.00    +0.132 C 
BRANCH  23  29
ATOM     29  C   UNL     1       3.151 -11.672  34.802  0.00  0.00    -0.016 C 
ATOM     31  C   UNL     1       2.742 -12.703  34.053  0.00  0.00    +0.005 C 
ENDBRANCH  23  29
ENDBRANCH   9  23
ENDBRANCH  11   7
BRANCH  12  15
ATOM      2  O   UNL     1       6.316  -7.789  35.572  0.00  0.00    -0.274 OA
ATOM      8  N   UNL     1       8.000  -6.183  35.552  0.00  0.00    -0.302 N 
ATOM     15  C   UNL     1       7.023  -6.964  36.144  0.00  0.00    +0.234 C 
ATOM     33  H   UNL     1       8.514  -5.514  36.120  0.00  0.00    +0.150 HD
BRANCH   8  17
ATOM     17  C   UNL     1       8.316  -6.246  34.143  0.00  0.00    +0.163 C 
BRANCH  17  21
ATOM      5  O   UNL     1      10.451  -5.147  33.768  0.00  0.00    -0.274 OA
ATOM     10  N   UNL     1       8.529  -3.903  33.589  0.00  0.00    -0.328 N 
ATOM     21  C   UNL     1       9.227  -5.066  33.835  0.00  0.00    +0.231 C 
ATOM     35  H   UNL     1       9.016  -3.043  33.358  0.00  0.00    +0.145 HD
ATOM     36  H   UNL     1       7.516  -3.855  33.624  0.00  0.00    +0.145 HD
ENDBRANCH  17  21
BRANCH  17  20
ATOM     20  C   UNL     1       9.001  -7.562  33.761  0.00  0.00    +0.067 C 
BRANCH  20  22
ATOM     22  C   UNL     1       8.266  -8.310  32.675  0.00  0.00    -0.045 A 
ATOM     24  C   UNL     1       7.125  -7.753  32.096  0.00  0.00    +0.004 A 
ATOM     25  C   UNL     1       8.726  -9.555  32.249  0.00  0.00    +0.004 A 
ATOM     27  C   UNL     1       6.445  -8.443  31.092  0.00  0.00    +0.000 A 
ATOM     28  C   UNL     1       8.046 -10.245  31.245  0.00  0.00    +0.000 A 
ATOM     30  C   UNL     1       6.906  -9.689  30.667  0.00  0.00    +0.000 A 
ENDBRANCH  20  22
ENDBRANCH  17  20
ENDBRANCH   8  17
ENDBRANCH  12  15
BRANCH  16  18
ATOM     18  C   UNL     1       5.353  -3.268  38.111  0.00  0.00    +0.164 C 
BRANCH  18   1
ATOM      1  S   UNL     1       5.888  -2.679  39.724  0.00  0.00    -0.155 S 
ATOM     26  C   UNL     1       4.297  -2.082  40.345  0.00  0.00    +0.085 C 
ENDBRANCH  18   1
ENDBRANCH  16  18
TORSDOF 10
ENDMDL
