MODEL 1
REMARK VINA RESULT:      -7.4      0.000      0.000
REMARK  Name = 26744397
REMARK  5 active torsions:
REMARK  status: ('A' for Active; 'I' for Inactive)
REMARK    1  A    between atoms: O_2  and  C_10
REMARK    2  A    between atoms: N_4  and  C_12
REMARK    3  A    between atoms: C_8  and  C_13
REMARK    4  A    between atoms: C_12  and  C_14
REMARK    5  A    between atoms: C_15  and  C_18
REMARK                            x       y       z     vdW  Elec       q    Type
REMARK                         _______ _______ _______ _____ _____    ______ ____
ROOT
ATOM      4  N   UNL     1      12.367   8.613  19.874  0.00  0.00    -0.285 NA
ATOM      8  C   UNL     1      13.152   8.271  21.078  0.00  0.00    +0.149 C 
ATOM      9  C   UNL     1      12.228   7.356  21.903  0.00  0.00    +0.061 C 
ATOM     10  C   UNL     1      10.932   7.280  21.105  0.00  0.00    +0.130 C 
ATOM     11  C   UNL     1      10.960   8.542  20.264  0.00  0.00    +0.116 C 
ENDROOT
BRANCH   8  13
ATOM      3  O   UNL     1      14.450   6.646  19.795  0.00  0.00    -0.336 OA
ATOM      5  N   UNL     1      15.665   7.854  21.237  0.00  0.00    -0.190 NA
ATOM      6  N   UNL     1      15.772   6.201  19.659  0.00  0.00    -0.056 NA
ATOM     13  C   UNL     1      14.476   7.619  20.744  0.00  0.00    +0.245 A 
ATOM     15  C   UNL     1      16.427   6.960  20.542  0.00  0.00    +0.202 A 
BRANCH  15  18
ATOM      1  F   UNL     1      21.914   6.539  21.359  0.00  0.00    -0.205 F 
ATOM     18  C   UNL     1      17.842   6.851  20.753  0.00  0.00    +0.023 A 
ATOM     21  C   UNL     1      18.554   5.799  20.177  0.00  0.00    +0.014 A 
ATOM     22  C   UNL     1      18.505   7.798  21.533  0.00  0.00    +0.014 A 
ATOM     23  C   UNL     1      19.929   5.693  20.382  0.00  0.00    +0.039 A 
ATOM     24  C   UNL     1      19.881   7.692  21.738  0.00  0.00    +0.039 A 
ATOM     25  C   UNL     1      20.594   6.640  21.162  0.00  0.00    +0.123 A 
ENDBRANCH  15  18
ENDBRANCH   8  13
BRANCH  10   2
ATOM      2  O   UNL     1       9.813   7.248  21.969  0.00  0.00    -0.390 OA
ATOM     26  H   UNL     1       9.741   8.123  22.386  0.00  0.00    +0.210 HD
ENDBRANCH  10   2
BRANCH   4  12
ATOM     12  C   UNL     1      12.715   9.911  19.311  0.00  0.00    +0.122 C 
BRANCH  12  14
ATOM      7  N   UNL     1      13.661   8.450  15.950  0.00  0.00    -0.263 NA
ATOM     14  C   UNL     1      13.318   9.782  17.938  0.00  0.00    -0.015 A 
ATOM     16  C   UNL     1      14.069  10.814  17.386  0.00  0.00    +0.008 A 
ATOM     17  C   UNL     1      13.145   8.632  17.187  0.00  0.00    +0.115 A 
ATOM     19  C   UNL     1      14.616  10.665  16.116  0.00  0.00    +0.020 A 
ATOM     20  C   UNL     1      14.385   9.475  15.445  0.00  0.00    +0.111 A 
ENDBRANCH  12  14
ENDBRANCH   4  12
TORSDOF 5
ENDMDL
MODEL 2
REMARK VINA RESULT:      -7.2      1.948      3.967
REMARK  Name = 26744397
REMARK  5 active torsions:
REMARK  status: ('A' for Active; 'I' for Inactive)
REMARK    1  A    between atoms: O_2  and  C_10
REMARK    2  A    between atoms: N_4  and  C_12
REMARK    3  A    between atoms: C_8  and  C_13
REMARK    4  A    between atoms: C_12  and  C_14
REMARK    5  A    between atoms: C_15  and  C_18
REMARK                            x       y       z     vdW  Elec       q    Type
REMARK                         _______ _______ _______ _____ _____    ______ ____
ROOT
ATOM      4  N   UNL     1      12.613   8.466  18.712  0.00  0.00    -0.285 NA
ATOM      8  C   UNL     1      13.738   7.622  18.257  0.00  0.00    +0.149 C 
ATOM      9  C   UNL     1      13.966   8.028  16.789  0.00  0.00    +0.061 C 
ATOM     10  C   UNL     1      12.894   9.071  16.497  0.00  0.00    +0.130 C 
ATOM     11  C   UNL     1      11.818   8.771  17.524  0.00  0.00    +0.116 C 
ENDROOT
BRANCH   8  13
ATOM      3  O   UNL     1      15.104   8.978  19.762  0.00  0.00    -0.336 OA
ATOM      5  N   UNL     1      15.960   6.956  19.324  0.00  0.00    -0.190 NA
ATOM      6  N   UNL     1      16.307   8.901  20.477  0.00  0.00    -0.056 NA
ATOM     13  C   UNL     1      14.976   7.793  19.111  0.00  0.00    +0.245 A 
ATOM     15  C   UNL     1      16.752   7.680  20.166  0.00  0.00    +0.202 A 
BRANCH  15  18
ATOM      1  F   UNL     1      21.524   5.637  22.169  0.00  0.00    -0.205 F 
ATOM     18  C   UNL     1      17.982   7.153  20.682  0.00  0.00    +0.023 A 
ATOM     21  C   UNL     1      18.560   6.027  20.095  0.00  0.00    +0.014 A 
ATOM     22  C   UNL     1      18.601   7.767  21.771  0.00  0.00    +0.014 A 
ATOM     23  C   UNL     1      19.756   5.515  20.597  0.00  0.00    +0.039 A 
ATOM     24  C   UNL     1      19.798   7.255  22.273  0.00  0.00    +0.039 A 
ATOM     25  C   UNL     1      20.375   6.129  21.686  0.00  0.00    +0.123 A 
ENDBRANCH  15  18
ENDBRANCH   8  13
BRANCH  10   2
ATOM      2  O   UNL     1      12.410   8.935  15.174  0.00  0.00    -0.390 OA
ATOM     26  H   UNL     1      11.549   8.488  15.222  0.00  0.00    +0.210 HD
ENDBRANCH  10   2
BRANCH   4  12
ATOM     12  C   UNL     1      11.816   7.844  19.760  0.00  0.00    +0.122 C 
BRANCH  12  14
ATOM      7  N   UNL     1      10.543   9.196  23.059  0.00  0.00    -0.263 NA
ATOM     14  C   UNL     1      11.519   8.803  20.882  0.00  0.00    -0.015 A 
ATOM     16  C   UNL     1      11.914  10.134  20.810  0.00  0.00    +0.008 A 
ATOM     17  C   UNL     1      10.842   8.387  22.017  0.00  0.00    +0.115 A 
ATOM     19  C   UNL     1      11.623  10.997  21.862  0.00  0.00    +0.020 A 
ATOM     20  C   UNL     1      10.942  10.483  22.954  0.00  0.00    +0.111 A 
ENDBRANCH  12  14
ENDBRANCH   4  12
TORSDOF 5
ENDMDL
MODEL 3
REMARK VINA RESULT:      -6.8      4.160      6.750
REMARK  Name = 26744397
REMARK  5 active torsions:
REMARK  status: ('A' for Active; 'I' for Inactive)
REMARK    1  A    between atoms: O_2  and  C_10
REMARK    2  A    between atoms: N_4  and  C_12
REMARK    3  A    between atoms: C_8  and  C_13
REMARK    4  A    between atoms: C_12  and  C_14
REMARK    5  A    between atoms: C_15  and  C_18
REMARK                            x       y       z     vdW  Elec       q    Type
REMARK                         _______ _______ _______ _____ _____    ______ ____
ROOT
ATOM      4  N   UNL     1      14.498   8.005  19.799  0.00  0.00    -0.285 NA
ATOM      8  C   UNL     1      13.832   7.508  21.021  0.00  0.00    +0.149 C 
ATOM      9  C   UNL     1      14.972   7.311  22.037  0.00  0.00    +0.061 C 
ATOM     10  C   UNL     1      16.243   7.679  21.282  0.00  0.00    +0.130 C 
ATOM     11  C   UNL     1      15.861   7.479  19.828  0.00  0.00    +0.116 C 
ENDROOT
BRANCH   8  13
ATOM      3  O   UNL     1      11.471   8.086  21.269  0.00  0.00    -0.336 OA
ATOM      5  N   UNL     1      12.877   9.577  22.173  0.00  0.00    -0.190 NA
ATOM      6  N   UNL     1      10.669   9.095  21.819  0.00  0.00    -0.056 NA
ATOM     13  C   UNL     1      12.756   8.448  21.521  0.00  0.00    +0.245 A 
ATOM     15  C   UNL     1      11.571   9.937  22.332  0.00  0.00    +0.202 A 
BRANCH  15  18
ATOM      1  F   UNL     1      10.131  14.621  24.968  0.00  0.00    -0.205 F 
ATOM     18  C   UNL     1      11.200  11.145  23.012  0.00  0.00    +0.023 A 
ATOM     21  C   UNL     1      11.062  11.150  24.400  0.00  0.00    +0.014 A 
ATOM     22  C   UNL     1      10.977  12.314  22.285  0.00  0.00    +0.014 A 
ATOM     23  C   UNL     1      10.701  12.324  25.060  0.00  0.00    +0.039 A 
ATOM     24  C   UNL     1      10.617  13.488  22.945  0.00  0.00    +0.039 A 
ATOM     25  C   UNL     1      10.478  13.494  24.333  0.00  0.00    +0.123 A 
ENDBRANCH  15  18
ENDBRANCH   8  13
BRANCH  10   2
ATOM      2  O   UNL     1      17.314   6.839  21.665  0.00  0.00    -0.390 OA
ATOM     26  H   UNL     1      18.089   7.092  21.134  0.00  0.00    +0.210 HD
ENDBRANCH  10   2
BRANCH   4  12
ATOM     12  C   UNL     1      13.796   7.643  18.575  0.00  0.00    +0.122 C 
BRANCH  12  14
ATOM      7  N   UNL     1      14.066   9.348  15.206  0.00  0.00    -0.263 NA
ATOM     14  C   UNL     1      13.884   8.730  17.536  0.00  0.00    -0.015 A 
ATOM     16  C   UNL     1      13.874  10.072  17.900  0.00  0.00    +0.008 A 
ATOM     17  C   UNL     1      13.981   8.423  16.189  0.00  0.00    +0.115 A 
ATOM     19  C   UNL     1      13.960  11.053  16.918  0.00  0.00    +0.020 A 
ATOM     20  C   UNL     1      14.053  10.642  15.597  0.00  0.00    +0.111 A 
ENDBRANCH  12  14
ENDBRANCH   4  12
TORSDOF 5
ENDMDL
MODEL 4
REMARK VINA RESULT:      -6.6     25.785     28.605
REMARK  Name = 26744397
REMARK  5 active torsions:
REMARK  status: ('A' for Active; 'I' for Inactive)
REMARK    1  A    between atoms: O_2  and  C_10
REMARK    2  A    between atoms: N_4  and  C_12
REMARK    3  A    between atoms: C_8  and  C_13
REMARK    4  A    between atoms: C_12  and  C_14
REMARK    5  A    between atoms: C_15  and  C_18
REMARK                            x       y       z     vdW  Elec       q    Type
REMARK                         _______ _______ _______ _____ _____    ______ ____
ROOT
ATOM      4  N   UNL     1      -3.131 -10.567  14.277  0.00  0.00    -0.285 NA
ATOM      8  C   UNL     1      -3.393 -11.279  15.546  0.00  0.00    +0.149 C 
ATOM      9  C   UNL     1      -2.200 -10.923  16.451  0.00  0.00    +0.061 C 
ATOM     10  C   UNL     1      -1.299 -10.046  15.590  0.00  0.00    +0.130 C 
ATOM     11  C   UNL     1      -1.679 -10.431  14.173  0.00  0.00    +0.116 C 
ENDROOT
BRANCH   8  13
ATOM      3  O   UNL     1      -5.272  -9.729  15.747  0.00  0.00    -0.336 OA
ATOM      5  N   UNL     1      -5.447 -11.551  17.038  0.00  0.00    -0.190 NA
ATOM      6  N   UNL     1      -6.484  -9.601  16.440  0.00  0.00    -0.056 NA
ATOM     13  C   UNL     1      -4.726 -10.904  16.158  0.00  0.00    +0.245 A 
ATOM     15  C   UNL     1      -6.514 -10.713  17.181  0.00  0.00    +0.202 A 
BRANCH  15  18
ATOM      1  F   UNL     1     -10.716 -11.893  20.632  0.00  0.00    -0.205 F 
ATOM     18  C   UNL     1      -7.598 -11.017  18.070  0.00  0.00    +0.023 A 
ATOM     21  C   UNL     1      -8.753 -10.235  18.057  0.00  0.00    +0.014 A 
ATOM     22  C   UNL     1      -7.497 -12.096  18.949  0.00  0.00    +0.014 A 
ATOM     23  C   UNL     1      -9.805 -10.530  18.922  0.00  0.00    +0.039 A 
ATOM     24  C   UNL     1      -8.550 -12.392  19.814  0.00  0.00    +0.039 A 
ATOM     25  C   UNL     1      -9.705 -11.609  19.801  0.00  0.00    +0.123 A 
ENDBRANCH  15  18
ENDBRANCH   8  13
BRANCH  10   2
ATOM      2  O   UNL     1       0.064 -10.312  15.859  0.00  0.00    -0.390 OA
ATOM     26  H   UNL     1       0.441 -10.734  15.069  0.00  0.00    +0.210 HD
ENDBRANCH  10   2
BRANCH   4  12
ATOM     12  C   UNL     1      -3.704 -11.234  13.116  0.00  0.00    +0.122 C 
BRANCH  12  14
ATOM      7  N   UNL     1      -5.749  -8.687  11.202  0.00  0.00    -0.263 NA
ATOM     14  C   UNL     1      -4.112 -10.251  12.051  0.00  0.00    -0.015 A 
ATOM     16  C   UNL     1      -3.287  -9.990  10.961  0.00  0.00    +0.008 A 
ATOM     17  C   UNL     1      -5.321  -9.580  12.124  0.00  0.00    +0.115 A 
ATOM     19  C   UNL     1      -3.693  -9.079   9.992  0.00  0.00    +0.020 A 
ATOM     20  C   UNL     1      -4.922  -8.459  10.158  0.00  0.00    +0.111 A 
ENDBRANCH  12  14
ENDBRANCH   4  12
TORSDOF 5
ENDMDL
MODEL 5
REMARK VINA RESULT:      -6.5     25.871     28.603
REMARK  Name = 26744397
REMARK  5 active torsions:
REMARK  status: ('A' for Active; 'I' for Inactive)
REMARK    1  A    between atoms: O_2  and  C_10
REMARK    2  A    between atoms: N_4  and  C_12
REMARK    3  A    between atoms: C_8  and  C_13
REMARK    4  A    between atoms: C_12  and  C_14
REMARK    5  A    between atoms: C_15  and  C_18
REMARK                            x       y       z     vdW  Elec       q    Type
REMARK                         _______ _______ _______ _____ _____    ______ ____
ROOT
ATOM      4  N   UNL     1      -3.293 -10.625  14.104  0.00  0.00    -0.285 NA
ATOM      8  C   UNL     1      -3.668 -11.388  15.313  0.00  0.00    +0.149 C 
ATOM      9  C   UNL     1      -2.601 -11.016  16.359  0.00  0.00    +0.061 C 
ATOM     10  C   UNL     1      -1.646 -10.076  15.632  0.00  0.00    +0.130 C 
ATOM     11  C   UNL     1      -1.846 -10.428  14.171  0.00  0.00    +0.116 C 
ENDROOT
BRANCH   8  13
ATOM      3  O   UNL     1      -5.615 -11.950  16.678  0.00  0.00    -0.336 OA
ATOM      5  N   UNL     1      -5.869 -10.101  15.439  0.00  0.00    -0.190 NA
ATOM      6  N   UNL     1      -6.902 -11.470  16.954  0.00  0.00    -0.056 NA
ATOM     13  C   UNL     1      -5.076 -11.086  15.778  0.00  0.00    +0.245 A 
ATOM     15  C   UNL     1      -6.977 -10.379  16.185  0.00  0.00    +0.202 A 
BRANCH  15  18
ATOM      1  F   UNL     1     -11.502  -7.146  16.016  0.00  0.00    -0.205 F 
ATOM     18  C   UNL     1      -8.144  -9.546  16.142  0.00  0.00    +0.023 A 
ATOM     21  C   UNL     1      -8.562  -8.870  17.288  0.00  0.00    +0.014 A 
ATOM     22  C   UNL     1      -8.860  -9.410  14.953  0.00  0.00    +0.014 A 
ATOM     23  C   UNL     1      -9.696  -8.060  17.246  0.00  0.00    +0.039 A 
ATOM     24  C   UNL     1      -9.994  -8.599  14.910  0.00  0.00    +0.039 A 
ATOM     25  C   UNL     1     -10.412  -7.924  16.057  0.00  0.00    +0.123 A 
ENDBRANCH  15  18
ENDBRANCH   8  13
BRANCH  10   2
ATOM      2  O   UNL     1      -0.313 -10.296  16.049  0.00  0.00    -0.390 OA
ATOM     26  H   UNL     1       0.211  -9.525  15.773  0.00  0.00    +0.210 HD
ENDBRANCH  10   2
BRANCH   4  12
ATOM     12  C   UNL     1      -3.701 -11.274  12.865  0.00  0.00    +0.122 C 
BRANCH  12  14
ATOM      7  N   UNL     1      -5.677  -8.662  10.966  0.00  0.00    -0.263 NA
ATOM     14  C   UNL     1      -4.082 -10.273  11.807  0.00  0.00    -0.015 A 
ATOM     16  C   UNL     1      -3.248 -10.025  10.722  0.00  0.00    +0.008 A 
ATOM     17  C   UNL     1      -5.274  -9.572  11.882  0.00  0.00    +0.115 A 
ATOM     19  C   UNL     1      -3.628  -9.096   9.759  0.00  0.00    +0.020 A 
ATOM     20  C   UNL     1      -4.841  -8.447   9.926  0.00  0.00    +0.111 A 
ENDBRANCH  12  14
ENDBRANCH   4  12
TORSDOF 5
ENDMDL
MODEL 6
REMARK VINA RESULT:      -6.3      4.033      6.497
REMARK  Name = 26744397
REMARK  5 active torsions:
REMARK  status: ('A' for Active; 'I' for Inactive)
REMARK    1  A    between atoms: O_2  and  C_10
REMARK    2  A    between atoms: N_4  and  C_12
REMARK    3  A    between atoms: C_8  and  C_13
REMARK    4  A    between atoms: C_12  and  C_14
REMARK    5  A    between atoms: C_15  and  C_18
REMARK                            x       y       z     vdW  Elec       q    Type
REMARK                         _______ _______ _______ _____ _____    ______ ____
ROOT
ATOM      4  N   UNL     1      15.724   7.151  19.815  0.00  0.00    -0.285 NA
ATOM      8  C   UNL     1      15.965   7.287  21.266  0.00  0.00    +0.149 C 
ATOM      9  C   UNL     1      17.483   7.089  21.432  0.00  0.00    +0.061 C 
ATOM     10  C   UNL     1      18.000   6.802  20.028  0.00  0.00    +0.130 C 
ATOM     11  C   UNL     1      16.777   6.277  19.300  0.00  0.00    +0.116 C 
ENDROOT
BRANCH   8  13
ATOM      3  O   UNL     1      16.415   9.596  21.929  0.00  0.00    -0.336 OA
ATOM      5  N   UNL     1      14.283   8.965  22.200  0.00  0.00    -0.190 NA
ATOM      6  N   UNL     1      15.743  10.709  22.449  0.00  0.00    -0.056 NA
ATOM     13  C   UNL     1      15.484   8.613  21.814  0.00  0.00    +0.245 A 
ATOM     15  C   UNL     1      14.492  10.259  22.582  0.00  0.00    +0.202 A 
BRANCH  15  18
ATOM      1  F   UNL     1      10.364  13.425  24.555  0.00  0.00    -0.205 F 
ATOM     18  C   UNL     1      13.428  11.075  23.091  0.00  0.00    +0.023 A 
ATOM     21  C   UNL     1      13.559  11.700  24.331  0.00  0.00    +0.014 A 
ATOM     22  C   UNL     1      12.261  11.244  22.346  0.00  0.00    +0.014 A 
ATOM     23  C   UNL     1      12.525  12.494  24.825  0.00  0.00    +0.039 A 
ATOM     24  C   UNL     1      11.226  12.037  22.840  0.00  0.00    +0.039 A 
ATOM     25  C   UNL     1      11.358  12.663  24.080  0.00  0.00    +0.123 A 
ENDBRANCH  15  18
ENDBRANCH   8  13
BRANCH  10   2
ATOM      2  O   UNL     1      19.041   5.845  20.063  0.00  0.00    -0.390 OA
ATOM     26  H   UNL     1      19.881   6.322  19.951  0.00  0.00    +0.210 HD
ENDBRANCH  10   2
BRANCH   4  12
ATOM     12  C   UNL     1      14.393   6.649  19.499  0.00  0.00    +0.122 C 
BRANCH  12  14
ATOM      7  N   UNL     1      11.675   8.036  17.259  0.00  0.00    -0.263 NA
ATOM     14  C   UNL     1      13.643   7.585  18.588  0.00  0.00    -0.015 A 
ATOM     16  C   UNL     1      14.178   8.817  18.228  0.00  0.00    +0.008 A 
ATOM     17  C   UNL     1      12.400   7.244  18.081  0.00  0.00    +0.115 A 
ATOM     19  C   UNL     1      13.462   9.659  17.384  0.00  0.00    +0.020 A 
ATOM     20  C   UNL     1      12.226   9.226  16.931  0.00  0.00    +0.111 A 
ENDBRANCH  12  14
ENDBRANCH   4  12
TORSDOF 5
ENDMDL
MODEL 7
REMARK VINA RESULT:      -6.0     17.229     20.502
REMARK  Name = 26744397
REMARK  5 active torsions:
REMARK  status: ('A' for Active; 'I' for Inactive)
REMARK    1  A    between atoms: O_2  and  C_10
REMARK    2  A    between atoms: N_4  and  C_12
REMARK    3  A    between atoms: C_8  and  C_13
REMARK    4  A    between atoms: C_12  and  C_14
REMARK    5  A    between atoms: C_15  and  C_18
REMARK                            x       y       z     vdW  Elec       q    Type
REMARK                         _______ _______ _______ _____ _____    ______ ____
ROOT
ATOM      4  N   UNL     1      13.533   3.979  -0.604  0.00  0.00    -0.285 NA
ATOM      8  C   UNL     1      13.731   3.672   0.828  0.00  0.00    +0.149 C 
ATOM      9  C   UNL     1      15.010   4.433   1.220  0.00  0.00    +0.061 C 
ATOM     10  C   UNL     1      15.484   5.099  -0.066  0.00  0.00    +0.130 C 
ATOM     11  C   UNL     1      14.859   4.248  -1.156  0.00  0.00    +0.116 C 
ENDROOT
BRANCH   8  13
ATOM      3  O   UNL     1      11.954   3.058   2.389  0.00  0.00    -0.336 OA
ATOM      5  N   UNL     1      11.970   5.227   1.829  0.00  0.00    -0.190 NA
ATOM      6  N   UNL     1      10.889   3.648   3.084  0.00  0.00    -0.056 NA
ATOM     13  C   UNL     1      12.537   4.057   1.676  0.00  0.00    +0.245 A 
ATOM     15  C   UNL     1      10.964   4.926   2.701  0.00  0.00    +0.202 A 
BRANCH  15  18
ATOM      1  F   UNL     1       7.424   8.809   4.530  0.00  0.00    -0.205 F 
ATOM     18  C   UNL     1      10.051   5.927   3.172  0.00  0.00    +0.023 A 
ATOM     21  C   UNL     1       9.652   6.962   2.326  0.00  0.00    +0.014 A 
ATOM     22  C   UNL     1       9.562   5.866   4.477  0.00  0.00    +0.014 A 
ATOM     23  C   UNL     1       8.765   7.935   2.784  0.00  0.00    +0.039 A 
ATOM     24  C   UNL     1       8.675   6.839   4.936  0.00  0.00    +0.039 A 
ATOM     25  C   UNL     1       8.275   7.874   4.089  0.00  0.00    +0.123 A 
ENDBRANCH  15  18
ENDBRANCH   8  13
BRANCH  10   2
ATOM      2  O   UNL     1      16.896   5.096  -0.142  0.00  0.00    -0.390 OA
ATOM     26  H   UNL     1      17.172   4.208  -0.426  0.00  0.00    +0.210 HD
ENDBRANCH  10   2
BRANCH   4  12
ATOM     12  C   UNL     1      12.843   2.920  -1.328  0.00  0.00    +0.122 C 
BRANCH  12  14
ATOM      7  N   UNL     1       9.681   2.972  -3.409  0.00  0.00    -0.263 NA
ATOM     14  C   UNL     1      11.585   3.419  -1.987  0.00  0.00    -0.015 A 
ATOM     16  C   UNL     1      11.157   4.731  -1.813  0.00  0.00    +0.008 A 
ATOM     17  C   UNL     1      10.819   2.588  -2.787  0.00  0.00    +0.115 A 
ATOM     19  C   UNL     1       9.991   5.164  -2.437  0.00  0.00    +0.020 A 
ATOM     20  C   UNL     1       9.296   4.254  -3.217  0.00  0.00    +0.111 A 
ENDBRANCH  12  14
ENDBRANCH   4  12
TORSDOF 5
ENDMDL
MODEL 8
REMARK VINA RESULT:      -6.0     13.841     17.388
REMARK  Name = 26744397
REMARK  5 active torsions:
REMARK  status: ('A' for Active; 'I' for Inactive)
REMARK    1  A    between atoms: O_2  and  C_10
REMARK    2  A    between atoms: N_4  and  C_12
REMARK    3  A    between atoms: C_8  and  C_13
REMARK    4  A    between atoms: C_12  and  C_14
REMARK    5  A    between atoms: C_15  and  C_18
REMARK                            x       y       z     vdW  Elec       q    Type
REMARK                         _______ _______ _______ _____ _____    ______ ____
ROOT
ATOM      4  N   UNL     1      11.169   5.662   1.217  0.00  0.00    -0.285 NA
ATOM      8  C   UNL     1      10.968   4.568   2.190  0.00  0.00    +0.149 C 
ATOM      9  C   UNL     1      12.148   3.608   1.952  0.00  0.00    +0.061 C 
ATOM     10  C   UNL     1      12.930   4.222   0.797  0.00  0.00    +0.130 C 
ATOM     11  C   UNL     1      11.901   5.084   0.091  0.00  0.00    +0.116 C 
ENDROOT
BRANCH   8  13
ATOM      3  O   UNL     1      11.682   6.131   3.928  0.00  0.00    -0.336 OA
ATOM      5  N   UNL     1      10.179   4.620   4.617  0.00  0.00    -0.190 NA
ATOM      6  N   UNL     1      11.447   6.405   5.282  0.00  0.00    -0.056 NA
ATOM     13  C   UNL     1      10.897   5.066   3.618  0.00  0.00    +0.245 A 
ATOM     15  C   UNL     1      10.551   5.472   5.617  0.00  0.00    +0.202 A 
BRANCH  15  18
ATOM      1  F   UNL     1       8.436   5.058  10.747  0.00  0.00    -0.205 F 
ATOM     18  C   UNL     1      10.006   5.365   6.940  0.00  0.00    +0.023 A 
ATOM     21  C   UNL     1      10.017   4.137   7.602  0.00  0.00    +0.014 A 
ATOM     22  C   UNL     1       9.465   6.489   7.563  0.00  0.00    +0.014 A 
ATOM     23  C   UNL     1       9.487   4.034   8.887  0.00  0.00    +0.039 A 
ATOM     24  C   UNL     1       8.935   6.386   8.849  0.00  0.00    +0.039 A 
ATOM     25  C   UNL     1       8.946   5.158   9.512  0.00  0.00    +0.123 A 
ENDBRANCH  15  18
ENDBRANCH   8  13
BRANCH  10   2
ATOM      2  O   UNL     1      13.443   3.214  -0.052  0.00  0.00    -0.390 OA
ATOM     26  H   UNL     1      14.333   3.490  -0.329  0.00  0.00    +0.210 HD
ENDBRANCH  10   2
BRANCH   4  12
ATOM     12  C   UNL     1       9.925   6.292   0.796  0.00  0.00    +0.122 C 
BRANCH  12  14
ATOM      7  N   UNL     1       8.777   9.192   2.942  0.00  0.00    -0.263 NA
ATOM     14  C   UNL     1       9.792   7.689   1.343  0.00  0.00    -0.015 A 
ATOM     16  C   UNL     1      10.512   8.745   0.796  0.00  0.00    +0.008 A 
ATOM     17  C   UNL     1       8.945   7.962   2.405  0.00  0.00    +0.115 A 
ATOM     19  C   UNL     1      10.366  10.024   1.321  0.00  0.00    +0.020 A 
ATOM     20  C   UNL     1       9.494  10.193   2.385  0.00  0.00    +0.111 A 
ENDBRANCH  12  14
ENDBRANCH   4  12
TORSDOF 5
ENDMDL
MODEL 9
REMARK VINA RESULT:      -6.0     13.709     16.684
REMARK  Name = 26744397
REMARK  5 active torsions:
REMARK  status: ('A' for Active; 'I' for Inactive)
REMARK    1  A    between atoms: O_2  and  C_10
REMARK    2  A    between atoms: N_4  and  C_12
REMARK    3  A    between atoms: C_8  and  C_13
REMARK    4  A    between atoms: C_12  and  C_14
REMARK    5  A    between atoms: C_15  and  C_18
REMARK                            x       y       z     vdW  Elec       q    Type
REMARK                         _______ _______ _______ _____ _____    ______ ____
ROOT
ATOM      4  N   UNL     1       9.270   6.758   7.306  0.00  0.00    -0.285 NA
ATOM      8  C   UNL     1      10.739   6.647   7.194  0.00  0.00    +0.149 C 
ATOM      9  C   UNL     1      11.113   5.454   8.093  0.00  0.00    +0.061 C 
ATOM     10  C   UNL     1       9.795   4.989   8.701  0.00  0.00    +0.130 C 
ATOM     11  C   UNL     1       8.913   6.220   8.617  0.00  0.00    +0.116 C 
ENDROOT
BRANCH   8  13
ATOM      3  O   UNL     1      12.189   7.306   5.341  0.00  0.00    -0.336 OA
ATOM      5  N   UNL     1      10.791   5.624   4.856  0.00  0.00    -0.190 NA
ATOM      6  N   UNL     1      12.445   6.959   4.008  0.00  0.00    -0.056 NA
ATOM     13  C   UNL     1      11.203   6.473   5.764  0.00  0.00    +0.245 A 
ATOM     15  C   UNL     1      11.581   5.961   3.795  0.00  0.00    +0.202 A 
BRANCH  15  18
ATOM      1  F   UNL     1      11.206   3.317  -1.086  0.00  0.00    -0.205 F 
ATOM     18  C   UNL     1      11.485   5.280   2.537  0.00  0.00    +0.023 A 
ATOM     21  C   UNL     1      12.542   4.487   2.089  0.00  0.00    +0.014 A 
ATOM     22  C   UNL     1      10.333   5.408   1.761  0.00  0.00    +0.014 A 
ATOM     23  C   UNL     1      12.448   3.825   0.866  0.00  0.00    +0.039 A 
ATOM     24  C   UNL     1      10.238   4.745   0.537  0.00  0.00    +0.039 A 
ATOM     25  C   UNL     1      11.296   3.953   0.090  0.00  0.00    +0.123 A 
ENDBRANCH  15  18
ENDBRANCH   8  13
BRANCH  10   2
ATOM      2  O   UNL     1       9.982   4.566  10.037  0.00  0.00    -0.390 OA
ATOM     26  H   UNL     1      10.924   4.354  10.148  0.00  0.00    +0.210 HD
ENDBRANCH  10   2
BRANCH   4  12
ATOM     12  C   UNL     1       8.781   8.118   7.119  0.00  0.00    +0.122 C 
BRANCH  12  14
ATOM      7  N   UNL     1       9.447  10.049   3.933  0.00  0.00    -0.263 NA
ATOM     14  C   UNL     1       8.759   8.511   5.666  0.00  0.00    -0.015 A 
ATOM     16  C   UNL     1       8.065   7.753   4.729  0.00  0.00    +0.008 A 
ATOM     17  C   UNL     1       9.427   9.639   5.221  0.00  0.00    +0.115 A 
ATOM     19  C   UNL     1       8.061   8.143   3.394  0.00  0.00    +0.020 A 
ATOM     20  C   UNL     1       8.761   9.288   3.050  0.00  0.00    +0.111 A 
ENDBRANCH  12  14
ENDBRANCH   4  12
TORSDOF 5
ENDMDL
MODEL 10
REMARK VINA RESULT:      -6.0     27.325     28.642
REMARK  Name = 26744397
REMARK  5 active torsions:
REMARK  status: ('A' for Active; 'I' for Inactive)
REMARK    1  A    between atoms: O_2  and  C_10
REMARK    2  A    between atoms: N_4  and  C_12
REMARK    3  A    between atoms: C_8  and  C_13
REMARK    4  A    between atoms: C_12  and  C_14
REMARK    5  A    between atoms: C_15  and  C_18
REMARK                            x       y       z     vdW  Elec       q    Type
REMARK                         _______ _______ _______ _____ _____    ______ ____
ROOT
ATOM      4  N   UNL     1      -4.665  -9.908   9.948  0.00  0.00    -0.285 NA
ATOM      8  C   UNL     1      -5.430  -8.839  10.624  0.00  0.00    +0.149 C 
ATOM      9  C   UNL     1      -6.573  -8.497   9.652  0.00  0.00    +0.061 C 
ATOM     10  C   UNL     1      -6.341  -9.391   8.440  0.00  0.00    +0.130 C 
ATOM     11  C   UNL     1      -4.860  -9.710   8.513  0.00  0.00    +0.116 C 
ENDROOT
BRANCH   8  13
ATOM      3  O   UNL     1      -7.257  -9.518  12.098  0.00  0.00    -0.336 OA
ATOM      5  N   UNL     1      -5.261  -9.408  13.108  0.00  0.00    -0.190 NA
ATOM      6  N   UNL     1      -7.475  -9.879  13.434  0.00  0.00    -0.056 NA
ATOM     13  C   UNL     1      -5.928  -9.257  11.992  0.00  0.00    +0.245 A 
ATOM     15  C   UNL     1      -6.252  -9.789  13.964  0.00  0.00    +0.202 A 
BRANCH  15  18
ATOM      1  F   UNL     1      -5.222 -10.901  19.318  0.00  0.00    -0.205 F 
ATOM     18  C   UNL     1      -5.986 -10.076  15.345  0.00  0.00    +0.023 A 
ATOM     21  C   UNL     1      -4.723 -10.521  15.734  0.00  0.00    +0.014 A 
ATOM     22  C   UNL     1      -6.991  -9.909  16.297  0.00  0.00    +0.014 A 
ATOM     23  C   UNL     1      -4.465 -10.799  17.076  0.00  0.00    +0.039 A 
ATOM     24  C   UNL     1      -6.733 -10.188  17.639  0.00  0.00    +0.039 A 
ATOM     25  C   UNL     1      -5.470 -10.633  18.029  0.00  0.00    +0.123 A 
ENDBRANCH  15  18
ENDBRANCH   8  13
BRANCH  10   2
ATOM      2  O   UNL     1      -6.674  -8.711   7.245  0.00  0.00    -0.390 OA
ATOM     26  H   UNL     1      -7.631  -8.538   7.264  0.00  0.00    +0.210 HD
ENDBRANCH  10   2
BRANCH   4  12
ATOM     12  C   UNL     1      -3.255  -9.925  10.312  0.00  0.00    +0.122 C 
BRANCH  12  14
ATOM      7  N   UNL     1      -3.115 -13.463  11.649  0.00  0.00    -0.263 NA
ATOM     14  C   UNL     1      -2.918 -11.097  11.195  0.00  0.00    -0.015 A 
ATOM     16  C   UNL     1      -2.138 -10.935  12.335  0.00  0.00    +0.008 A 
ATOM     17  C   UNL     1      -3.379 -12.369  10.899  0.00  0.00    +0.115 A 
ATOM     19  C   UNL     1      -1.846 -12.037  13.132  0.00  0.00    +0.020 A 
ATOM     20  C   UNL     1      -2.354 -13.268  12.749  0.00  0.00    +0.111 A 
ENDBRANCH  12  14
ENDBRANCH   4  12
TORSDOF 5
ENDMDL
