MODEL 1
REMARK VINA RESULT:      -7.1      0.000      0.000
REMARK  Name = 45361520
REMARK  11 active torsions:
REMARK  status: ('A' for Active; 'I' for Inactive)
REMARK    1  A    between atoms: O_1  and  C_10
REMARK    2  A    between atoms: N_5  and  C_14
REMARK    3  A    between atoms: N_6  and  C_24
REMARK    4  A    between atoms: C_7  and  C_17
REMARK    5  A    between atoms: C_9  and  C_19
REMARK    6  A    between atoms: C_13  and  C_18
REMARK    7  A    between atoms: C_18  and  C_20
REMARK    8  A    between atoms: C_18  and  C_21
REMARK    9  A    between atoms: C_22  and  C_23
REMARK   10  A    between atoms: C_23  and  C_25
REMARK   11  A    between atoms: C_24  and  C_26
REMARK                            x       y       z     vdW  Elec       q    Type
REMARK                         _______ _______ _______ _____ _____    ______ ____
ROOT
ATOM      7  C   UNL     1       9.509   6.775   6.698  0.00  0.00    -0.027 C 
ATOM      8  C   UNL     1      10.651   7.480   5.892  0.00  0.00    +0.028 C 
ATOM      9  C   UNL     1      11.544   6.423   5.148  0.00  0.00    +0.012 C 
ATOM     10  C   UNL     1      11.421   8.499   6.780  0.00  0.00    +0.122 C 
ATOM     11  C   UNL     1       8.584   7.845   7.324  0.00  0.00    +0.007 C 
ATOM     12  C   UNL     1       8.656   5.927   5.726  0.00  0.00    +0.009 C 
ATOM     13  C   UNL     1      10.480   9.502   7.487  0.00  0.00    +0.029 C 
ATOM     14  C   UNL     1      10.666   5.526   4.230  0.00  0.00    +0.076 C 
ATOM     15  C   UNL     1       9.328   8.820   8.226  0.00  0.00    +0.007 C 
ATOM     16  C   UNL     1       9.474   4.900   4.954  0.00  0.00    +0.023 C 
ATOM     17  C   UNL     1      10.053   5.865   7.826  0.00  0.00    +0.011 C 
ATOM     19  C   UNL     1      12.672   7.050   4.310  0.00  0.00    +0.010 C 
ENDROOT
BRANCH  14   5
ATOM      3  O   UNL     1      10.389   4.522   1.547  0.00  0.00    -0.275 OA
ATOM      5  N   UNL     1      11.438   4.467   3.617  0.00  0.00    -0.312 N 
ATOM     22  C   UNL     1      11.228   4.053   2.311  0.00  0.00    +0.218 C 
ATOM     35  H   UNL     1      12.111   3.978   4.199  0.00  0.00    +0.149 HD
BRANCH  22  23
ATOM     23  C   UNL     1      12.178   2.935   1.927  0.00  0.00    +0.130 C 
BRANCH  23  25
ATOM     25  C   UNL     1      13.273   3.377   0.993  0.00  0.00    -0.039 A 
ATOM     27  C   UNL     1      14.553   3.630   1.488  0.00  0.00    +0.004 A 
ATOM     28  C   UNL     1      13.009   3.535  -0.368  0.00  0.00    +0.004 A 
ATOM     30  C   UNL     1      15.568   4.040   0.624  0.00  0.00    +0.000 A 
ATOM     31  C   UNL     1      14.024   3.944  -1.233  0.00  0.00    +0.000 A 
ATOM     32  C   UNL     1      15.304   4.197  -0.737  0.00  0.00    +0.000 A 
ENDBRANCH  23  25
ENDBRANCH  22  23
ENDBRANCH  14   5
BRANCH  10   1
ATOM      1  O   UNL     1      12.303   9.271   5.965  0.00  0.00    -0.391 OA
ATOM     36  H   UNL     1      12.968   9.682   6.544  0.00  0.00    +0.210 HD
ENDBRANCH  10   1
BRANCH  13  18
ATOM     18  C   UNL     1      11.244  10.411   8.457  0.00  0.00    +0.077 C 
ATOM     20  C   UNL     1      10.265  11.214   9.305  0.00  0.00    +0.017 C 
BRANCH  18  21
ATOM      2  O   UNL     1      11.786  12.142   6.852  0.00  0.00    -0.276 OA
ATOM      6  N   UNL     1      13.517  11.124   8.012  0.00  0.00    -0.308 N 
ATOM     21  C   UNL     1      12.186  11.325   7.679  0.00  0.00    +0.217 C 
ATOM     37  H   UNL     1      13.761  10.406   8.687  0.00  0.00    +0.149 HD
BRANCH   6  24
ATOM     24  C   UNL     1      14.596  11.870   7.405  0.00  0.00    +0.178 C 
BRANCH  24  26
ATOM      4  O   UNL     1      15.147   9.684   6.496  0.00  0.00    -0.466 OA
ATOM     26  C   UNL     1      15.518  10.986   6.618  0.00  0.00    +0.122 A 
ATOM     29  C   UNL     1      16.707  11.212   5.962  0.00  0.00    +0.046 A 
ATOM     33  C   UNL     1      17.090   9.970   5.403  0.00  0.00    +0.041 A 
ATOM     34  C   UNL     1      16.108   9.073   5.756  0.00  0.00    +0.195 A 
ENDBRANCH  24  26
ENDBRANCH   6  24
ENDBRANCH  18  21
ENDBRANCH  13  18
TORSDOF 8
ENDMDL
MODEL 2
REMARK VINA RESULT:      -7.1     24.447     27.384
REMARK  Name = 45361520
REMARK  11 active torsions:
REMARK  status: ('A' for Active; 'I' for Inactive)
REMARK    1  A    between atoms: O_1  and  C_10
REMARK    2  A    between atoms: N_5  and  C_14
REMARK    3  A    between atoms: N_6  and  C_24
REMARK    4  A    between atoms: C_7  and  C_17
REMARK    5  A    between atoms: C_9  and  C_19
REMARK    6  A    between atoms: C_13  and  C_18
REMARK    7  A    between atoms: C_18  and  C_20
REMARK    8  A    between atoms: C_18  and  C_21
REMARK    9  A    between atoms: C_22  and  C_23
REMARK   10  A    between atoms: C_23  and  C_25
REMARK   11  A    between atoms: C_24  and  C_26
REMARK                            x       y       z     vdW  Elec       q    Type
REMARK                         _______ _______ _______ _____ _____    ______ ____
ROOT
ATOM      7  C   UNL     1      -4.098 -10.284  10.448  0.00  0.00    -0.027 C 
ATOM      8  C   UNL     1      -5.383  -9.804  11.202  0.00  0.00    +0.028 C 
ATOM      9  C   UNL     1      -5.577 -10.602  12.541  0.00  0.00    +0.012 C 
ATOM     10  C   UNL     1      -6.616  -9.778  10.253  0.00  0.00    +0.122 C 
ATOM     11  C   UNL     1      -3.874  -9.403   9.197  0.00  0.00    +0.007 C 
ATOM     12  C   UNL     1      -2.873 -10.104  11.375  0.00  0.00    +0.009 C 
ATOM     13  C   UNL     1      -6.350  -8.982   8.954  0.00  0.00    +0.029 C 
ATOM     14  C   UNL     1      -4.310 -10.476  13.433  0.00  0.00    +0.076 C 
ATOM     15  C   UNL     1      -5.064  -9.408   8.247  0.00  0.00    +0.007 C 
ATOM     16  C   UNL     1      -3.015 -10.835  12.703  0.00  0.00    +0.023 C 
ATOM     17  C   UNL     1      -4.189 -11.766  10.006  0.00  0.00    +0.011 C 
ATOM     19  C   UNL     1      -6.809 -10.160  13.349  0.00  0.00    +0.010 C 
ENDROOT
BRANCH  14   5
ATOM      3  O   UNL     1      -2.757 -10.208  15.841  0.00  0.00    -0.275 OA
ATOM      5  N   UNL     1      -4.408 -11.294  14.623  0.00  0.00    -0.312 N 
ATOM     22  C   UNL     1      -3.611 -11.083  15.737  0.00  0.00    +0.218 C 
ATOM     35  H   UNL     1      -5.044 -12.084  14.599  0.00  0.00    +0.149 HD
BRANCH  22  23
ATOM     23  C   UNL     1      -3.927 -12.078  16.838  0.00  0.00    +0.130 C 
BRANCH  23  25
ATOM     25  C   UNL     1      -4.900 -11.549  17.858  0.00  0.00    -0.039 A 
ATOM     27  C   UNL     1      -6.047 -10.872  17.443  0.00  0.00    +0.004 A 
ATOM     28  C   UNL     1      -4.656 -11.736  19.219  0.00  0.00    +0.004 A 
ATOM     30  C   UNL     1      -6.949 -10.382  18.387  0.00  0.00    +0.000 A 
ATOM     31  C   UNL     1      -5.558 -11.247  20.164  0.00  0.00    +0.000 A 
ATOM     32  C   UNL     1      -6.704 -10.570  19.747  0.00  0.00    +0.000 A 
ENDBRANCH  23  25
ENDBRANCH  22  23
ENDBRANCH  14   5
BRANCH  10   1
ATOM      1  O   UNL     1      -7.709  -9.135  10.910  0.00  0.00    -0.391 OA
ATOM     36  H   UNL     1      -8.120  -9.779  11.512  0.00  0.00    +0.210 HD
ENDBRANCH  10   1
BRANCH  13  18
ATOM     18  C   UNL     1      -7.529  -9.079   7.978  0.00  0.00    +0.077 C 
ATOM     20  C   UNL     1      -7.181 -10.017   6.827  0.00  0.00    +0.017 C 
BRANCH  18  21
ATOM      2  O   UNL     1      -7.877  -7.389   6.278  0.00  0.00    -0.276 OA
ATOM      6  N   UNL     1      -8.252  -6.825   8.496  0.00  0.00    -0.308 N 
ATOM     21  C   UNL     1      -7.899  -7.688   7.471  0.00  0.00    +0.217 C 
ATOM     37  H   UNL     1      -8.213  -7.149   9.458  0.00  0.00    +0.149 HD
BRANCH   6  24
ATOM     24  C   UNL     1      -8.639  -5.452   8.264  0.00  0.00    +0.178 C 
BRANCH  24  26
ATOM      4  O   UNL     1     -10.682  -6.181   9.360  0.00  0.00    -0.466 OA
ATOM     26  C   UNL     1      -9.963  -5.127   8.891  0.00  0.00    +0.122 A 
ATOM     29  C   UNL     1     -10.638  -3.948   9.107  0.00  0.00    +0.046 A 
ATOM     33  C   UNL     1     -11.850  -4.300   9.748  0.00  0.00    +0.041 A 
ATOM     34  C   UNL     1     -11.829  -5.669   9.880  0.00  0.00    +0.195 A 
ENDBRANCH  24  26
ENDBRANCH   6  24
ENDBRANCH  18  21
ENDBRANCH  13  18
TORSDOF 8
ENDMDL
MODEL 3
REMARK VINA RESULT:      -7.0     29.788     33.709
REMARK  Name = 45361520
REMARK  11 active torsions:
REMARK  status: ('A' for Active; 'I' for Inactive)
REMARK    1  A    between atoms: O_1  and  C_10
REMARK    2  A    between atoms: N_5  and  C_14
REMARK    3  A    between atoms: N_6  and  C_24
REMARK    4  A    between atoms: C_7  and  C_17
REMARK    5  A    between atoms: C_9  and  C_19
REMARK    6  A    between atoms: C_13  and  C_18
REMARK    7  A    between atoms: C_18  and  C_20
REMARK    8  A    between atoms: C_18  and  C_21
REMARK    9  A    between atoms: C_22  and  C_23
REMARK   10  A    between atoms: C_23  and  C_25
REMARK   11  A    between atoms: C_24  and  C_26
REMARK                            x       y       z     vdW  Elec       q    Type
REMARK                         _______ _______ _______ _____ _____    ______ ____
ROOT
ATOM      7  C   UNL     1     -17.539   4.666  21.699  0.00  0.00    -0.027 C 
ATOM      8  C   UNL     1     -16.251   4.401  22.547  0.00  0.00    +0.028 C 
ATOM      9  C   UNL     1     -16.623   3.854  23.972  0.00  0.00    +0.012 C 
ATOM     10  C   UNL     1     -15.302   5.634  22.530  0.00  0.00    +0.122 C 
ATOM     11  C   UNL     1     -17.136   5.094  20.268  0.00  0.00    +0.007 C 
ATOM     12  C   UNL     1     -18.348   3.353  21.586  0.00  0.00    +0.009 C 
ATOM     13  C   UNL     1     -14.986   6.122  21.097  0.00  0.00    +0.029 C 
ATOM     14  C   UNL     1     -17.498   2.576  23.847  0.00  0.00    +0.076 C 
ATOM     15  C   UNL     1     -16.239   6.324  20.246  0.00  0.00    +0.007 C 
ATOM     16  C   UNL     1     -18.715   2.759  22.940  0.00  0.00    +0.023 C 
ATOM     17  C   UNL     1     -18.439   5.767  22.313  0.00  0.00    +0.011 C 
ATOM     19  C   UNL     1     -15.400   3.544  24.851  0.00  0.00    +0.010 C 
ENDROOT
BRANCH  14   5
ATOM      3  O   UNL     1     -16.996   0.000  25.029  0.00  0.00    -0.275 OA
ATOM      5  N   UNL     1     -17.956   2.111  25.139  0.00  0.00    -0.312 N 
ATOM     22  C   UNL     1     -17.659   0.846  25.622  0.00  0.00    +0.218 C 
ATOM     35  H   UNL     1     -18.568   2.723  25.670  0.00  0.00    +0.149 HD
BRANCH  22  23
ATOM     23  C   UNL     1     -18.258   0.626  26.998  0.00  0.00    +0.130 C 
BRANCH  23  25
ATOM     25  C   UNL     1     -17.537   1.373  28.089  0.00  0.00    -0.039 A 
ATOM     27  C   UNL     1     -16.255   0.980  28.474  0.00  0.00    +0.004 A 
ATOM     28  C   UNL     1     -18.150   2.458  28.716  0.00  0.00    +0.004 A 
ATOM     30  C   UNL     1     -15.586   1.671  29.484  0.00  0.00    +0.000 A 
ATOM     31  C   UNL     1     -17.481   3.150  29.725  0.00  0.00    +0.000 A 
ATOM     32  C   UNL     1     -16.199   2.756  30.109  0.00  0.00    +0.000 A 
ENDBRANCH  23  25
ENDBRANCH  22  23
ENDBRANCH  14   5
BRANCH  10   1
ATOM      1  O   UNL     1     -14.053   5.282  23.127  0.00  0.00    -0.391 OA
ATOM     36  H   UNL     1     -13.726   4.478  22.690  0.00  0.00    +0.210 HD
ENDBRANCH  10   1
BRANCH  13  18
ATOM     18  C   UNL     1     -14.158   7.413  21.106  0.00  0.00    +0.077 C 
ATOM     20  C   UNL     1     -14.863   8.494  20.296  0.00  0.00    +0.017 C 
BRANCH  18  21
ATOM      2  O   UNL     1     -11.926   6.476  21.185  0.00  0.00    -0.276 OA
ATOM      6  N   UNL     1     -12.547   7.706  19.320  0.00  0.00    -0.308 N 
ATOM     21  C   UNL     1     -12.758   7.136  20.566  0.00  0.00    +0.217 C 
ATOM     37  H   UNL     1     -13.282   8.261  18.893  0.00  0.00    +0.149 HD
BRANCH   6  24
ATOM     24  C   UNL     1     -11.297   7.584  18.606  0.00  0.00    +0.178 C 
BRANCH  24  26
ATOM      4  O   UNL     1     -10.478   9.046  16.845  0.00  0.00    -0.466 OA
ATOM     26  C   UNL     1     -10.766   8.917  18.168  0.00  0.00    +0.122 A 
ATOM     29  C   UNL     1     -10.495  10.089  18.837  0.00  0.00    +0.046 A 
ATOM     33  C   UNL     1     -10.009  10.994  17.864  0.00  0.00    +0.041 A 
ATOM     34  C   UNL     1     -10.019  10.312  16.669  0.00  0.00    +0.195 A 
ENDBRANCH  24  26
ENDBRANCH   6  24
ENDBRANCH  18  21
ENDBRANCH  13  18
TORSDOF 8
ENDMDL
MODEL 4
REMARK VINA RESULT:      -7.0      2.699      9.413
REMARK  Name = 45361520
REMARK  11 active torsions:
REMARK  status: ('A' for Active; 'I' for Inactive)
REMARK    1  A    between atoms: O_1  and  C_10
REMARK    2  A    between atoms: N_5  and  C_14
REMARK    3  A    between atoms: N_6  and  C_24
REMARK    4  A    between atoms: C_7  and  C_17
REMARK    5  A    between atoms: C_9  and  C_19
REMARK    6  A    between atoms: C_13  and  C_18
REMARK    7  A    between atoms: C_18  and  C_20
REMARK    8  A    between atoms: C_18  and  C_21
REMARK    9  A    between atoms: C_22  and  C_23
REMARK   10  A    between atoms: C_23  and  C_25
REMARK   11  A    between atoms: C_24  and  C_26
REMARK                            x       y       z     vdW  Elec       q    Type
REMARK                         _______ _______ _______ _____ _____    ______ ____
ROOT
ATOM      7  C   UNL     1       9.439   6.236   6.215  0.00  0.00    -0.027 C 
ATOM      8  C   UNL     1      10.498   7.288   5.743  0.00  0.00    +0.028 C 
ATOM      9  C   UNL     1      10.062   8.741   6.148  0.00  0.00    +0.012 C 
ATOM     10  C   UNL     1      10.857   7.091   4.242  0.00  0.00    +0.122 C 
ATOM     11  C   UNL     1       9.952   4.811   5.903  0.00  0.00    +0.007 C 
ATOM     12  C   UNL     1       9.266   6.348   7.748  0.00  0.00    +0.009 C 
ATOM     13  C   UNL     1      11.269   5.636   3.914  0.00  0.00    +0.029 C 
ATOM     14  C   UNL     1       9.818   8.823   7.681  0.00  0.00    +0.076 C 
ATOM     15  C   UNL     1      10.267   4.603   4.427  0.00  0.00    +0.007 C 
ATOM     16  C   UNL     1       8.869   7.745   8.204  0.00  0.00    +0.023 C 
ATOM     17  C   UNL     1       8.063   6.432   5.531  0.00  0.00    +0.011 C 
ATOM     19  C   UNL     1      11.074   9.825   5.740  0.00  0.00    +0.010 C 
ENDROOT
BRANCH  14   5
ATOM      3  O   UNL     1      11.141  10.777   9.329  0.00  0.00    -0.275 OA
ATOM      5  N   UNL     1       9.303  10.117   8.074  0.00  0.00    -0.312 N 
ATOM     22  C   UNL     1      10.021  10.992   8.874  0.00  0.00    +0.218 C 
ATOM     35  H   UNL     1       8.355  10.351   7.796  0.00  0.00    +0.149 HD
BRANCH  22  23
ATOM     23  C   UNL     1       9.248  12.273   9.125  0.00  0.00    +0.130 C 
BRANCH  23  25
ATOM     25  C   UNL     1       9.373  12.778  10.538  0.00  0.00    -0.039 A 
ATOM     27  C   UNL     1       8.717  12.115  11.576  0.00  0.00    +0.004 A 
ATOM     28  C   UNL     1      10.143  13.909  10.811  0.00  0.00    +0.004 A 
ATOM     30  C   UNL     1       8.832  12.582  12.885  0.00  0.00    +0.000 A 
ATOM     31  C   UNL     1      10.259  14.375  12.120  0.00  0.00    +0.000 A 
ATOM     32  C   UNL     1       9.602  13.712  13.157  0.00  0.00    +0.000 A 
ENDBRANCH  23  25
ENDBRANCH  22  23
ENDBRANCH  14   5
BRANCH  10   1
ATOM      1  O   UNL     1      11.973   7.917   3.906  0.00  0.00    -0.391 OA
ATOM     36  H   UNL     1      12.589   7.912   4.658  0.00  0.00    +0.210 HD
ENDBRANCH  10   1
BRANCH  13  18
ATOM     18  C   UNL     1      11.491   5.434   2.411  0.00  0.00    +0.077 C 
ATOM     20  C   UNL     1      10.701   4.226   1.922  0.00  0.00    +0.017 C 
BRANCH  18  21
ATOM      2  O   UNL     1      13.761   6.229   2.124  0.00  0.00    -0.276 OA
ATOM      6  N   UNL     1      13.338   3.963   1.863  0.00  0.00    -0.308 N 
ATOM     21  C   UNL     1      12.982   5.278   2.122  0.00  0.00    +0.217 C 
ATOM     37  H   UNL     1      12.622   3.243   1.854  0.00  0.00    +0.149 HD
BRANCH   6  24
ATOM     24  C   UNL     1      14.694   3.567   1.561  0.00  0.00    +0.178 C 
BRANCH  24  26
ATOM      4  O   UNL     1      14.112   3.914  -0.773  0.00  0.00    -0.466 OA
ATOM     26  C   UNL     1      15.094   3.949   0.166  0.00  0.00    +0.122 A 
ATOM     29  C   UNL     1      16.286   4.345  -0.396  0.00  0.00    +0.046 A 
ATOM     33  C   UNL     1      16.020   4.566  -1.768  0.00  0.00    +0.041 A 
ATOM     34  C   UNL     1      14.683   4.291  -1.947  0.00  0.00    +0.195 A 
ENDBRANCH  24  26
ENDBRANCH   6  24
ENDBRANCH  18  21
ENDBRANCH  13  18
TORSDOF 8
ENDMDL
MODEL 5
REMARK VINA RESULT:      -6.9     24.469     27.142
REMARK  Name = 45361520
REMARK  11 active torsions:
REMARK  status: ('A' for Active; 'I' for Inactive)
REMARK    1  A    between atoms: O_1  and  C_10
REMARK    2  A    between atoms: N_5  and  C_14
REMARK    3  A    between atoms: N_6  and  C_24
REMARK    4  A    between atoms: C_7  and  C_17
REMARK    5  A    between atoms: C_9  and  C_19
REMARK    6  A    between atoms: C_13  and  C_18
REMARK    7  A    between atoms: C_18  and  C_20
REMARK    8  A    between atoms: C_18  and  C_21
REMARK    9  A    between atoms: C_22  and  C_23
REMARK   10  A    between atoms: C_23  and  C_25
REMARK   11  A    between atoms: C_24  and  C_26
REMARK                            x       y       z     vdW  Elec       q    Type
REMARK                         _______ _______ _______ _____ _____    ______ ____
ROOT
ATOM      7  C   UNL     1      -3.496 -11.006  11.237  0.00  0.00    -0.027 C 
ATOM      8  C   UNL     1      -4.838 -10.431  11.801  0.00  0.00    +0.028 C 
ATOM      9  C   UNL     1      -5.458  -9.383  10.808  0.00  0.00    +0.012 C 
ATOM     10  C   UNL     1      -4.670  -9.943  13.269  0.00  0.00    +0.122 C 
ATOM     11  C   UNL     1      -2.972 -12.113  12.181  0.00  0.00    +0.007 C 
ATOM     12  C   UNL     1      -3.764 -11.652   9.858  0.00  0.00    +0.009 C 
ATOM     13  C   UNL     1      -4.048 -11.021  14.186  0.00  0.00    +0.029 C 
ATOM     14  C   UNL     1      -5.654 -10.021   9.404  0.00  0.00    +0.076 C 
ATOM     15  C   UNL     1      -2.768 -11.628  13.611  0.00  0.00    +0.007 C 
ATOM     16  C   UNL     1      -4.392 -10.689   8.859  0.00  0.00    +0.023 C 
ATOM     17  C   UNL     1      -2.402  -9.920  11.087  0.00  0.00    +0.011 C 
ATOM     19  C   UNL     1      -6.798  -8.798  11.288  0.00  0.00    +0.010 C 
ENDROOT
BRANCH  14   5
ATOM      3  O   UNL     1      -7.904 -10.295   7.630  0.00  0.00    -0.275 OA
ATOM      5  N   UNL     1      -6.116  -9.052   8.434  0.00  0.00    -0.312 N 
ATOM     22  C   UNL     1      -7.216  -9.278   7.622  0.00  0.00    +0.218 C 
ATOM     35  H   UNL     1      -5.565  -8.208   8.313  0.00  0.00    +0.149 HD
BRANCH  22  23
ATOM     23  C   UNL     1      -7.478  -8.098   6.706  0.00  0.00    +0.130 C 
BRANCH  23  25
ATOM     25  C   UNL     1      -8.588  -7.203   7.190  0.00  0.00    -0.039 A 
ATOM     27  C   UNL     1      -8.309  -6.162   8.076  0.00  0.00    +0.004 A 
ATOM     28  C   UNL     1      -9.896  -7.413   6.754  0.00  0.00    +0.004 A 
ATOM     30  C   UNL     1      -9.336  -5.332   8.525  0.00  0.00    +0.000 A 
ATOM     31  C   UNL     1     -10.924  -6.583   7.202  0.00  0.00    +0.000 A 
ATOM     32  C   UNL     1     -10.643  -5.543   8.088  0.00  0.00    +0.000 A 
ENDBRANCH  23  25
ENDBRANCH  22  23
ENDBRANCH  14   5
BRANCH  10   1
ATOM      1  O   UNL     1      -5.951  -9.630  13.817  0.00  0.00    -0.391 OA
ATOM     36  H   UNL     1      -6.514  -9.299  13.097  0.00  0.00    +0.210 HD
ENDBRANCH  10   1
BRANCH  13  18
ATOM     18  C   UNL     1      -3.769 -10.479  15.593  0.00  0.00    +0.077 C 
ATOM     20  C   UNL     1      -2.310 -10.709  15.966  0.00  0.00    +0.017 C 
BRANCH  18  21
ATOM      2  O   UNL     1      -4.597 -12.309  16.946  0.00  0.00    -0.276 OA
ATOM      6  N   UNL     1      -5.688 -10.265  17.059  0.00  0.00    -0.308 N 
ATOM     21  C   UNL     1      -4.711 -11.135  16.599  0.00  0.00    +0.217 C 
ATOM     37  H   UNL     1      -5.726  -9.318  16.695  0.00  0.00    +0.149 HD
BRANCH   6  24
ATOM     24  C   UNL     1      -6.696 -10.658  18.016  0.00  0.00    +0.178 C 
BRANCH  24  26
ATOM      4  O   UNL     1      -9.050 -10.349  18.537  0.00  0.00    -0.466 OA
ATOM     26  C   UNL     1      -7.986  -9.917  17.811  0.00  0.00    +0.122 A 
ATOM     29  C   UNL     1      -8.343  -8.852  17.016  0.00  0.00    +0.046 A 
ATOM     33  C   UNL     1      -9.714  -8.615  17.271  0.00  0.00    +0.041 A 
ATOM     34  C   UNL     1     -10.098  -9.551  18.203  0.00  0.00    +0.195 A 
ENDBRANCH  24  26
ENDBRANCH   6  24
ENDBRANCH  18  21
ENDBRANCH  13  18
TORSDOF 8
ENDMDL
MODEL 6
REMARK VINA RESULT:      -6.8     24.436     27.863
REMARK  Name = 45361520
REMARK  11 active torsions:
REMARK  status: ('A' for Active; 'I' for Inactive)
REMARK    1  A    between atoms: O_1  and  C_10
REMARK    2  A    between atoms: N_5  and  C_14
REMARK    3  A    between atoms: N_6  and  C_24
REMARK    4  A    between atoms: C_7  and  C_17
REMARK    5  A    between atoms: C_9  and  C_19
REMARK    6  A    between atoms: C_13  and  C_18
REMARK    7  A    between atoms: C_18  and  C_20
REMARK    8  A    between atoms: C_18  and  C_21
REMARK    9  A    between atoms: C_22  and  C_23
REMARK   10  A    between atoms: C_23  and  C_25
REMARK   11  A    between atoms: C_24  and  C_26
REMARK                            x       y       z     vdW  Elec       q    Type
REMARK                         _______ _______ _______ _____ _____    ______ ____
ROOT
ATOM      7  C   UNL     1      -3.123 -10.528  11.883  0.00  0.00    -0.027 C 
ATOM      8  C   UNL     1      -4.551 -10.190  12.428  0.00  0.00    +0.028 C 
ATOM      9  C   UNL     1      -4.848 -10.986  13.749  0.00  0.00    +0.012 C 
ATOM     10  C   UNL     1      -5.626 -10.321  11.312  0.00  0.00    +0.122 C 
ATOM     11  C   UNL     1      -2.819  -9.644  10.650  0.00  0.00    +0.007 C 
ATOM     12  C   UNL     1      -2.075 -10.193  12.971  0.00  0.00    +0.009 C 
ATOM     13  C   UNL     1      -5.265  -9.518  10.040  0.00  0.00    +0.029 C 
ATOM     14  C   UNL     1      -3.748 -10.700  14.810  0.00  0.00    +0.076 C 
ATOM     15  C   UNL     1      -3.849  -9.801   9.539  0.00  0.00    +0.007 C 
ATOM     16  C   UNL     1      -2.328 -10.917  14.286  0.00  0.00    +0.023 C 
ATOM     17  C   UNL     1      -2.980 -12.016  11.478  0.00  0.00    +0.011 C 
ATOM     19  C   UNL     1      -6.226 -10.679  14.357  0.00  0.00    +0.010 C 
ENDROOT
BRANCH  14   5
ATOM      3  O   UNL     1      -4.640  -9.793  17.391  0.00  0.00    -0.275 OA
ATOM      5  N   UNL     1      -3.926 -11.507  15.998  0.00  0.00    -0.312 N 
ATOM     22  C   UNL     1      -4.363 -10.974  17.201  0.00  0.00    +0.218 C 
ATOM     35  H   UNL     1      -3.656 -12.485  15.948  0.00  0.00    +0.149 HD
BRANCH  22  23
ATOM     23  C   UNL     1      -4.465 -12.041  18.273  0.00  0.00    +0.130 C 
BRANCH  23  25
ATOM     25  C   UNL     1      -5.878 -12.495  18.530  0.00  0.00    -0.039 A 
ATOM     27  C   UNL     1      -6.535 -12.105  19.698  0.00  0.00    +0.004 A 
ATOM     28  C   UNL     1      -6.531 -13.305  17.602  0.00  0.00    +0.004 A 
ATOM     30  C   UNL     1      -7.843 -12.525  19.937  0.00  0.00    +0.000 A 
ATOM     31  C   UNL     1      -7.840 -13.725  17.839  0.00  0.00    +0.000 A 
ATOM     32  C   UNL     1      -8.496 -13.334  19.008  0.00  0.00    +0.000 A 
ENDBRANCH  23  25
ENDBRANCH  22  23
ENDBRANCH  14   5
BRANCH  10   1
ATOM      1  O   UNL     1      -6.869  -9.800  11.784  0.00  0.00    -0.391 OA
ATOM     36  H   UNL     1      -7.556 -10.470  11.626  0.00  0.00    +0.210 HD
ENDBRANCH  10   1
BRANCH  13  18
ATOM     18  C   UNL     1      -6.269  -9.765   8.908  0.00  0.00    +0.077 C 
ATOM     20  C   UNL     1      -5.543  -9.835   7.569  0.00  0.00    +0.017 C 
BRANCH  18  21
ATOM      2  O   UNL     1      -8.296  -8.683   9.671  0.00  0.00    -0.276 OA
ATOM      6  N   UNL     1      -7.082  -7.686   7.965  0.00  0.00    -0.308 N 
ATOM     21  C   UNL     1      -7.332  -8.671   8.908  0.00  0.00    +0.217 C 
ATOM     37  H   UNL     1      -6.274  -7.771   7.355  0.00  0.00    +0.149 HD
BRANCH   6  24
ATOM     24  C   UNL     1      -7.950  -6.547   7.776  0.00  0.00    +0.178 C 
BRANCH  24  26
ATOM      4  O   UNL     1     -10.318  -6.598   7.233  0.00  0.00    -0.466 OA
ATOM     26  C   UNL     1      -9.052  -6.835   6.799  0.00  0.00    +0.122 A 
ATOM     29  C   UNL     1      -9.065  -7.307   5.506  0.00  0.00    +0.046 A 
ATOM     33  C   UNL     1     -10.425  -7.363   5.122  0.00  0.00    +0.041 A 
ATOM     34  C   UNL     1     -11.148  -6.922   6.207  0.00  0.00    +0.195 A 
ENDBRANCH  24  26
ENDBRANCH   6  24
ENDBRANCH  18  21
ENDBRANCH  13  18
TORSDOF 8
ENDMDL
MODEL 7
REMARK VINA RESULT:      -6.7     25.510     27.908
REMARK  Name = 45361520
REMARK  11 active torsions:
REMARK  status: ('A' for Active; 'I' for Inactive)
REMARK    1  A    between atoms: O_1  and  C_10
REMARK    2  A    between atoms: N_5  and  C_14
REMARK    3  A    between atoms: N_6  and  C_24
REMARK    4  A    between atoms: C_7  and  C_17
REMARK    5  A    between atoms: C_9  and  C_19
REMARK    6  A    between atoms: C_13  and  C_18
REMARK    7  A    between atoms: C_18  and  C_20
REMARK    8  A    between atoms: C_18  and  C_21
REMARK    9  A    between atoms: C_22  and  C_23
REMARK   10  A    between atoms: C_23  and  C_25
REMARK   11  A    between atoms: C_24  and  C_26
REMARK                            x       y       z     vdW  Elec       q    Type
REMARK                         _______ _______ _______ _____ _____    ______ ____
ROOT
ATOM      7  C   UNL     1      -4.541 -12.817  14.245  0.00  0.00    -0.027 C 
ATOM      8  C   UNL     1      -5.363 -11.485  14.222  0.00  0.00    +0.028 C 
ATOM      9  C   UNL     1      -5.043 -10.653  12.929  0.00  0.00    +0.012 C 
ATOM     10  C   UNL     1      -5.223 -10.714  15.566  0.00  0.00    +0.122 C 
ATOM     11  C   UNL     1      -4.964 -13.663  15.469  0.00  0.00    +0.007 C 
ATOM     12  C   UNL     1      -4.870 -13.634  12.973  0.00  0.00    +0.009 C 
ATOM     13  C   UNL     1      -5.545 -11.596  16.795  0.00  0.00    +0.029 C 
ATOM     14  C   UNL     1      -5.306 -11.508  11.658  0.00  0.00    +0.076 C 
ATOM     15  C   UNL     1      -4.790 -12.925  16.790  0.00  0.00    +0.007 C 
ATOM     16  C   UNL     1      -4.605 -12.867  11.685  0.00  0.00    +0.023 C 
ATOM     17  C   UNL     1      -3.013 -12.571  14.311  0.00  0.00    +0.011 C 
ATOM     19  C   UNL     1      -5.840  -9.341  12.828  0.00  0.00    +0.010 C 
ENDROOT
BRANCH  14   5
ATOM      3  O   UNL     1      -6.991 -10.843   9.422  0.00  0.00    -0.275 OA
ATOM      5  N   UNL     1      -4.911 -10.813  10.452  0.00  0.00    -0.312 N 
ATOM     22  C   UNL     1      -5.802 -10.538   9.427  0.00  0.00    +0.218 C 
ATOM     35  H   UNL     1      -3.929 -10.580  10.343  0.00  0.00    +0.149 HD
BRANCH  22  23
ATOM     23  C   UNL     1      -5.124  -9.797   8.290  0.00  0.00    +0.130 C 
BRANCH  23  25
ATOM     25  C   UNL     1      -5.413 -10.390   6.936  0.00  0.00    -0.039 A 
ATOM     27  C   UNL     1      -4.697 -11.503   6.495  0.00  0.00    +0.004 A 
ATOM     28  C   UNL     1      -6.396  -9.827   6.122  0.00  0.00    +0.004 A 
ATOM     30  C   UNL     1      -4.963 -12.053   5.241  0.00  0.00    +0.000 A 
ATOM     31  C   UNL     1      -6.664 -10.377   4.868  0.00  0.00    +0.000 A 
ATOM     32  C   UNL     1      -5.947 -11.490   4.428  0.00  0.00    +0.000 A 
ENDBRANCH  23  25
ENDBRANCH  22  23
ENDBRANCH  14   5
BRANCH  10   1
ATOM      1  O   UNL     1      -6.147  -9.626  15.591  0.00  0.00    -0.391 OA
ATOM     36  H   UNL     1      -7.010  -9.970  15.879  0.00  0.00    +0.210 HD
ENDBRANCH  10   1
BRANCH  13  18
ATOM     18  C   UNL     1      -5.275 -10.858  18.111  0.00  0.00    +0.077 C 
ATOM     20  C   UNL     1      -4.301 -11.656  18.970  0.00  0.00    +0.017 C 
BRANCH  18  21
ATOM      2  O   UNL     1      -6.638 -10.327  20.041  0.00  0.00    -0.276 OA
ATOM      6  N   UNL     1      -7.693 -10.733  18.017  0.00  0.00    -0.308 N 
ATOM     21  C   UNL     1      -6.589 -10.607  18.846  0.00  0.00    +0.217 C 
ATOM     37  H   UNL     1      -7.562 -10.997  17.045  0.00  0.00    +0.149 HD
BRANCH   6  24
ATOM     24  C   UNL     1      -9.047 -10.544  18.485  0.00  0.00    +0.178 C 
BRANCH  24  26
ATOM      4  O   UNL     1      -8.967  -8.683  16.924  0.00  0.00    -0.466 OA
ATOM     26  C   UNL     1      -9.730  -9.405  17.786  0.00  0.00    +0.122 A 
ATOM     29  C   UNL     1     -11.013  -8.910  17.827  0.00  0.00    +0.046 A 
ATOM     33  C   UNL     1     -11.040  -7.813  16.933  0.00  0.00    +0.041 A 
ATOM     34  C   UNL     1      -9.771  -7.716  16.409  0.00  0.00    +0.195 A 
ENDBRANCH  24  26
ENDBRANCH   6  24
ENDBRANCH  18  21
ENDBRANCH  13  18
TORSDOF 8
ENDMDL
MODEL 8
REMARK VINA RESULT:      -6.5     25.664     29.359
REMARK  Name = 45361520
REMARK  11 active torsions:
REMARK  status: ('A' for Active; 'I' for Inactive)
REMARK    1  A    between atoms: O_1  and  C_10
REMARK    2  A    between atoms: N_5  and  C_14
REMARK    3  A    between atoms: N_6  and  C_24
REMARK    4  A    between atoms: C_7  and  C_17
REMARK    5  A    between atoms: C_9  and  C_19
REMARK    6  A    between atoms: C_13  and  C_18
REMARK    7  A    between atoms: C_18  and  C_20
REMARK    8  A    between atoms: C_18  and  C_21
REMARK    9  A    between atoms: C_22  and  C_23
REMARK   10  A    between atoms: C_23  and  C_25
REMARK   11  A    between atoms: C_24  and  C_26
REMARK                            x       y       z     vdW  Elec       q    Type
REMARK                         _______ _______ _______ _____ _____    ______ ____
ROOT
ATOM      7  C   UNL     1      -9.521 -10.768  18.381  0.00  0.00    -0.027 C 
ATOM      8  C   UNL     1      -8.848  -9.882  17.281  0.00  0.00    +0.028 C 
ATOM      9  C   UNL     1      -9.926  -9.280  16.310  0.00  0.00    +0.012 C 
ATOM     10  C   UNL     1      -7.674 -10.635  16.591  0.00  0.00    +0.122 C 
ATOM     11  C   UNL     1      -8.447 -11.251  19.384  0.00  0.00    +0.007 C 
ATOM     12  C   UNL     1     -10.543  -9.910  19.164  0.00  0.00    +0.009 C 
ATOM     13  C   UNL     1      -6.656 -11.207  17.606  0.00  0.00    +0.029 C 
ATOM     14  C   UNL     1     -10.990  -8.482  17.115  0.00  0.00    +0.076 C 
ATOM     15  C   UNL     1      -7.316 -12.023  18.717  0.00  0.00    +0.007 C 
ATOM     16  C   UNL     1     -11.600  -9.277  18.270  0.00  0.00    +0.023 C 
ATOM     17  C   UNL     1     -10.242 -12.005  17.788  0.00  0.00    +0.011 C 
ATOM     19  C   UNL     1      -9.335  -8.372  15.219  0.00  0.00    +0.010 C 
ENDROOT
BRANCH  14   5
ATOM      3  O   UNL     1     -11.515  -5.756  16.354  0.00  0.00    -0.275 OA
ATOM      5  N   UNL     1     -12.063  -8.010  16.266  0.00  0.00    -0.312 N 
ATOM     22  C   UNL     1     -12.232  -6.670  15.956  0.00  0.00    +0.218 C 
ATOM     35  H   UNL     1     -12.744  -8.692  15.945  0.00  0.00    +0.149 HD
BRANCH  22  23
ATOM     23  C   UNL     1     -13.428  -6.460  15.047  0.00  0.00    +0.130 C 
BRANCH  23  25
ATOM     25  C   UNL     1     -13.069  -5.833  13.725  0.00  0.00    -0.039 A 
ATOM     27  C   UNL     1     -13.124  -4.447  13.573  0.00  0.00    +0.004 A 
ATOM     28  C   UNL     1     -12.682  -6.636  12.653  0.00  0.00    +0.004 A 
ATOM     30  C   UNL     1     -12.791  -3.865  12.350  0.00  0.00    +0.000 A 
ATOM     31  C   UNL     1     -12.349  -6.055  11.429  0.00  0.00    +0.000 A 
ATOM     32  C   UNL     1     -12.404  -4.669  11.278  0.00  0.00    +0.000 A 
ENDBRANCH  23  25
ENDBRANCH  22  23
ENDBRANCH  14   5
BRANCH  10   1
ATOM      1  O   UNL     1      -6.952  -9.730  15.755  0.00  0.00    -0.391 OA
ATOM     36  H   UNL     1      -6.013  -9.983  15.775  0.00  0.00    +0.210 HD
ENDBRANCH  10   1
BRANCH  13  18
ATOM     18  C   UNL     1      -5.581 -12.055  16.916  0.00  0.00    +0.077 C 
ATOM     20  C   UNL     1      -5.191 -13.231  17.803  0.00  0.00    +0.017 C 
BRANCH  18  21
ATOM      2  O   UNL     1      -4.297 -10.001  16.896  0.00  0.00    -0.276 OA
ATOM      6  N   UNL     1      -3.393 -11.884  15.887  0.00  0.00    -0.308 N 
ATOM     21  C   UNL     1      -4.372 -11.187  16.579  0.00  0.00    +0.217 C 
ATOM     37  H   UNL     1      -3.551 -12.856  15.640  0.00  0.00    +0.149 HD
BRANCH   6  24
ATOM     24  C   UNL     1      -2.156 -11.274  15.456  0.00  0.00    +0.178 C 
BRANCH  24  26
ATOM      4  O   UNL     1      -2.769 -11.944  13.201  0.00  0.00    -0.466 OA
ATOM     26  C   UNL     1      -2.139 -11.023  13.976  0.00  0.00    +0.122 A 
ATOM     29  C   UNL     1      -1.602 -10.023  13.198  0.00  0.00    +0.046 A 
ATOM     33  C   UNL     1      -1.924 -10.351  11.859  0.00  0.00    +0.041 A 
ATOM     34  C   UNL     1      -2.634 -11.529  11.915  0.00  0.00    +0.195 A 
ENDBRANCH  24  26
ENDBRANCH   6  24
ENDBRANCH  18  21
ENDBRANCH  13  18
TORSDOF 8
ENDMDL
MODEL 9
REMARK VINA RESULT:      -6.4     26.956     30.460
REMARK  Name = 45361520
REMARK  11 active torsions:
REMARK  status: ('A' for Active; 'I' for Inactive)
REMARK    1  A    between atoms: O_1  and  C_10
REMARK    2  A    between atoms: N_5  and  C_14
REMARK    3  A    between atoms: N_6  and  C_24
REMARK    4  A    between atoms: C_7  and  C_17
REMARK    5  A    between atoms: C_9  and  C_19
REMARK    6  A    between atoms: C_13  and  C_18
REMARK    7  A    between atoms: C_18  and  C_20
REMARK    8  A    between atoms: C_18  and  C_21
REMARK    9  A    between atoms: C_22  and  C_23
REMARK   10  A    between atoms: C_23  and  C_25
REMARK   11  A    between atoms: C_24  and  C_26
REMARK                            x       y       z     vdW  Elec       q    Type
REMARK                         _______ _______ _______ _____ _____    ______ ____
ROOT
ATOM      7  C   UNL     1      -5.206 -11.339  17.809  0.00  0.00    -0.027 C 
ATOM      8  C   UNL     1      -5.771 -12.130  16.583  0.00  0.00    +0.028 C 
ATOM      9  C   UNL     1      -5.284 -11.493  15.233  0.00  0.00    +0.012 C 
ATOM     10  C   UNL     1      -7.308 -12.339  16.708  0.00  0.00    +0.122 C 
ATOM     11  C   UNL     1      -5.609 -12.057  19.118  0.00  0.00    +0.007 C 
ATOM     12  C   UNL     1      -3.661 -11.331  17.734  0.00  0.00    +0.009 C 
ATOM     13  C   UNL     1      -7.716 -12.962  18.063  0.00  0.00    +0.029 C 
ATOM     14  C   UNL     1      -3.731 -11.422  15.200  0.00  0.00    +0.076 C 
ATOM     15  C   UNL     1      -7.116 -12.227  19.261  0.00  0.00    +0.007 C 
ATOM     16  C   UNL     1      -3.128 -10.748  16.433  0.00  0.00    +0.023 C 
ATOM     17  C   UNL     1      -5.721  -9.879  17.861  0.00  0.00    +0.011 C 
ATOM     19  C   UNL     1      -5.780 -12.241  13.984  0.00  0.00    +0.010 C 
ENDROOT
BRANCH  14   5
ATOM      3  O   UNL     1      -1.637 -12.295  13.429  0.00  0.00    -0.275 OA
ATOM      5  N   UNL     1      -3.250 -10.734  14.021  0.00  0.00    -0.312 N 
ATOM     22  C   UNL     1      -2.231 -11.240  13.228  0.00  0.00    +0.218 C 
ATOM     35  H   UNL     1      -3.641  -9.820  13.816  0.00  0.00    +0.149 HD
BRANCH  22  23
ATOM     23  C   UNL     1      -1.933 -10.322  12.059  0.00  0.00    +0.130 C 
BRANCH  23  25
ATOM     25  C   UNL     1      -2.915 -10.462  10.925  0.00  0.00    -0.039 A 
ATOM     27  C   UNL     1      -3.326  -9.334  10.215  0.00  0.00    +0.004 A 
ATOM     28  C   UNL     1      -3.413 -11.719  10.584  0.00  0.00    +0.004 A 
ATOM     30  C   UNL     1      -4.235  -9.463   9.165  0.00  0.00    +0.000 A 
ATOM     31  C   UNL     1      -4.321 -11.850   9.534  0.00  0.00    +0.000 A 
ATOM     32  C   UNL     1      -4.733 -10.721   8.824  0.00  0.00    +0.000 A 
ENDBRANCH  23  25
ENDBRANCH  22  23
ENDBRANCH  14   5
BRANCH  10   1
ATOM      1  O   UNL     1      -7.750 -13.242  15.694  0.00  0.00    -0.391 OA
ATOM     36  H   UNL     1      -7.062 -13.288  15.009  0.00  0.00    +0.210 HD
ENDBRANCH  10   1
BRANCH  13  18
ATOM     18  C   UNL     1      -9.240 -13.038  18.218  0.00  0.00    +0.077 C 
ATOM     20  C   UNL     1      -9.788 -11.690  18.671  0.00  0.00    +0.017 C 
BRANCH  18  21
ATOM      2  O   UNL     1      -9.460 -15.339  18.939  0.00  0.00    -0.276 OA
ATOM      6  N   UNL     1     -10.116 -13.655  20.391  0.00  0.00    -0.308 N 
ATOM     21  C   UNL     1      -9.607 -14.147  19.199  0.00  0.00    +0.217 C 
ATOM     37  H   UNL     1     -10.231 -12.653  20.511  0.00  0.00    +0.149 HD
BRANCH   6  24
ATOM     24  C   UNL     1     -10.537 -14.513  21.475  0.00  0.00    +0.178 C 
BRANCH  24  26
ATOM      4  O   UNL     1     -11.779 -14.256  23.549  0.00  0.00    -0.466 OA
ATOM     26  C   UNL     1     -11.699 -13.937  22.230  0.00  0.00    +0.122 A 
ATOM     29  C   UNL     1     -12.746 -13.121  21.867  0.00  0.00    +0.046 A 
ATOM     33  C   UNL     1     -13.518 -12.928  23.037  0.00  0.00    +0.041 A 
ATOM     34  C   UNL     1     -12.888 -13.639  24.033  0.00  0.00    +0.195 A 
ENDBRANCH  24  26
ENDBRANCH   6  24
ENDBRANCH  18  21
ENDBRANCH  13  18
TORSDOF 8
ENDMDL
MODEL 10
REMARK VINA RESULT:      -6.3     25.396     28.505
REMARK  Name = 45361520
REMARK  11 active torsions:
REMARK  status: ('A' for Active; 'I' for Inactive)
REMARK    1  A    between atoms: O_1  and  C_10
REMARK    2  A    between atoms: N_5  and  C_14
REMARK    3  A    between atoms: N_6  and  C_24
REMARK    4  A    between atoms: C_7  and  C_17
REMARK    5  A    between atoms: C_9  and  C_19
REMARK    6  A    between atoms: C_13  and  C_18
REMARK    7  A    between atoms: C_18  and  C_20
REMARK    8  A    between atoms: C_18  and  C_21
REMARK    9  A    between atoms: C_22  and  C_23
REMARK   10  A    between atoms: C_23  and  C_25
REMARK   11  A    between atoms: C_24  and  C_26
REMARK                            x       y       z     vdW  Elec       q    Type
REMARK                         _______ _______ _______ _____ _____    ______ ____
ROOT
ATOM      7  C   UNL     1      16.838  -3.932  30.481  0.00  0.00    -0.027 C 
ATOM      8  C   UNL     1      15.856  -4.908  29.751  0.00  0.00    +0.028 C 
ATOM      9  C   UNL     1      14.916  -5.630  30.781  0.00  0.00    +0.012 C 
ATOM     10  C   UNL     1      16.619  -5.845  28.770  0.00  0.00    +0.122 C 
ATOM     11  C   UNL     1      17.669  -3.156  29.433  0.00  0.00    +0.007 C 
ATOM     12  C   UNL     1      16.015  -2.900  31.287  0.00  0.00    +0.009 C 
ATOM     13  C   UNL     1      17.530  -5.068  27.791  0.00  0.00    +0.029 C 
ATOM     14  C   UNL     1      14.149  -4.583  31.637  0.00  0.00    +0.076 C 
ATOM     15  C   UNL     1      18.448  -4.070  28.497  0.00  0.00    +0.007 C 
ATOM     16  C   UNL     1      15.063  -3.543  32.286  0.00  0.00    +0.023 C 
ATOM     17  C   UNL     1      17.807  -4.671  31.438  0.00  0.00    +0.011 C 
ATOM     19  C   UNL     1      13.903  -6.585  30.127  0.00  0.00    +0.010 C 
ENDROOT
BRANCH  14   5
ATOM      3  O   UNL     1      11.343  -4.196  32.144  0.00  0.00    -0.275 OA
ATOM      5  N   UNL     1      13.361  -5.212  32.675  0.00  0.00    -0.312 N 
ATOM     22  C   UNL     1      12.008  -4.959  32.838  0.00  0.00    +0.218 C 
ATOM     35  H   UNL     1      13.846  -5.809  33.338  0.00  0.00    +0.149 HD
BRANCH  22  23
ATOM     23  C   UNL     1      11.433  -5.754  33.995  0.00  0.00    +0.130 C 
BRANCH  23  25
ATOM     25  C   UNL     1       9.978  -6.101  33.814  0.00  0.00    -0.039 A 
ATOM     27  C   UNL     1       8.991  -5.203  34.220  0.00  0.00    +0.004 A 
ATOM     28  C   UNL     1       9.617  -7.321  33.242  0.00  0.00    +0.004 A 
ATOM     30  C   UNL     1       7.644  -5.523  34.053  0.00  0.00    +0.000 A 
ATOM     31  C   UNL     1       8.270  -7.642  33.074  0.00  0.00    +0.000 A 
ATOM     32  C   UNL     1       7.283  -6.743  33.480  0.00  0.00    +0.000 A 
ENDBRANCH  23  25
ENDBRANCH  22  23
ENDBRANCH  14   5
BRANCH  10   1
ATOM      1  O   UNL     1      15.679  -6.564  27.970  0.00  0.00    -0.391 OA
ATOM     36  H   UNL     1      16.163  -6.977  27.234  0.00  0.00    +0.210 HD
ENDBRANCH  10   1
BRANCH  13  18
ATOM     18  C   UNL     1      18.369  -6.013  26.924  0.00  0.00    +0.077 C 
ATOM     20  C   UNL     1      19.850  -5.681  27.068  0.00  0.00    +0.017 C 
BRANCH  18  21
ATOM      2  O   UNL     1      16.937  -6.529  25.040  0.00  0.00    -0.276 OA
ATOM      6  N   UNL     1      18.729  -5.093  24.711  0.00  0.00    -0.308 N 
ATOM     21  C   UNL     1      17.917  -5.923  25.470  0.00  0.00    +0.217 C 
ATOM     37  H   UNL     1      19.537  -4.654  25.142  0.00  0.00    +0.149 HD
BRANCH   6  24
ATOM     24  C   UNL     1      18.502  -4.851  23.305  0.00  0.00    +0.178 C 
BRANCH  24  26
ATOM      4  O   UNL     1      16.374  -3.683  23.194  0.00  0.00    -0.466 OA
ATOM     26  C   UNL     1      17.724  -3.590  23.069  0.00  0.00    +0.122 A 
ATOM     29  C   UNL     1      18.091  -2.305  22.741  0.00  0.00    +0.046 A 
ATOM     33  C   UNL     1      16.890  -1.562  22.659  0.00  0.00    +0.041 A 
ATOM     34  C   UNL     1      15.873  -2.445  22.943  0.00  0.00    +0.195 A 
ENDBRANCH  24  26
ENDBRANCH   6  24
ENDBRANCH  18  21
ENDBRANCH  13  18
TORSDOF 8
ENDMDL
