MODEL 1
REMARK VINA RESULT:      -6.6      0.000      0.000
REMARK  Name = 75536557
REMARK  6 active torsions:
REMARK  status: ('A' for Active; 'I' for Inactive)
REMARK    1  A    between atoms: O_4  and  C_10
REMARK    2  A    between atoms: N_6  and  C_8
REMARK    3  A    between atoms: N_6  and  C_9
REMARK    4  A    between atoms: N_7  and  C_19
REMARK    5  A    between atoms: C_11  and  C_19
REMARK    6  A    between atoms: C_18  and  C_24
REMARK                            x       y       z     vdW  Elec       q    Type
REMARK                         _______ _______ _______ _____ _____    ______ ____
ROOT
ATOM      3  O   UNL     1      -1.127 -11.350  15.165  0.00  0.00    -0.371 OA
ATOM      8  C   UNL     1      -3.307 -10.979  16.033  0.00  0.00    +0.111 C 
ATOM     10  C   UNL     1      -3.420 -11.702  14.704  0.00  0.00    +0.164 C 
ATOM     11  C   UNL     1      -2.027 -12.304  14.578  0.00  0.00    +0.165 C 
ATOM     14  C   UNL     1      -1.895 -10.424  15.955  0.00  0.00    +0.181 C 
ENDROOT
BRANCH  10   4
ATOM      4  O   UNL     1      -4.426 -12.696  14.706  0.00  0.00    -0.388 OA
ATOM     27  H   UNL     1      -5.077 -12.473  14.020  0.00  0.00    +0.210 HD
ENDBRANCH  10   4
BRANCH   8   6
ATOM      6  N   UNL     1      -4.312  -9.947  16.223  0.00  0.00    -0.306 NA
ATOM     25  H   UNL     1      -4.923  -9.895  15.409  0.00  0.00    +0.123 HD
BRANCH   6   9
ATOM      1  F   UNL     1      -6.741 -13.182  18.388  0.00  0.00    -0.206 F 
ATOM      2  F   UNL     1      -7.454 -12.230  20.208  0.00  0.00    -0.206 F 
ATOM      9  C   UNL     1      -5.105 -10.211  17.423  0.00  0.00    +0.054 C 
ATOM     12  C   UNL     1      -6.541 -10.575  17.028  0.00  0.00    +0.024 C 
ATOM     13  C   UNL     1      -4.453 -11.331  18.242  0.00  0.00    +0.024 C 
ATOM     15  C   UNL     1      -7.381 -10.928  18.254  0.00  0.00    +0.077 C 
ATOM     16  C   UNL     1      -5.292 -11.684  19.469  0.00  0.00    +0.077 C 
ATOM     17  C   UNL     1      -6.725 -12.017  19.085  0.00  0.00    +0.249 C 
ENDBRANCH   6   9
ENDBRANCH   8   6
BRANCH  11  19
ATOM     19  C   UNL     1      -1.619 -12.577  13.141  0.00  0.00    +0.138 C 
BRANCH  19   7
ATOM      5  O   UNL     1      -1.549 -10.038  11.735  0.00  0.00    -0.276 OA
ATOM      7  N   UNL     1      -2.590 -12.065  12.217  0.00  0.00    -0.313 N 
ATOM     24  C   UNL     1      -2.475 -10.832  11.587  0.00  0.00    +0.216 C 
ATOM     26  H   UNL     1      -3.400 -12.647  12.019  0.00  0.00    +0.149 HD
BRANCH  24  18
ATOM     18  C   UNL     1      -3.613 -10.553  10.654  0.00  0.00    +0.075 C 
ATOM     20  C   UNL     1      -3.508  -9.128  10.097  0.00  0.00    +0.013 C 
ATOM     21  C   UNL     1      -4.950 -10.624  11.395  0.00  0.00    +0.013 C 
ATOM     22  C   UNL     1      -4.827  -8.446  10.443  0.00  0.00    +0.001 C 
ATOM     23  C   UNL     1      -5.304  -9.173  11.688  0.00  0.00    +0.001 C 
ENDBRANCH  24  18
ENDBRANCH  19   7
ENDBRANCH  11  19
TORSDOF 6
ENDMDL
MODEL 2
REMARK VINA RESULT:      -6.4     26.174     27.618
REMARK  Name = 75536557
REMARK  6 active torsions:
REMARK  status: ('A' for Active; 'I' for Inactive)
REMARK    1  A    between atoms: O_4  and  C_10
REMARK    2  A    between atoms: N_6  and  C_8
REMARK    3  A    between atoms: N_6  and  C_9
REMARK    4  A    between atoms: N_7  and  C_19
REMARK    5  A    between atoms: C_11  and  C_19
REMARK    6  A    between atoms: C_18  and  C_24
REMARK                            x       y       z     vdW  Elec       q    Type
REMARK                         _______ _______ _______ _____ _____    ______ ____
ROOT
ATOM      3  O   UNL     1      13.347   8.375  21.571  0.00  0.00    -0.371 OA
ATOM      8  C   UNL     1      11.347   9.040  22.668  0.00  0.00    +0.111 C 
ATOM     10  C   UNL     1      10.991   8.204  21.453  0.00  0.00    +0.164 C 
ATOM     11  C   UNL     1      12.297   7.459  21.216  0.00  0.00    +0.165 C 
ATOM     14  C   UNL     1      12.776   9.445  22.346  0.00  0.00    +0.181 C 
ENDROOT
BRANCH  10   4
ATOM      4  O   UNL     1       9.916   7.318  21.696  0.00  0.00    -0.388 OA
ATOM     27  H   UNL     1       9.922   6.634  21.006  0.00  0.00    +0.210 HD
ENDBRANCH  10   4
BRANCH   8   6
ATOM      6  N   UNL     1      10.467  10.180  22.870  0.00  0.00    -0.306 NA
ATOM     25  H   UNL     1       9.730   9.943  23.532  0.00  0.00    +0.123 HD
BRANCH   6   9
ATOM      1  F   UNL     1      10.015  14.297  24.844  0.00  0.00    -0.206 F 
ATOM      2  F   UNL     1      12.044  15.054  25.042  0.00  0.00    -0.206 F 
ATOM      9  C   UNL     1      11.220  11.335  23.356  0.00  0.00    +0.054 C 
ATOM     12  C   UNL     1      10.808  12.590  22.576  0.00  0.00    +0.024 C 
ATOM     13  C   UNL     1      10.985  11.515  24.860  0.00  0.00    +0.024 C 
ATOM     15  C   UNL     1      11.522  13.832  23.105  0.00  0.00    +0.077 C 
ATOM     16  C   UNL     1      11.700  12.756  25.391  0.00  0.00    +0.077 C 
ATOM     17  C   UNL     1      11.317  13.997  24.601  0.00  0.00    +0.249 C 
ENDBRANCH   6   9
ENDBRANCH   8   6
BRANCH  11  19
ATOM     19  C   UNL     1      12.478   7.007  19.778  0.00  0.00    +0.138 C 
BRANCH  19   7
ATOM      5  O   UNL     1      11.334   7.364  17.133  0.00  0.00    -0.276 OA
ATOM      7  N   UNL     1      12.650   8.126  18.897  0.00  0.00    -0.313 N 
ATOM     24  C   UNL     1      12.061   8.214  17.641  0.00  0.00    +0.216 C 
ATOM     26  H   UNL     1      13.234   8.891  19.222  0.00  0.00    +0.149 HD
BRANCH  24  18
ATOM     18  C   UNL     1      12.385   9.497  16.941  0.00  0.00    +0.075 C 
ATOM     20  C   UNL     1      13.242   9.225  15.699  0.00  0.00    +0.013 C 
ATOM     21  C   UNL     1      13.217  10.411  17.843  0.00  0.00    +0.013 C 
ATOM     22  C   UNL     1      14.502  10.067  15.869  0.00  0.00    +0.001 C 
ATOM     23  C   UNL     1      14.650  10.211  17.373  0.00  0.00    +0.001 C 
ENDBRANCH  24  18
ENDBRANCH  19   7
ENDBRANCH  11  19
TORSDOF 6
ENDMDL
MODEL 3
REMARK VINA RESULT:      -6.4     26.396     28.311
REMARK  Name = 75536557
REMARK  6 active torsions:
REMARK  status: ('A' for Active; 'I' for Inactive)
REMARK    1  A    between atoms: O_4  and  C_10
REMARK    2  A    between atoms: N_6  and  C_8
REMARK    3  A    between atoms: N_6  and  C_9
REMARK    4  A    between atoms: N_7  and  C_19
REMARK    5  A    between atoms: C_11  and  C_19
REMARK    6  A    between atoms: C_18  and  C_24
REMARK                            x       y       z     vdW  Elec       q    Type
REMARK                         _______ _______ _______ _____ _____    ______ ____
ROOT
ATOM      3  O   UNL     1      11.013   7.856  22.538  0.00  0.00    -0.371 OA
ATOM      8  C   UNL     1      11.639   8.407  20.314  0.00  0.00    +0.111 C 
ATOM     10  C   UNL     1      11.276   9.680  21.056  0.00  0.00    +0.164 C 
ATOM     11  C   UNL     1      11.431   9.230  22.502  0.00  0.00    +0.165 C 
ATOM     14  C   UNL     1      10.987   7.352  21.190  0.00  0.00    +0.181 C 
ENDROOT
BRANCH  10   4
ATOM      4  O   UNL     1      12.137  10.758  20.744  0.00  0.00    -0.388 OA
ATOM     27  H   UNL     1      11.625  11.583  20.798  0.00  0.00    +0.210 HD
ENDBRANCH  10   4
BRANCH   8   6
ATOM      6  N   UNL     1      11.162   8.377  18.941  0.00  0.00    -0.306 NA
ATOM     25  H   UNL     1      10.211   8.740  18.889  0.00  0.00    +0.123 HD
BRANCH   6   9
ATOM      1  F   UNL     1      14.293   8.024  15.605  0.00  0.00    -0.206 F 
ATOM      2  F   UNL     1      14.869  10.071  15.152  0.00  0.00    -0.206 F 
ATOM      9  C   UNL     1      12.041   9.158  18.071  0.00  0.00    +0.054 C 
ATOM     12  C   UNL     1      13.504   8.786  18.341  0.00  0.00    +0.024 C 
ATOM     13  C   UNL     1      11.668   8.917  16.603  0.00  0.00    +0.024 C 
ATOM     15  C   UNL     1      14.449   9.530  17.399  0.00  0.00    +0.077 C 
ATOM     16  C   UNL     1      12.612   9.662  15.660  0.00  0.00    +0.077 C 
ATOM     17  C   UNL     1      14.065   9.319  15.945  0.00  0.00    +0.249 C 
ENDBRANCH   6   9
ENDBRANCH   8   6
BRANCH  11  19
ATOM     19  C   UNL     1      10.598  10.045  23.476  0.00  0.00    +0.138 C 
BRANCH  19   7
ATOM      5  O   UNL     1      10.541  12.194  25.427  0.00  0.00    -0.276 OA
ATOM      7  N   UNL     1      10.733  11.452  23.228  0.00  0.00    -0.313 N 
ATOM     24  C   UNL     1      10.694  12.415  24.228  0.00  0.00    +0.216 C 
ATOM     26  H   UNL     1      10.868  11.746  22.265  0.00  0.00    +0.149 HD
BRANCH  24  18
ATOM     18  C   UNL     1      10.885  13.804  23.700  0.00  0.00    +0.075 C 
ATOM     20  C   UNL     1      10.125  14.813  24.568  0.00  0.00    +0.013 C 
ATOM     21  C   UNL     1      10.304  13.930  22.290  0.00  0.00    +0.013 C 
ATOM     22  C   UNL     1       9.198  15.565  23.619  0.00  0.00    +0.001 C 
ATOM     23  C   UNL     1       8.943  14.580  22.493  0.00  0.00    +0.001 C 
ENDBRANCH  24  18
ENDBRANCH  19   7
ENDBRANCH  11  19
TORSDOF 6
ENDMDL
MODEL 4
REMARK VINA RESULT:      -6.3     26.130     27.955
REMARK  Name = 75536557
REMARK  6 active torsions:
REMARK  status: ('A' for Active; 'I' for Inactive)
REMARK    1  A    between atoms: O_4  and  C_10
REMARK    2  A    between atoms: N_6  and  C_8
REMARK    3  A    between atoms: N_6  and  C_9
REMARK    4  A    between atoms: N_7  and  C_19
REMARK    5  A    between atoms: C_11  and  C_19
REMARK    6  A    between atoms: C_18  and  C_24
REMARK                            x       y       z     vdW  Elec       q    Type
REMARK                         _______ _______ _______ _____ _____    ______ ____
ROOT
ATOM      3  O   UNL     1      10.262   8.003  22.355  0.00  0.00    -0.371 OA
ATOM      8  C   UNL     1      12.324   7.161  21.530  0.00  0.00    +0.111 C 
ATOM     10  C   UNL     1      12.489   8.632  21.866  0.00  0.00    +0.164 C 
ATOM     11  C   UNL     1      11.327   8.845  22.827  0.00  0.00    +0.165 C 
ATOM     14  C   UNL     1      10.813   7.041  21.438  0.00  0.00    +0.181 C 
ENDROOT
BRANCH  10   4
ATOM      4  O   UNL     1      13.734   8.918  22.472  0.00  0.00    -0.388 OA
ATOM     27  H   UNL     1      14.415   8.374  22.043  0.00  0.00    +0.210 HD
ENDBRANCH  10   4
BRANCH   8   6
ATOM      6  N   UNL     1      13.000   6.763  20.306  0.00  0.00    -0.306 NA
ATOM     25  H   UNL     1      12.510   5.983  19.870  0.00  0.00    +0.123 HD
BRANCH   6   9
ATOM      1  F   UNL     1      14.329   7.934  16.074  0.00  0.00    -0.206 F 
ATOM      2  F   UNL     1      13.874  10.053  15.904  0.00  0.00    -0.206 F 
ATOM      9  C   UNL     1      13.081   7.885  19.372  0.00  0.00    +0.054 C 
ATOM     12  C   UNL     1      14.547   8.151  19.004  0.00  0.00    +0.024 C 
ATOM     13  C   UNL     1      12.242   7.585  18.124  0.00  0.00    +0.024 C 
ATOM     15  C   UNL     1      14.666   9.271  17.973  0.00  0.00    +0.077 C 
ATOM     16  C   UNL     1      12.360   8.706  17.092  0.00  0.00    +0.077 C 
ATOM     17  C   UNL     1      13.812   8.993  16.748  0.00  0.00    +0.249 C 
ENDBRANCH   6   9
ENDBRANCH   8   6
BRANCH  11  19
ATOM     19  C   UNL     1      10.854  10.287  22.884  0.00  0.00    +0.138 C 
BRANCH  19   7
ATOM      5  O   UNL     1      10.419  13.035  22.055  0.00  0.00    -0.276 OA
ATOM      7  N   UNL     1      11.799  11.171  22.266  0.00  0.00    -0.313 N 
ATOM     24  C   UNL     1      11.503  12.479  21.901  0.00  0.00    +0.216 C 
ATOM     26  H   UNL     1      12.734  10.811  22.094  0.00  0.00    +0.149 HD
BRANCH  24  18
ATOM     18  C   UNL     1      12.676  13.189  21.298  0.00  0.00    +0.075 C 
ATOM     20  C   UNL     1      12.207  14.168  20.215  0.00  0.00    +0.013 C 
ATOM     21  C   UNL     1      13.609  12.197  20.602  0.00  0.00    +0.013 C 
ATOM     22  C   UNL     1      12.958  13.779  18.947  0.00  0.00    +0.001 C 
ATOM     23  C   UNL     1      13.247  12.299  19.128  0.00  0.00    +0.001 C 
ENDBRANCH  24  18
ENDBRANCH  19   7
ENDBRANCH  11  19
TORSDOF 6
ENDMDL
MODEL 5
REMARK VINA RESULT:      -6.3     14.712     16.651
REMARK  Name = 75536557
REMARK  6 active torsions:
REMARK  status: ('A' for Active; 'I' for Inactive)
REMARK    1  A    between atoms: O_4  and  C_10
REMARK    2  A    between atoms: N_6  and  C_8
REMARK    3  A    between atoms: N_6  and  C_9
REMARK    4  A    between atoms: N_7  and  C_19
REMARK    5  A    between atoms: C_11  and  C_19
REMARK    6  A    between atoms: C_18  and  C_24
REMARK                            x       y       z     vdW  Elec       q    Type
REMARK                         _______ _______ _______ _____ _____    ______ ____
ROOT
ATOM      3  O   UNL     1      -0.153   3.183  23.353  0.00  0.00    -0.371 OA
ATOM      8  C   UNL     1      -0.932   3.703  25.536  0.00  0.00    +0.111 C 
ATOM     10  C   UNL     1      -0.211   2.369  25.573  0.00  0.00    +0.164 C 
ATOM     11  C   UNL     1       0.637   2.459  24.311  0.00  0.00    +0.165 C 
ATOM     14  C   UNL     1      -1.221   3.848  24.051  0.00  0.00    +0.181 C 
ENDROOT
BRANCH  10   4
ATOM      4  O   UNL     1       0.585   2.210  26.732  0.00  0.00    -0.388 OA
ATOM     27  H   UNL     1       1.513   2.362  26.488  0.00  0.00    +0.210 HD
ENDBRANCH  10   4
BRANCH   8   6
ATOM      6  N   UNL     1      -2.134   3.739  26.353  0.00  0.00    -0.306 NA
ATOM     25  H   UNL     1      -2.240   4.655  26.785  0.00  0.00    +0.123 HD
BRANCH   6   9
ATOM      1  F   UNL     1      -6.142   1.506  26.416  0.00  0.00    -0.206 F 
ATOM      2  F   UNL     1      -7.014   1.855  24.455  0.00  0.00    -0.206 F 
ATOM      9  C   UNL     1      -3.316   3.429  25.549  0.00  0.00    +0.054 C 
ATOM     12  C   UNL     1      -3.426   1.912  25.348  0.00  0.00    +0.024 C 
ATOM     13  C   UNL     1      -4.570   3.991  26.229  0.00  0.00    +0.024 C 
ATOM     15  C   UNL     1      -4.689   1.545  24.573  0.00  0.00    +0.077 C 
ATOM     16  C   UNL     1      -5.834   3.625  25.453  0.00  0.00    +0.077 C 
ATOM     17  C   UNL     1      -5.931   2.125  25.226  0.00  0.00    +0.249 C 
ENDBRANCH   6   9
ENDBRANCH   8   6
BRANCH  11  19
ATOM     19  C   UNL     1       1.013   1.101  23.744  0.00  0.00    +0.138 C 
BRANCH  19   7
ATOM      5  O   UNL     1      -1.625  -0.024  23.292  0.00  0.00    -0.276 OA
ATOM      7  N   UNL     1       0.382   0.039  24.472  0.00  0.00    -0.313 N 
ATOM     24  C   UNL     1      -0.891  -0.439  24.185  0.00  0.00    +0.216 C 
ATOM     26  H   UNL     1       0.906  -0.381  25.235  0.00  0.00    +0.149 HD
BRANCH  24  18
ATOM     18  C   UNL     1      -1.299  -1.568  25.081  0.00  0.00    +0.075 C 
ATOM     20  C   UNL     1      -1.981  -2.673  24.267  0.00  0.00    +0.013 C 
ATOM     21  C   UNL     1      -2.330  -1.096  26.109  0.00  0.00    +0.013 C 
ATOM     22  C   UNL     1      -3.348  -2.882  24.910  0.00  0.00    +0.001 C 
ATOM     23  C   UNL     1      -3.670  -1.538  25.539  0.00  0.00    +0.001 C 
ENDBRANCH  24  18
ENDBRANCH  19   7
ENDBRANCH  11  19
TORSDOF 6
ENDMDL
MODEL 6
REMARK VINA RESULT:      -6.1      3.436      7.038
REMARK  Name = 75536557
REMARK  6 active torsions:
REMARK  status: ('A' for Active; 'I' for Inactive)
REMARK    1  A    between atoms: O_4  and  C_10
REMARK    2  A    between atoms: N_6  and  C_8
REMARK    3  A    between atoms: N_6  and  C_9
REMARK    4  A    between atoms: N_7  and  C_19
REMARK    5  A    between atoms: C_11  and  C_19
REMARK    6  A    between atoms: C_18  and  C_24
REMARK                            x       y       z     vdW  Elec       q    Type
REMARK                         _______ _______ _______ _____ _____    ______ ____
ROOT
ATOM      3  O   UNL     1      -3.423 -14.135  12.738  0.00  0.00    -0.371 OA
ATOM      8  C   UNL     1      -2.190 -12.107  12.846  0.00  0.00    +0.111 C 
ATOM     10  C   UNL     1      -2.768 -12.409  14.216  0.00  0.00    +0.164 C 
ATOM     11  C   UNL     1      -3.030 -13.904  14.102  0.00  0.00    +0.165 C 
ATOM     14  C   UNL     1      -3.053 -12.986  11.956  0.00  0.00    +0.181 C 
ENDROOT
BRANCH  10   4
ATOM      4  O   UNL     1      -1.868 -12.111  15.266  0.00  0.00    -0.388 OA
ATOM     27  H   UNL     1      -1.614 -12.944  15.697  0.00  0.00    +0.210 HD
ENDBRANCH  10   4
BRANCH   8   6
ATOM      6  N   UNL     1      -2.251 -10.701  12.484  0.00  0.00    -0.306 NA
ATOM     25  H   UNL     1      -1.351 -10.391  12.121  0.00  0.00    +0.123 HD
BRANCH   6   9
ATOM      1  F   UNL     1      -4.935  -7.454  10.665  0.00  0.00    -0.206 F 
ATOM      2  F   UNL     1      -6.131  -8.483   9.169  0.00  0.00    -0.206 F 
ATOM      9  C   UNL     1      -3.297 -10.467  11.490  0.00  0.00    +0.054 C 
ATOM     12  C   UNL     1      -4.567  -9.955  12.180  0.00  0.00    +0.024 C 
ATOM     13  C   UNL     1      -2.799  -9.471  10.435  0.00  0.00    +0.024 C 
ATOM     15  C   UNL     1      -5.660  -9.631  11.164  0.00  0.00    +0.077 C 
ATOM     16  C   UNL     1      -3.891  -9.147   9.417  0.00  0.00    +0.077 C 
ATOM     17  C   UNL     1      -5.162  -8.668  10.100  0.00  0.00    +0.249 C 
ENDBRANCH   6   9
ENDBRANCH   8   6
BRANCH  11  19
ATOM     19  C   UNL     1      -4.119 -14.396  15.039  0.00  0.00    +0.138 C 
BRANCH  19   7
ATOM      5  O   UNL     1      -6.251 -14.253  17.004  0.00  0.00    -0.276 OA
ATOM      7  N   UNL     1      -4.125 -13.653  16.266  0.00  0.00    -0.313 N 
ATOM     24  C   UNL     1      -5.196 -13.642  17.152  0.00  0.00    +0.216 C 
ATOM     26  H   UNL     1      -3.295 -13.111  16.489  0.00  0.00    +0.149 HD
BRANCH  24  18
ATOM     18  C   UNL     1      -4.931 -12.805  18.366  0.00  0.00    +0.075 C 
ATOM     20  C   UNL     1      -6.251 -12.303  18.964  0.00  0.00    +0.013 C 
ATOM     21  C   UNL     1      -4.127 -11.557  17.997  0.00  0.00    +0.013 C 
ATOM     22  C   UNL     1      -6.133 -10.784  19.019  0.00  0.00    +0.001 C 
ATOM     23  C   UNL     1      -5.164 -10.447  17.899  0.00  0.00    +0.001 C 
ENDBRANCH  24  18
ENDBRANCH  19   7
ENDBRANCH  11  19
TORSDOF 6
ENDMDL
MODEL 7
REMARK VINA RESULT:      -6.0      1.649      2.379
REMARK  Name = 75536557
REMARK  6 active torsions:
REMARK  status: ('A' for Active; 'I' for Inactive)
REMARK    1  A    between atoms: O_4  and  C_10
REMARK    2  A    between atoms: N_6  and  C_8
REMARK    3  A    between atoms: N_6  and  C_9
REMARK    4  A    between atoms: N_7  and  C_19
REMARK    5  A    between atoms: C_11  and  C_19
REMARK    6  A    between atoms: C_18  and  C_24
REMARK                            x       y       z     vdW  Elec       q    Type
REMARK                         _______ _______ _______ _____ _____    ______ ____
ROOT
ATOM      3  O   UNL     1      -1.652 -10.553  13.134  0.00  0.00    -0.371 OA
ATOM      8  C   UNL     1      -1.755 -11.393  15.353  0.00  0.00    +0.111 C 
ATOM     10  C   UNL     1      -2.572 -12.293  14.445  0.00  0.00    +0.164 C 
ATOM     11  C   UNL     1      -1.981 -11.951  13.084  0.00  0.00    +0.165 C 
ATOM     14  C   UNL     1      -1.646 -10.134  14.510  0.00  0.00    +0.181 C 
ENDROOT
BRANCH  10   4
ATOM      4  O   UNL     1      -2.422 -13.665  14.756  0.00  0.00    -0.388 OA
ATOM     27  H   UNL     1      -1.861 -14.073  14.075  0.00  0.00    +0.210 HD
ENDBRANCH  10   4
BRANCH   8   6
ATOM      6  N   UNL     1      -2.371 -11.157  16.648  0.00  0.00    -0.306 NA
ATOM     25  H   UNL     1      -2.108 -10.239  17.002  0.00  0.00    +0.123 HD
BRANCH   6   9
ATOM      1  F   UNL     1      -6.275 -10.149  18.840  0.00  0.00    -0.206 F 
ATOM      2  F   UNL     1      -7.857 -10.881  17.540  0.00  0.00    -0.206 F 
ATOM      9  C   UNL     1      -3.827 -11.256  16.554  0.00  0.00    +0.054 C 
ATOM     12  C   UNL     1      -4.368 -12.096  17.718  0.00  0.00    +0.024 C 
ATOM     13  C   UNL     1      -4.445  -9.852  16.549  0.00  0.00    +0.024 C 
ATOM     15  C   UNL     1      -5.894 -12.162  17.693  0.00  0.00    +0.077 C 
ATOM     16  C   UNL     1      -5.971  -9.917  16.523  0.00  0.00    +0.077 C 
ATOM     17  C   UNL     1      -6.510 -10.774  17.657  0.00  0.00    +0.249 C 
ENDBRANCH   6   9
ENDBRANCH   8   6
BRANCH  11  19
ATOM     19  C   UNL     1      -2.936 -12.213  11.933  0.00  0.00    +0.138 C 
BRANCH  19   7
ATOM      5  O   UNL     1      -5.272 -10.594  12.526  0.00  0.00    -0.276 OA
ATOM      7  N   UNL     1      -3.333 -10.989  11.297  0.00  0.00    -0.313 N 
ATOM     24  C   UNL     1      -4.474 -10.277  11.648  0.00  0.00    +0.216 C 
ATOM     26  H   UNL     1      -2.738 -10.634  10.554  0.00  0.00    +0.149 HD
BRANCH  24  18
ATOM     18  C   UNL     1      -4.640  -9.024  10.844  0.00  0.00    +0.075 C 
ATOM     20  C   UNL     1      -6.108  -8.842  10.441  0.00  0.00    +0.013 C 
ATOM     21  C   UNL     1      -3.846  -9.109   9.539  0.00  0.00    +0.013 C 
ATOM     22  C   UNL     1      -6.112  -8.725   8.921  0.00  0.00    +0.001 C 
ATOM     23  C   UNL     1      -4.876  -9.493   8.487  0.00  0.00    +0.001 C 
ENDBRANCH  24  18
ENDBRANCH  19   7
ENDBRANCH  11  19
TORSDOF 6
ENDMDL
MODEL 8
REMARK VINA RESULT:      -5.9      3.360      6.886
REMARK  Name = 75536557
REMARK  6 active torsions:
REMARK  status: ('A' for Active; 'I' for Inactive)
REMARK    1  A    between atoms: O_4  and  C_10
REMARK    2  A    between atoms: N_6  and  C_8
REMARK    3  A    between atoms: N_6  and  C_9
REMARK    4  A    between atoms: N_7  and  C_19
REMARK    5  A    between atoms: C_11  and  C_19
REMARK    6  A    between atoms: C_18  and  C_24
REMARK                            x       y       z     vdW  Elec       q    Type
REMARK                         _______ _______ _______ _____ _____    ______ ____
ROOT
ATOM      3  O   UNL     1      -1.945 -10.824  16.579  0.00  0.00    -0.371 OA
ATOM      8  C   UNL     1      -2.461 -11.215  14.293  0.00  0.00    +0.111 C 
ATOM     10  C   UNL     1      -3.677 -11.543  15.139  0.00  0.00    +0.164 C 
ATOM     11  C   UNL     1      -3.371 -10.763  16.410  0.00  0.00    +0.165 C 
ATOM     14  C   UNL     1      -1.355 -11.241  15.335  0.00  0.00    +0.181 C 
ENDROOT
BRANCH  10   4
ATOM      4  O   UNL     1      -4.888 -11.122  14.541  0.00  0.00    -0.388 OA
ATOM     27  H   UNL     1      -5.352 -11.907  14.205  0.00  0.00    +0.210 HD
ENDBRANCH  10   4
BRANCH   8   6
ATOM      6  N   UNL     1      -2.237 -12.151  13.205  0.00  0.00    -0.306 NA
ATOM     25  H   UNL     1      -2.915 -12.911  13.248  0.00  0.00    +0.123 HD
BRANCH   6   9
ATOM      1  F   UNL     1      -4.381  -8.763  10.974  0.00  0.00    -0.206 F 
ATOM      2  F   UNL     1      -3.553  -8.798   8.964  0.00  0.00    -0.206 F 
ATOM      9  C   UNL     1      -2.329 -11.474  11.912  0.00  0.00    +0.054 C 
ATOM     12  C   UNL     1      -3.750 -11.617  11.350  0.00  0.00    +0.024 C 
ATOM     13  C   UNL     1      -1.940  -9.999  12.068  0.00  0.00    +0.024 C 
ATOM     15  C   UNL     1      -3.904 -10.860  10.033  0.00  0.00    +0.077 C 
ATOM     16  C   UNL     1      -2.093  -9.241  10.751  0.00  0.00    +0.077 C 
ATOM     17  C   UNL     1      -3.491  -9.405  10.175  0.00  0.00    +0.249 C 
ENDBRANCH   6   9
ENDBRANCH   8   6
BRANCH  11  19
ATOM     19  C   UNL     1      -4.058 -11.328  17.641  0.00  0.00    +0.138 C 
BRANCH  19   7
ATOM      5  O   UNL     1      -6.098 -10.168  19.349  0.00  0.00    -0.276 OA
ATOM      7  N   UNL     1      -5.480 -11.387  17.463  0.00  0.00    -0.313 N 
ATOM     24  C   UNL     1      -6.388 -10.799  18.336  0.00  0.00    +0.216 C 
ATOM     26  H   UNL     1      -5.830 -11.885  16.650  0.00  0.00    +0.149 HD
BRANCH  24  18
ATOM     18  C   UNL     1      -7.809 -10.989  17.903  0.00  0.00    +0.075 C 
ATOM     20  C   UNL     1      -7.862 -11.689  16.540  0.00  0.00    +0.013 C 
ATOM     21  C   UNL     1      -8.503  -9.638  17.717  0.00  0.00    +0.013 C 
ATOM     22  C   UNL     1      -8.671 -10.771  15.631  0.00  0.00    +0.001 C 
ATOM     23  C   UNL     1      -8.457  -9.387  16.217  0.00  0.00    +0.001 C 
ENDBRANCH  24  18
ENDBRANCH  19   7
ENDBRANCH  11  19
TORSDOF 6
ENDMDL
MODEL 9
REMARK VINA RESULT:      -5.9      1.364      2.009
REMARK  Name = 75536557
REMARK  6 active torsions:
REMARK  status: ('A' for Active; 'I' for Inactive)
REMARK    1  A    between atoms: O_4  and  C_10
REMARK    2  A    between atoms: N_6  and  C_8
REMARK    3  A    between atoms: N_6  and  C_9
REMARK    4  A    between atoms: N_7  and  C_19
REMARK    5  A    between atoms: C_11  and  C_19
REMARK    6  A    between atoms: C_18  and  C_24
REMARK                            x       y       z     vdW  Elec       q    Type
REMARK                         _______ _______ _______ _____ _____    ______ ____
ROOT
ATOM      3  O   UNL     1      -4.370 -10.321  14.571  0.00  0.00    -0.371 OA
ATOM      8  C   UNL     1      -3.921 -10.517  16.895  0.00  0.00    +0.111 C 
ATOM     10  C   UNL     1      -2.850 -11.261  16.119  0.00  0.00    +0.164 C 
ATOM     11  C   UNL     1      -2.973 -10.609  14.749  0.00  0.00    +0.165 C 
ATOM     14  C   UNL     1      -5.019 -10.398  15.852  0.00  0.00    +0.181 C 
ENDROOT
BRANCH  10   4
ATOM      4  O   UNL     1      -1.559 -11.091  16.670  0.00  0.00    -0.388 OA
ATOM     27  H   UNL     1      -0.977 -11.779  16.305  0.00  0.00    +0.210 HD
ENDBRANCH  10   4
BRANCH   8   6
ATOM      6  N   UNL     1      -4.355 -11.207  18.099  0.00  0.00    -0.306 NA
ATOM     25  H   UNL     1      -4.095 -10.672  18.925  0.00  0.00    +0.123 HD
BRANCH   6   9
ATOM      1  F   UNL     1      -7.831 -13.049  20.461  0.00  0.00    -0.206 F 
ATOM      2  F   UNL     1      -9.599 -12.664  19.256  0.00  0.00    -0.206 F 
ATOM      9  C   UNL     1      -5.801 -11.422  18.079  0.00  0.00    +0.054 C 
ATOM     12  C   UNL     1      -6.104 -12.926  18.077  0.00  0.00    +0.024 C 
ATOM     13  C   UNL     1      -6.447 -10.729  19.284  0.00  0.00    +0.024 C 
ATOM     15  C   UNL     1      -7.606 -13.190  18.129  0.00  0.00    +0.077 C 
ATOM     16  C   UNL     1      -7.951 -10.991  19.337  0.00  0.00    +0.077 C 
ATOM     17  C   UNL     1      -8.256 -12.480  19.303  0.00  0.00    +0.249 C 
ENDBRANCH   6   9
ENDBRANCH   8   6
BRANCH  11  19
ATOM     19  C   UNL     1      -2.483 -11.494  13.617  0.00  0.00    +0.138 C 
BRANCH  19   7
ATOM      5  O   UNL     1      -1.708  -9.800  11.390  0.00  0.00    -0.276 OA
ATOM      7  N   UNL     1      -3.219 -11.251  12.409  0.00  0.00    -0.313 N 
ATOM     24  C   UNL     1      -2.769 -10.420  11.390  0.00  0.00    +0.216 C 
ATOM     26  H   UNL     1      -4.114 -11.720  12.305  0.00  0.00    +0.149 HD
BRANCH  24  18
ATOM     18  C   UNL     1      -3.718 -10.361  10.233  0.00  0.00    +0.075 C 
ATOM     20  C   UNL     1      -3.674  -8.976   9.578  0.00  0.00    +0.013 C 
ATOM     21  C   UNL     1      -5.159 -10.565  10.704  0.00  0.00    +0.013 C 
ATOM     22  C   UNL     1      -5.108  -8.459   9.597  0.00  0.00    +0.001 C 
ATOM     23  C   UNL     1      -5.738  -9.161  10.787  0.00  0.00    +0.001 C 
ENDBRANCH  24  18
ENDBRANCH  19   7
ENDBRANCH  11  19
TORSDOF 6
ENDMDL
MODEL 10
REMARK VINA RESULT:      -5.9     23.944     26.783
REMARK  Name = 75536557
REMARK  6 active torsions:
REMARK  status: ('A' for Active; 'I' for Inactive)
REMARK    1  A    between atoms: O_4  and  C_10
REMARK    2  A    between atoms: N_6  and  C_8
REMARK    3  A    between atoms: N_6  and  C_9
REMARK    4  A    between atoms: N_7  and  C_19
REMARK    5  A    between atoms: C_11  and  C_19
REMARK    6  A    between atoms: C_18  and  C_24
REMARK                            x       y       z     vdW  Elec       q    Type
REMARK                         _______ _______ _______ _____ _____    ______ ____
ROOT
ATOM      3  O   UNL     1      15.099   7.293   6.046  0.00  0.00    -0.371 OA
ATOM      8  C   UNL     1      14.193   7.969   3.957  0.00  0.00    +0.111 C 
ATOM     10  C   UNL     1      13.073   7.441   4.834  0.00  0.00    +0.164 C 
ATOM     11  C   UNL     1      13.698   7.569   6.217  0.00  0.00    +0.165 C 
ATOM     14  C   UNL     1      15.415   7.387   4.646  0.00  0.00    +0.181 C 
ENDROOT
BRANCH  10   4
ATOM      4  O   UNL     1      11.885   8.200   4.721  0.00  0.00    -0.388 OA
ATOM     27  H   UNL     1      11.227   7.831   5.334  0.00  0.00    +0.210 HD
ENDBRANCH  10   4
BRANCH   8   6
ATOM      6  N   UNL     1      14.081   7.567   2.564  0.00  0.00    -0.306 NA
ATOM     25  H   UNL     1      14.953   7.757   2.072  0.00  0.00    +0.123 HD
BRANCH   6   9
ATOM      1  F   UNL     1      13.277   4.189  -0.434  0.00  0.00    -0.206 F 
ATOM      2  F   UNL     1      12.874   2.434   0.786  0.00  0.00    -0.206 F 
ATOM      9  C   UNL     1      13.750   6.147   2.461  0.00  0.00    +0.054 C 
ATOM     12  C   UNL     1      12.406   5.977   1.740  0.00  0.00    +0.024 C 
ATOM     13  C   UNL     1      14.871   5.403   1.726  0.00  0.00    +0.024 C 
ATOM     15  C   UNL     1      12.061   4.502   1.549  0.00  0.00    +0.077 C 
ATOM     16  C   UNL     1      14.527   3.926   1.536  0.00  0.00    +0.077 C 
ATOM     17  C   UNL     1      13.182   3.754   0.849  0.00  0.00    +0.249 C 
ENDBRANCH   6   9
ENDBRANCH   8   6
BRANCH  11  19
ATOM     19  C   UNL     1      13.107   6.609   7.234  0.00  0.00    +0.138 C 
BRANCH  19   7
ATOM      5  O   UNL     1      11.076   5.586   9.038  0.00  0.00    -0.276 OA
ATOM      7  N   UNL     1      11.743   6.294   6.922  0.00  0.00    -0.313 N 
ATOM     24  C   UNL     1      10.834   5.806   7.854  0.00  0.00    +0.216 C 
ATOM     26  H   UNL     1      11.435   6.444   5.965  0.00  0.00    +0.149 HD
BRANCH  24  18
ATOM     18  C   UNL     1       9.472   5.586   7.271  0.00  0.00    +0.075 C 
ATOM     20  C   UNL     1       9.559   5.469   5.745  0.00  0.00    +0.013 C 
ATOM     21  C   UNL     1       8.562   6.782   7.557  0.00  0.00    +0.013 C 
ATOM     22  C   UNL     1       8.619   6.534   5.191  0.00  0.00    +0.001 C 
ATOM     23  C   UNL     1       8.586   7.598   6.273  0.00  0.00    +0.001 C 
ENDBRANCH  24  18
ENDBRANCH  19   7
ENDBRANCH  11  19
TORSDOF 6
ENDMDL
