MODEL 1
REMARK VINA RESULT:      -6.3      0.000      0.000
REMARK  Name = 11882933
REMARK  15 active torsions:
REMARK  status: ('A' for Active; 'I' for Inactive)
REMARK    1  A    between atoms: O_2  and  C_16
REMARK    2  A    between atoms: O_3  and  C_21
REMARK    3  A    between atoms: O_6  and  C_37
REMARK    4  A    between atoms: O_6  and  C_38
REMARK    5  A    between atoms: N_8  and  C_27
REMARK    6  A    between atoms: N_10  and  C_29
REMARK    7  A    between atoms: N_10  and  C_33
REMARK    8  A    between atoms: N_10  and  C_34
REMARK    9  A    between atoms: C_11  and  C_19
REMARK   10  A    between atoms: C_13  and  C_21
REMARK   11  A    between atoms: C_13  and  C_22
REMARK   12  A    between atoms: C_14  and  C_24
REMARK   13  A    between atoms: C_24  and  C_25
REMARK   14  A    between atoms: C_27  and  C_29
REMARK   15  A    between atoms: C_28  and  C_30
REMARK                            x       y       z     vdW  Elec       q    Type
REMARK                         _______ _______ _______ _____ _____    ______ ____
ROOT
ATOM      1  S   UNL     1     -10.203 -12.671  20.177  0.00  0.00    -0.057 S 
ATOM      5  O   UNL     1     -13.273  -9.251  19.440  0.00  0.00    -0.270 OA
ATOM      7  N   UNL     1     -10.660 -10.502  18.844  0.00  0.00    -0.229 NA
ATOM      9  N   UNL     1     -12.377 -11.221  20.375  0.00  0.00    -0.261 N 
ATOM     11  C   UNL     1      -7.063 -10.737  17.475  0.00  0.00    -0.019 C 
ATOM     12  C   UNL     1      -7.060 -12.328  17.538  0.00  0.00    +0.011 C 
ATOM     13  C   UNL     1      -5.705 -13.055  17.182  0.00  0.00    +0.021 C 
ATOM     14  C   UNL     1      -8.584 -10.249  17.433  0.00  0.00    +0.054 C 
ATOM     15  C   UNL     1      -6.364 -10.271  16.172  0.00  0.00    +0.010 C 
ATOM     16  C   UNL     1      -5.120 -12.438  15.881  0.00  0.00    +0.123 C 
ATOM     17  C   UNL     1      -7.723 -12.847  18.847  0.00  0.00    +0.049 C 
ATOM     18  C   UNL     1      -5.007 -10.918  15.934  0.00  0.00    +0.032 C 
ATOM     19  C   UNL     1      -6.347 -10.085  18.683  0.00  0.00    +0.012 C 
ATOM     20  C   UNL     1      -9.411 -10.963  18.472  0.00  0.00    +0.058 A 
ATOM     22  C   UNL     1      -5.997 -14.554  16.892  0.00  0.00    +0.016 C 
ATOM     23  C   UNL     1      -9.014 -12.137  19.079  0.00  0.00    +0.015 A 
ATOM     26  C   UNL     1     -11.166 -11.318  19.742  0.00  0.00    +0.165 A 
ATOM     28  C   UNL     1     -13.343 -10.216  20.194  0.00  0.00    +0.250 C 
ATOM     42  H   UNL     1     -12.570 -12.000  20.997  0.00  0.00    +0.157 HD
ENDROOT
BRANCH  28  30
ATOM     30  C   UNL     1     -14.586 -10.377  20.992  0.00  0.00    +0.037 A 
ATOM     31  C   UNL     1     -14.750 -11.522  21.743  0.00  0.00    +0.016 A 
ATOM     32  C   UNL     1     -15.533  -9.375  20.957  0.00  0.00    +0.016 A 
ATOM     35  C   UNL     1     -15.917 -11.672  22.493  0.00  0.00    +0.046 A 
ATOM     36  C   UNL     1     -16.700  -9.526  21.706  0.00  0.00    +0.046 A 
ATOM     37  C   UNL     1     -16.891 -10.675  22.475  0.00  0.00    +0.120 A 
BRANCH  37   6
ATOM      6  O   UNL     1     -18.030 -10.820  23.207  0.00  0.00    -0.495 OA
ATOM     38  C   UNL     1     -19.086  -9.894  22.954  0.00  0.00    +0.277 C 
ENDBRANCH  37   6
ENDBRANCH  28  30
BRANCH  16   2
ATOM      2  O   UNL     1      -3.831 -12.984  15.601  0.00  0.00    -0.391 OA
ATOM     39  H   UNL     1      -3.234 -12.732  16.325  0.00  0.00    +0.210 HD
ENDBRANCH  16   2
BRANCH  13  21
ATOM     21  C   UNL     1      -4.656 -13.048  18.315  0.00  0.00    +0.165 C 
BRANCH  21   3
ATOM      3  O   UNL     1      -4.044 -14.317  18.346  0.00  0.00    -0.394 OA
ATOM     40  H   UNL     1      -3.121 -14.214  18.057  0.00  0.00    +0.209 HD
ENDBRANCH  21   3
ENDBRANCH  13  21
BRANCH  14  24
ATOM     24  C   UNL     1      -8.769  -8.728  17.517  0.00  0.00    +0.106 C 
BRANCH  24  25
ATOM      4  O   UNL     1      -9.475  -8.731  15.202  0.00  0.00    -0.276 OA
ATOM      8  N   UNL     1     -10.086  -6.966  16.585  0.00  0.00    -0.314 N 
ATOM     25  C   UNL     1      -9.468  -8.174  16.297  0.00  0.00    +0.214 C 
ATOM     41  H   UNL     1     -10.074  -6.607  17.535  0.00  0.00    +0.149 HD
BRANCH   8  27
ATOM     27  C   UNL     1     -10.828  -6.205  15.607  0.00  0.00    +0.119 C 
BRANCH  27  29
ATOM     29  C   UNL     1     -12.323  -6.255  15.888  0.00  0.00    +0.102 C 
BRANCH  29  10
ATOM     10  N   UNL     1     -13.074  -6.280  14.639  0.00  0.00    -0.307 NA
ATOM     33  C   UNL     1     -12.740  -5.119  13.812  0.00  0.00    +0.104 C 
ATOM     34  C   UNL     1     -12.811  -7.519  13.904  0.00  0.00    +0.104 C 
ENDBRANCH  29  10
ENDBRANCH  27  29
ENDBRANCH   8  27
ENDBRANCH  24  25
ENDBRANCH  14  24
TORSDOF 10
ENDMDL
MODEL 2
REMARK VINA RESULT:      -6.2      5.209      9.618
REMARK  Name = 11882933
REMARK  15 active torsions:
REMARK  status: ('A' for Active; 'I' for Inactive)
REMARK    1  A    between atoms: O_2  and  C_16
REMARK    2  A    between atoms: O_3  and  C_21
REMARK    3  A    between atoms: O_6  and  C_37
REMARK    4  A    between atoms: O_6  and  C_38
REMARK    5  A    between atoms: N_8  and  C_27
REMARK    6  A    between atoms: N_10  and  C_29
REMARK    7  A    between atoms: N_10  and  C_33
REMARK    8  A    between atoms: N_10  and  C_34
REMARK    9  A    between atoms: C_11  and  C_19
REMARK   10  A    between atoms: C_13  and  C_21
REMARK   11  A    between atoms: C_13  and  C_22
REMARK   12  A    between atoms: C_14  and  C_24
REMARK   13  A    between atoms: C_24  and  C_25
REMARK   14  A    between atoms: C_27  and  C_29
REMARK   15  A    between atoms: C_28  and  C_30
REMARK                            x       y       z     vdW  Elec       q    Type
REMARK                         _______ _______ _______ _____ _____    ______ ____
ROOT
ATOM      1  S   UNL     1      -5.532 -10.779  12.530  0.00  0.00    -0.057 S 
ATOM      5  O   UNL     1      -9.022  -8.619  10.334  0.00  0.00    -0.270 OA
ATOM      7  N   UNL     1      -7.864  -9.702  12.831  0.00  0.00    -0.229 NA
ATOM      9  N   UNL     1      -6.941  -9.694  10.605  0.00  0.00    -0.261 N 
ATOM     11  C   UNL     1      -7.819 -10.934  16.485  0.00  0.00    -0.019 C 
ATOM     12  C   UNL     1      -6.235 -10.814  16.587  0.00  0.00    +0.011 C 
ATOM     13  C   UNL     1      -5.563 -11.331  17.919  0.00  0.00    +0.021 C 
ATOM     14  C   UNL     1      -8.309  -9.981  15.299  0.00  0.00    +0.054 C 
ATOM     15  C   UNL     1      -8.460 -10.437  17.806  0.00  0.00    +0.010 C 
ATOM     16  C   UNL     1      -6.354 -10.780  19.138  0.00  0.00    +0.123 C 
ATOM     17  C   UNL     1      -5.540 -11.332  15.294  0.00  0.00    +0.049 C 
ATOM     18  C   UNL     1      -7.851 -11.054  19.057  0.00  0.00    +0.032 C 
ATOM     19  C   UNL     1      -8.297 -12.381  16.214  0.00  0.00    +0.012 C 
ATOM     20  C   UNL     1      -7.458 -10.168  14.068  0.00  0.00    +0.058 A 
ATOM     22  C   UNL     1      -4.118 -10.764  18.010  0.00  0.00    +0.016 C 
ATOM     23  C   UNL     1      -6.212 -10.759  14.092  0.00  0.00    +0.015 A 
ATOM     26  C   UNL     1      -6.932  -9.976  11.945  0.00  0.00    +0.165 A 
ATOM     28  C   UNL     1      -7.962  -9.046   9.889  0.00  0.00    +0.250 C 
ATOM     42  H   UNL     1      -6.084  -9.962  10.131  0.00  0.00    +0.157 HD
ENDROOT
BRANCH  28  30
ATOM     30  C   UNL     1      -7.693  -8.842   8.441  0.00  0.00    +0.037 A 
ATOM     31  C   UNL     1      -6.842  -9.714   7.794  0.00  0.00    +0.016 A 
ATOM     32  C   UNL     1      -8.305  -7.791   7.792  0.00  0.00    +0.016 A 
ATOM     35  C   UNL     1      -6.591  -9.523   6.435  0.00  0.00    +0.046 A 
ATOM     36  C   UNL     1      -8.053  -7.599   6.434  0.00  0.00    +0.046 A 
ATOM     37  C   UNL     1      -7.195  -8.467   5.755  0.00  0.00    +0.120 A 
BRANCH  37   6
ATOM      6  O   UNL     1      -6.952  -8.280   4.429  0.00  0.00    -0.495 OA
ATOM     38  C   UNL     1      -8.066  -8.386   3.544  0.00  0.00    +0.277 C 
ENDBRANCH  37   6
ENDBRANCH  28  30
BRANCH  16   2
ATOM      2  O   UNL     1      -5.851 -11.332  20.355  0.00  0.00    -0.391 OA
ATOM     39  H   UNL     1      -5.257 -10.678  20.759  0.00  0.00    +0.210 HD
ENDBRANCH  16   2
BRANCH  13  21
ATOM     21  C   UNL     1      -5.413 -12.865  18.007  0.00  0.00    +0.165 C 
BRANCH  21   3
ATOM      3  O   UNL     1      -4.179 -13.144  18.630  0.00  0.00    -0.394 OA
ATOM     40  H   UNL     1      -3.827 -13.966  18.249  0.00  0.00    +0.209 HD
ENDBRANCH  21   3
ENDBRANCH  13  21
BRANCH  14  24
ATOM     24  C   UNL     1      -9.803 -10.089  14.970  0.00  0.00    +0.106 C 
BRANCH  24  25
ATOM      4  O   UNL     1     -11.200  -8.569  13.706  0.00  0.00    -0.276 OA
ATOM      8  N   UNL     1      -9.942  -7.761  15.486  0.00  0.00    -0.314 N 
ATOM     25  C   UNL     1     -10.407  -8.746  14.628  0.00  0.00    +0.214 C 
ATOM     41  H   UNL     1      -9.329  -8.009  16.256  0.00  0.00    +0.149 HD
BRANCH   8  27
ATOM     27  C   UNL     1     -10.348  -6.377  15.392  0.00  0.00    +0.119 C 
BRANCH  27  29
ATOM     29  C   UNL     1     -11.592  -6.110  16.226  0.00  0.00    +0.102 C 
BRANCH  29  10
ATOM     10  N   UNL     1     -12.709  -5.742  15.366  0.00  0.00    -0.307 NA
ATOM     33  C   UNL     1     -12.235  -5.363  14.034  0.00  0.00    +0.104 C 
ATOM     34  C   UNL     1     -13.670  -6.844  15.268  0.00  0.00    +0.104 C 
ENDBRANCH  29  10
ENDBRANCH  27  29
ENDBRANCH   8  27
ENDBRANCH  24  25
ENDBRANCH  14  24
TORSDOF 10
ENDMDL
MODEL 3
REMARK VINA RESULT:      -6.0     27.655     31.501
REMARK  Name = 11882933
REMARK  15 active torsions:
REMARK  status: ('A' for Active; 'I' for Inactive)
REMARK    1  A    between atoms: O_2  and  C_16
REMARK    2  A    between atoms: O_3  and  C_21
REMARK    3  A    between atoms: O_6  and  C_37
REMARK    4  A    between atoms: O_6  and  C_38
REMARK    5  A    between atoms: N_8  and  C_27
REMARK    6  A    between atoms: N_10  and  C_29
REMARK    7  A    between atoms: N_10  and  C_33
REMARK    8  A    between atoms: N_10  and  C_34
REMARK    9  A    between atoms: C_11  and  C_19
REMARK   10  A    between atoms: C_13  and  C_21
REMARK   11  A    between atoms: C_13  and  C_22
REMARK   12  A    between atoms: C_14  and  C_24
REMARK   13  A    between atoms: C_24  and  C_25
REMARK   14  A    between atoms: C_27  and  C_29
REMARK   15  A    between atoms: C_28  and  C_30
REMARK                            x       y       z     vdW  Elec       q    Type
REMARK                         _______ _______ _______ _____ _____    ______ ____
ROOT
ATOM      1  S   UNL     1      11.232   3.866   1.930  0.00  0.00    -0.057 S 
ATOM      5  O   UNL     1       9.114   7.204   4.387  0.00  0.00    -0.270 OA
ATOM      7  N   UNL     1      10.000   6.135   1.776  0.00  0.00    -0.229 NA
ATOM      9  N   UNL     1      10.271   5.191   3.977  0.00  0.00    -0.261 N 
ATOM     11  C   UNL     1      10.853   6.196  -1.984  0.00  0.00    -0.019 C 
ATOM     12  C   UNL     1      10.813   4.608  -2.098  0.00  0.00    +0.011 C 
ATOM     13  C   UNL     1      11.229   3.980  -3.485  0.00  0.00    +0.021 C 
ATOM     14  C   UNL     1      10.000   6.618  -0.700  0.00  0.00    +0.054 C 
ATOM     15  C   UNL     1      10.189   6.820  -3.238  0.00  0.00    +0.010 C 
ATOM     16  C   UNL     1      10.512   4.750  -4.631  0.00  0.00    +0.123 C 
ATOM     17  C   UNL     1      11.499   3.933  -0.875  0.00  0.00    +0.049 C 
ATOM     18  C   UNL     1      10.708   6.260  -4.555  0.00  0.00    +0.032 C 
ATOM     19  C   UNL     1      12.291   6.754  -1.854  0.00  0.00    +0.012 C 
ATOM     20  C   UNL     1      10.359   5.768   0.492  0.00  0.00    +0.058 A 
ATOM     22  C   UNL     1      10.738   2.506  -3.541  0.00  0.00    +0.016 C 
ATOM     23  C   UNL     1      11.015   4.559   0.389  0.00  0.00    +0.015 A 
ATOM     26  C   UNL     1      10.415   5.212   2.615  0.00  0.00    +0.165 A 
ATOM     28  C   UNL     1       9.643   6.166   4.771  0.00  0.00    +0.250 C 
ATOM     42  H   UNL     1      10.634   4.347   4.408  0.00  0.00    +0.157 HD
ENDROOT
BRANCH  28  30
ATOM     30  C   UNL     1       9.604   5.873   6.227  0.00  0.00    +0.037 A 
ATOM     31  C   UNL     1       9.254   6.882   7.100  0.00  0.00    +0.016 A 
ATOM     32  C   UNL     1       9.916   4.601   6.659  0.00  0.00    +0.016 A 
ATOM     35  C   UNL     1       9.216   6.606   8.467  0.00  0.00    +0.046 A 
ATOM     36  C   UNL     1       9.879   4.325   8.025  0.00  0.00    +0.046 A 
ATOM     37  C   UNL     1       9.528   5.329   8.929  0.00  0.00    +0.120 A 
BRANCH  37   6
ATOM      6  O   UNL     1       9.491   5.059  10.263  0.00  0.00    -0.495 OA
ATOM     38  C   UNL     1       8.291   4.478  10.773  0.00  0.00    +0.277 C 
ENDBRANCH  37   6
ENDBRANCH  28  30
BRANCH  16   2
ATOM      2  O   UNL     1      10.965   4.291  -5.904  0.00  0.00    -0.391 OA
ATOM     39  H   UNL     1      11.424   5.026  -6.342  0.00  0.00    +0.210 HD
ENDBRANCH  16   2
BRANCH  13  21
ATOM     21  C   UNL     1      12.752   3.920  -3.731  0.00  0.00    +0.165 C 
BRANCH  21   3
ATOM      3  O   UNL     1      13.047   2.671  -4.314  0.00  0.00    -0.394 OA
ATOM     40  H   UNL     1      13.745   2.249  -3.784  0.00  0.00    +0.209 HD
ENDBRANCH  21   3
ENDBRANCH  13  21
BRANCH  14  24
ATOM     24  C   UNL     1      10.056   8.114  -0.361  0.00  0.00    +0.106 C 
BRANCH  24  25
ATOM      4  O   UNL     1       7.900   8.944  -1.082  0.00  0.00    -0.276 OA
ATOM      8  N   UNL     1       8.425   8.928   1.182  0.00  0.00    -0.314 N 
ATOM     25  C   UNL     1       8.678   8.702  -0.162  0.00  0.00    +0.214 C 
ATOM     41  H   UNL     1       9.106   8.645   1.879  0.00  0.00    +0.149 HD
BRANCH   8  27
ATOM     27  C   UNL     1       7.185   9.488   1.669  0.00  0.00    +0.119 C 
BRANCH  27  29
ATOM     29  C   UNL     1       7.373  10.927   2.127  0.00  0.00    +0.102 C 
BRANCH  29  10
ATOM     10  N   UNL     1       6.986  11.068   3.525  0.00  0.00    -0.307 NA
ATOM     33  C   UNL     1       5.801  10.261   3.819  0.00  0.00    +0.104 C 
ATOM     34  C   UNL     1       8.091  10.686   4.407  0.00  0.00    +0.104 C 
ENDBRANCH  29  10
ENDBRANCH  27  29
ENDBRANCH   8  27
ENDBRANCH  24  25
ENDBRANCH  14  24
TORSDOF 10
ENDMDL
MODEL 4
REMARK VINA RESULT:      -5.9      5.696     10.205
REMARK  Name = 11882933
REMARK  15 active torsions:
REMARK  status: ('A' for Active; 'I' for Inactive)
REMARK    1  A    between atoms: O_2  and  C_16
REMARK    2  A    between atoms: O_3  and  C_21
REMARK    3  A    between atoms: O_6  and  C_37
REMARK    4  A    between atoms: O_6  and  C_38
REMARK    5  A    between atoms: N_8  and  C_27
REMARK    6  A    between atoms: N_10  and  C_29
REMARK    7  A    between atoms: N_10  and  C_33
REMARK    8  A    between atoms: N_10  and  C_34
REMARK    9  A    between atoms: C_11  and  C_19
REMARK   10  A    between atoms: C_13  and  C_21
REMARK   11  A    between atoms: C_13  and  C_22
REMARK   12  A    between atoms: C_14  and  C_24
REMARK   13  A    between atoms: C_24  and  C_25
REMARK   14  A    between atoms: C_27  and  C_29
REMARK   15  A    between atoms: C_28  and  C_30
REMARK                            x       y       z     vdW  Elec       q    Type
REMARK                         _______ _______ _______ _____ _____    ______ ____
ROOT
ATOM      1  S   UNL     1      -5.268  -9.712   9.887  0.00  0.00    -0.057 S 
ATOM      5  O   UNL     1      -9.716  -8.363   9.629  0.00  0.00    -0.270 OA
ATOM      7  N   UNL     1      -7.456  -9.399  11.231  0.00  0.00    -0.229 NA
ATOM      9  N   UNL     1      -7.525  -8.824   8.892  0.00  0.00    -0.261 N 
ATOM     11  C   UNL     1      -5.693 -11.054  14.236  0.00  0.00    -0.019 C 
ATOM     12  C   UNL     1      -4.265 -10.500  13.801  0.00  0.00    +0.011 C 
ATOM     13  C   UNL     1      -3.024 -10.980  14.650  0.00  0.00    +0.021 C 
ATOM     14  C   UNL     1      -6.806 -10.129  13.557  0.00  0.00    +0.054 C 
ATOM     15  C   UNL     1      -5.842 -10.947  15.775  0.00  0.00    +0.010 C 
ATOM     16  C   UNL     1      -3.358 -10.850  16.163  0.00  0.00    +0.123 C 
ATOM     17  C   UNL     1      -4.053 -10.616  12.264  0.00  0.00    +0.049 C 
ATOM     18  C   UNL     1      -4.668 -11.528  16.550  0.00  0.00    +0.032 C 
ATOM     19  C   UNL     1      -5.922 -12.526  13.816  0.00  0.00    +0.012 C 
ATOM     20  C   UNL     1      -6.500  -9.894  12.099  0.00  0.00    +0.058 A 
ATOM     22  C   UNL     1      -1.819 -10.041  14.361  0.00  0.00    +0.016 C 
ATOM     23  C   UNL     1      -5.254 -10.101  11.545  0.00  0.00    +0.015 A 
ATOM     26  C   UNL     1      -6.921  -9.271  10.037  0.00  0.00    +0.165 A 
ATOM     28  C   UNL     1      -8.859  -8.404   8.754  0.00  0.00    +0.250 C 
ATOM     42  H   UNL     1      -6.894  -8.768   8.099  0.00  0.00    +0.157 HD
ENDROOT
BRANCH  28  30
ATOM     30  C   UNL     1      -9.242  -7.937   7.396  0.00  0.00    +0.037 A 
ATOM     31  C   UNL     1      -8.308  -8.003   6.382  0.00  0.00    +0.016 A 
ATOM     32  C   UNL     1     -10.517  -7.453   7.193  0.00  0.00    +0.016 A 
ATOM     35  C   UNL     1      -8.668  -7.565   5.107  0.00  0.00    +0.046 A 
ATOM     36  C   UNL     1     -10.876  -7.014   5.919  0.00  0.00    +0.046 A 
ATOM     37  C   UNL     1      -9.951  -7.071   4.876  0.00  0.00    +0.120 A 
BRANCH  37   6
ATOM      6  O   UNL     1     -10.302  -6.644   3.632  0.00  0.00    -0.495 OA
ATOM     38  C   UNL     1      -9.321  -6.765   2.604  0.00  0.00    +0.277 C 
ENDBRANCH  37   6
ENDBRANCH  28  30
BRANCH  16   2
ATOM      2  O   UNL     1      -2.306 -11.396  16.959  0.00  0.00    -0.391 OA
ATOM     39  H   UNL     1      -2.622 -12.230  17.343  0.00  0.00    +0.210 HD
ENDBRANCH  16   2
BRANCH  13  21
ATOM     21  C   UNL     1      -2.530 -12.404  14.316  0.00  0.00    +0.165 C 
BRANCH  21   3
ATOM      3  O   UNL     1      -1.121 -12.397  14.367  0.00  0.00    -0.394 OA
ATOM     40  H   UNL     1      -0.810 -11.560  13.983  0.00  0.00    +0.209 HD
ENDBRANCH  21   3
ENDBRANCH  13  21
BRANCH  14  24
ATOM     24  C   UNL     1      -8.247 -10.614  13.758  0.00  0.00    +0.106 C 
BRANCH  24  25
ATOM      4  O   UNL     1     -10.159  -9.139  13.600  0.00  0.00    -0.276 OA
ATOM      8  N   UNL     1      -8.717  -8.957  15.414  0.00  0.00    -0.314 N 
ATOM     25  C   UNL     1      -9.162  -9.502  14.218  0.00  0.00    +0.214 C 
ATOM     41  H   UNL     1      -7.911  -9.358  15.882  0.00  0.00    +0.149 HD
BRANCH   8  27
ATOM     27  C   UNL     1      -9.394  -7.873  16.088  0.00  0.00    +0.119 C 
BRANCH  27  29
ATOM     29  C   UNL     1     -10.517  -8.391  16.975  0.00  0.00    +0.102 C 
BRANCH  29  10
ATOM     10  N   UNL     1     -11.722  -7.594  16.785  0.00  0.00    -0.307 NA
ATOM     33  C   UNL     1     -11.391  -6.279  16.234  0.00  0.00    +0.104 C 
ATOM     34  C   UNL     1     -12.667  -8.289  15.908  0.00  0.00    +0.104 C 
ENDBRANCH  29  10
ENDBRANCH  27  29
ENDBRANCH   8  27
ENDBRANCH  24  25
ENDBRANCH  14  24
TORSDOF 10
ENDMDL
MODEL 5
REMARK VINA RESULT:      -5.8     19.439     21.986
REMARK  Name = 11882933
REMARK  15 active torsions:
REMARK  status: ('A' for Active; 'I' for Inactive)
REMARK    1  A    between atoms: O_2  and  C_16
REMARK    2  A    between atoms: O_3  and  C_21
REMARK    3  A    between atoms: O_6  and  C_37
REMARK    4  A    between atoms: O_6  and  C_38
REMARK    5  A    between atoms: N_8  and  C_27
REMARK    6  A    between atoms: N_10  and  C_29
REMARK    7  A    between atoms: N_10  and  C_33
REMARK    8  A    between atoms: N_10  and  C_34
REMARK    9  A    between atoms: C_11  and  C_19
REMARK   10  A    between atoms: C_13  and  C_21
REMARK   11  A    between atoms: C_13  and  C_22
REMARK   12  A    between atoms: C_14  and  C_24
REMARK   13  A    between atoms: C_24  and  C_25
REMARK   14  A    between atoms: C_27  and  C_29
REMARK   15  A    between atoms: C_28  and  C_30
REMARK                            x       y       z     vdW  Elec       q    Type
REMARK                         _______ _______ _______ _____ _____    ______ ____
ROOT
ATOM      1  S   UNL     1      -7.010  -9.977  37.944  0.00  0.00    -0.057 S 
ATOM      5  O   UNL     1     -11.660  -9.922  38.156  0.00  0.00    -0.270 OA
ATOM      7  N   UNL     1      -9.051  -8.975  39.178  0.00  0.00    -0.229 NA
ATOM      9  N   UNL     1      -9.513 -10.523  37.389  0.00  0.00    -0.261 N 
ATOM     11  C   UNL     1      -6.587  -7.325  41.643  0.00  0.00    -0.019 C 
ATOM     12  C   UNL     1      -5.454  -7.180  40.534  0.00  0.00    +0.011 C 
ATOM     13  C   UNL     1      -4.052  -6.632  41.011  0.00  0.00    +0.021 C 
ATOM     14  C   UNL     1      -7.993  -7.459  40.895  0.00  0.00    +0.054 C 
ATOM     15  C   UNL     1      -6.620  -6.045  42.517  0.00  0.00    +0.010 C 
ATOM     16  C   UNL     1      -4.270  -5.382  41.910  0.00  0.00    +0.123 C 
ATOM     17  C   UNL     1      -5.359  -8.456  39.648  0.00  0.00    +0.049 C 
ATOM     18  C   UNL     1      -5.256  -5.624  43.047  0.00  0.00    +0.032 C 
ATOM     19  C   UNL     1      -6.375  -8.550  42.564  0.00  0.00    +0.012 C 
ATOM     20  C   UNL     1      -7.913  -8.455  39.765  0.00  0.00    +0.058 A 
ATOM     22  C   UNL     1      -3.239  -6.172  39.768  0.00  0.00    +0.016 C 
ATOM     23  C   UNL     1      -6.722  -8.873  39.209  0.00  0.00    +0.015 A 
ATOM     26  C   UNL     1      -8.696  -9.795  38.213  0.00  0.00    +0.165 A 
ATOM     28  C   UNL     1     -10.918 -10.546  37.405  0.00  0.00    +0.250 C 
ATOM     42  H   UNL     1      -9.008 -11.051  36.685  0.00  0.00    +0.157 HD
ENDROOT
BRANCH  28  30
ATOM     30  C   UNL     1     -11.552 -11.407  36.373  0.00  0.00    +0.037 A 
ATOM     31  C   UNL     1     -12.736 -10.993  35.799  0.00  0.00    +0.016 A 
ATOM     32  C   UNL     1     -10.936 -12.589  36.022  0.00  0.00    +0.016 A 
ATOM     35  C   UNL     1     -13.331 -11.801  34.829  0.00  0.00    +0.046 A 
ATOM     36  C   UNL     1     -11.531 -13.397  35.053  0.00  0.00    +0.046 A 
ATOM     37  C   UNL     1     -12.729 -13.002  34.456  0.00  0.00    +0.120 A 
BRANCH  37   6
ATOM      6  O   UNL     1     -13.308 -13.790  33.509  0.00  0.00    -0.495 OA
ATOM     38  C   UNL     1     -14.207 -13.156  32.600  0.00  0.00    +0.277 C 
ENDBRANCH  37   6
ENDBRANCH  28  30
BRANCH  16   2
ATOM      2  O   UNL     1      -3.031  -4.939  42.462  0.00  0.00    -0.391 OA
ATOM     39  H   UNL     1      -2.553  -4.448  41.773  0.00  0.00    +0.210 HD
ENDBRANCH  16   2
BRANCH  13  21
ATOM     21  C   UNL     1      -3.166  -7.676  41.724  0.00  0.00    +0.165 C 
BRANCH  21   3
ATOM      3  O   UNL     1      -1.822  -7.275  41.575  0.00  0.00    -0.394 OA
ATOM     40  H   UNL     1      -1.699  -6.443  42.063  0.00  0.00    +0.209 HD
ENDBRANCH  21   3
ENDBRANCH  13  21
BRANCH  14  24
ATOM     24  C   UNL     1      -9.181  -7.753  41.820  0.00  0.00    +0.106 C 
BRANCH  24  25
ATOM      4  O   UNL     1     -11.146  -6.536  42.537  0.00  0.00    -0.276 OA
ATOM      8  N   UNL     1     -10.135  -5.993  40.516  0.00  0.00    -0.314 N 
ATOM     25  C   UNL     1     -10.268  -6.710  41.696  0.00  0.00    +0.214 C 
ATOM     41  H   UNL     1      -9.344  -6.169  39.905  0.00  0.00    +0.149 HD
BRANCH   8  27
ATOM     27  C   UNL     1     -11.036  -4.932  40.131  0.00  0.00    +0.119 C 
BRANCH  27  29
ATOM     29  C   UNL     1     -10.350  -3.931  39.213  0.00  0.00    +0.102 C 
BRANCH  29  10
ATOM     10  N   UNL     1     -10.678  -2.568  39.612  0.00  0.00    -0.307 NA
ATOM     33  C   UNL     1     -10.609  -2.424  41.067  0.00  0.00    +0.104 C 
ATOM     34  C   UNL     1      -9.780  -1.610  38.964  0.00  0.00    +0.104 C 
ENDBRANCH  29  10
ENDBRANCH  27  29
ENDBRANCH   8  27
ENDBRANCH  24  25
ENDBRANCH  14  24
TORSDOF 10
ENDMDL
MODEL 6
REMARK VINA RESULT:      -5.8     17.027     20.576
REMARK  Name = 11882933
REMARK  15 active torsions:
REMARK  status: ('A' for Active; 'I' for Inactive)
REMARK    1  A    between atoms: O_2  and  C_16
REMARK    2  A    between atoms: O_3  and  C_21
REMARK    3  A    between atoms: O_6  and  C_37
REMARK    4  A    between atoms: O_6  and  C_38
REMARK    5  A    between atoms: N_8  and  C_27
REMARK    6  A    between atoms: N_10  and  C_29
REMARK    7  A    between atoms: N_10  and  C_33
REMARK    8  A    between atoms: N_10  and  C_34
REMARK    9  A    between atoms: C_11  and  C_19
REMARK   10  A    between atoms: C_13  and  C_21
REMARK   11  A    between atoms: C_13  and  C_22
REMARK   12  A    between atoms: C_14  and  C_24
REMARK   13  A    between atoms: C_24  and  C_25
REMARK   14  A    between atoms: C_27  and  C_29
REMARK   15  A    between atoms: C_28  and  C_30
REMARK                            x       y       z     vdW  Elec       q    Type
REMARK                         _______ _______ _______ _____ _____    ______ ____
ROOT
ATOM      1  S   UNL     1     -10.535  -9.890  37.697  0.00  0.00    -0.057 S 
ATOM      5  O   UNL     1      -5.930 -10.421  38.115  0.00  0.00    -0.270 OA
ATOM      7  N   UNL     1      -8.519 -11.373  37.047  0.00  0.00    -0.229 NA
ATOM      9  N   UNL     1      -8.054  -9.443  38.413  0.00  0.00    -0.261 N 
ATOM     11  C   UNL     1     -11.015 -13.850  35.465  0.00  0.00    -0.019 C 
ATOM     12  C   UNL     1     -12.040 -12.693  35.083  0.00  0.00    +0.011 C 
ATOM     13  C   UNL     1     -13.422 -13.138  34.462  0.00  0.00    +0.021 C 
ATOM     14  C   UNL     1      -9.572 -13.188  35.646  0.00  0.00    +0.054 C 
ATOM     15  C   UNL     1     -10.939 -14.876  34.304  0.00  0.00    +0.010 C 
ATOM     16  C   UNL     1     -13.167 -14.197  33.352  0.00  0.00    +0.123 C 
ATOM     17  C   UNL     1     -12.177 -11.652  36.232  0.00  0.00    +0.049 C 
ATOM     18  C   UNL     1     -12.298 -15.360  33.819  0.00  0.00    +0.032 C 
ATOM     19  C   UNL     1     -11.405 -14.597  36.763  0.00  0.00    +0.012 C 
ATOM     20  C   UNL     1      -9.650 -11.941  36.491  0.00  0.00    +0.058 A 
ATOM     22  C   UNL     1     -14.091 -11.909  33.784  0.00  0.00    +0.016 C 
ATOM     23  C   UNL     1     -10.825 -11.259  36.725  0.00  0.00    +0.015 A 
ATOM     26  C   UNL     1      -8.866 -10.293  37.710  0.00  0.00    +0.165 A 
ATOM     28  C   UNL     1      -6.662  -9.551  38.573  0.00  0.00    +0.250 C 
ATOM     42  H   UNL     1      -8.547  -8.646  38.805  0.00  0.00    +0.157 HD
ENDROOT
BRANCH  28  30
ATOM     30  C   UNL     1      -6.027  -8.465  39.365  0.00  0.00    +0.037 A 
ATOM     31  C   UNL     1      -6.503  -7.178  39.230  0.00  0.00    +0.016 A 
ATOM     32  C   UNL     1      -4.983  -8.780  40.209  0.00  0.00    +0.016 A 
ATOM     35  C   UNL     1      -5.907  -6.159  39.974  0.00  0.00    +0.046 A 
ATOM     36  C   UNL     1      -4.387  -7.762  40.952  0.00  0.00    +0.046 A 
ATOM     37  C   UNL     1      -4.850  -6.451  40.835  0.00  0.00    +0.120 A 
BRANCH  37   6
ATOM      6  O   UNL     1      -4.268  -5.458  41.561  0.00  0.00    -0.495 OA
ATOM     38  C   UNL     1      -2.851  -5.511  41.714  0.00  0.00    +0.277 C 
ENDBRANCH  37   6
ENDBRANCH  28  30
BRANCH  16   2
ATOM      2  O   UNL     1     -14.402 -14.715  32.859  0.00  0.00    -0.391 OA
ATOM     39  H   UNL     1     -14.982 -13.963  32.654  0.00  0.00    +0.210 HD
ENDBRANCH  16   2
BRANCH  13  21
ATOM     21  C   UNL     1     -14.450 -13.656  35.491  0.00  0.00    +0.165 C 
BRANCH  21   3
ATOM      3  O   UNL     1     -15.723 -13.195  35.099  0.00  0.00    -0.394 OA
ATOM     40  H   UNL     1     -16.386 -13.614  35.675  0.00  0.00    +0.209 HD
ENDBRANCH  21   3
ENDBRANCH  13  21
BRANCH  14  24
ATOM     24  C   UNL     1      -8.490 -14.147  36.159  0.00  0.00    +0.106 C 
BRANCH  24  25
ATOM      4  O   UNL     1      -6.895 -14.137  34.339  0.00  0.00    -0.276 OA
ATOM      8  N   UNL     1      -6.259 -13.336  36.426  0.00  0.00    -0.314 N 
ATOM     25  C   UNL     1      -7.148 -13.886  35.514  0.00  0.00    +0.214 C 
ATOM     41  H   UNL     1      -6.573 -13.111  37.365  0.00  0.00    +0.149 HD
BRANCH   8  27
ATOM     27  C   UNL     1      -4.898 -12.985  36.088  0.00  0.00    +0.119 C 
BRANCH  27  29
ATOM     29  C   UNL     1      -3.914 -14.013  36.627  0.00  0.00    +0.102 C 
BRANCH  29  10
ATOM     10  N   UNL     1      -2.989 -14.427  35.579  0.00  0.00    -0.307 NA
ATOM     33  C   UNL     1      -1.783 -15.020  36.159  0.00  0.00    +0.104 C 
ATOM     34  C   UNL     1      -3.634 -15.376  34.668  0.00  0.00    +0.104 C 
ENDBRANCH  29  10
ENDBRANCH  27  29
ENDBRANCH   8  27
ENDBRANCH  24  25
ENDBRANCH  14  24
TORSDOF 10
ENDMDL
MODEL 7
REMARK VINA RESULT:      -5.8     18.778     22.576
REMARK  Name = 11882933
REMARK  15 active torsions:
REMARK  status: ('A' for Active; 'I' for Inactive)
REMARK    1  A    between atoms: O_2  and  C_16
REMARK    2  A    between atoms: O_3  and  C_21
REMARK    3  A    between atoms: O_6  and  C_37
REMARK    4  A    between atoms: O_6  and  C_38
REMARK    5  A    between atoms: N_8  and  C_27
REMARK    6  A    between atoms: N_10  and  C_29
REMARK    7  A    between atoms: N_10  and  C_33
REMARK    8  A    between atoms: N_10  and  C_34
REMARK    9  A    between atoms: C_11  and  C_19
REMARK   10  A    between atoms: C_13  and  C_21
REMARK   11  A    between atoms: C_13  and  C_22
REMARK   12  A    between atoms: C_14  and  C_24
REMARK   13  A    between atoms: C_24  and  C_25
REMARK   14  A    between atoms: C_27  and  C_29
REMARK   15  A    between atoms: C_28  and  C_30
REMARK                            x       y       z     vdW  Elec       q    Type
REMARK                         _______ _______ _______ _____ _____    ______ ____
ROOT
ATOM      1  S   UNL     1      -6.065  -7.512  39.274  0.00  0.00    -0.057 S 
ATOM      5  O   UNL     1      -7.327 -11.858  38.185  0.00  0.00    -0.270 OA
ATOM      7  N   UNL     1      -8.070  -9.133  39.061  0.00  0.00    -0.229 NA
ATOM      9  N   UNL     1      -5.892 -10.021  38.535  0.00  0.00    -0.261 N 
ATOM     11  C   UNL     1     -10.301  -6.365  40.554  0.00  0.00    -0.019 C 
ATOM     12  C   UNL     1      -9.410  -5.202  39.929  0.00  0.00    +0.011 C 
ATOM     13  C   UNL     1      -9.790  -3.721  40.322  0.00  0.00    +0.021 C 
ATOM     14  C   UNL     1     -10.039  -7.694  39.707  0.00  0.00    +0.054 C 
ATOM     15  C   UNL     1     -11.800  -5.991  40.426  0.00  0.00    +0.010 C 
ATOM     16  C   UNL     1     -11.327  -3.533  40.182  0.00  0.00    +0.123 C 
ATOM     17  C   UNL     1      -7.891  -5.515  40.062  0.00  0.00    +0.049 C 
ATOM     18  C   UNL     1     -12.132  -4.592  40.925  0.00  0.00    +0.032 C 
ATOM     19  C   UNL     1      -9.981  -6.633  42.045  0.00  0.00    +0.012 C 
ATOM     20  C   UNL     1      -8.564  -7.913  39.483  0.00  0.00    +0.058 A 
ATOM     22  C   UNL     1      -9.111  -2.743  39.321  0.00  0.00    +0.016 C 
ATOM     23  C   UNL     1      -7.621  -6.916  39.630  0.00  0.00    +0.015 A 
ATOM     26  C   UNL     1      -6.765  -9.041  38.925  0.00  0.00    +0.165 A 
ATOM     28  C   UNL     1      -6.212 -11.346  38.194  0.00  0.00    +0.250 C 
ATOM     42  H   UNL     1      -4.932  -9.698  38.458  0.00  0.00    +0.157 HD
ENDROOT
BRANCH  28  30
ATOM     30  C   UNL     1      -5.064 -12.191  37.775  0.00  0.00    +0.037 A 
ATOM     31  C   UNL     1      -4.227 -12.702  38.745  0.00  0.00    +0.016 A 
ATOM     32  C   UNL     1      -4.874 -12.438  36.432  0.00  0.00    +0.016 A 
ATOM     35  C   UNL     1      -3.149 -13.497  38.351  0.00  0.00    +0.046 A 
ATOM     36  C   UNL     1      -3.797 -13.231  36.039  0.00  0.00    +0.046 A 
ATOM     37  C   UNL     1      -2.934 -13.761  36.999  0.00  0.00    +0.120 A 
BRANCH  37   6
ATOM      6  O   UNL     1      -1.884 -14.537  36.615  0.00  0.00    -0.495 OA
ATOM     38  C   UNL     1      -2.052 -15.314  35.430  0.00  0.00    +0.277 C 
ENDBRANCH  37   6
ENDBRANCH  28  30
BRANCH  16   2
ATOM      2  O   UNL     1     -11.720  -2.243  40.652  0.00  0.00    -0.391 OA
ATOM     39  H   UNL     1     -12.689  -2.227  40.709  0.00  0.00    +0.210 HD
ENDBRANCH  16   2
BRANCH  13  21
ATOM     21  C   UNL     1      -9.306  -3.285  41.722  0.00  0.00    +0.165 C 
BRANCH  21   3
ATOM      3  O   UNL     1      -8.743  -1.998  41.603  0.00  0.00    -0.394 OA
ATOM     40  H   UNL     1      -9.106  -1.582  40.802  0.00  0.00    +0.209 HD
ENDBRANCH  21   3
ENDBRANCH  13  21
BRANCH  14  24
ATOM     24  C   UNL     1     -10.714  -8.952  40.269  0.00  0.00    +0.106 C 
BRANCH  24  25
ATOM      4  O   UNL     1     -12.858  -9.773  39.502  0.00  0.00    -0.276 OA
ATOM      8  N   UNL     1     -11.012  -9.894  38.094  0.00  0.00    -0.314 N 
ATOM     25  C   UNL     1     -11.666  -9.577  39.275  0.00  0.00    +0.214 C 
ATOM     41  H   UNL     1     -10.035  -9.645  37.975  0.00  0.00    +0.149 HD
BRANCH   8  27
ATOM     27  C   UNL     1     -11.673 -10.507  36.966  0.00  0.00    +0.119 C 
BRANCH  27  29
ATOM     29  C   UNL     1     -10.977 -11.795  36.551  0.00  0.00    +0.102 C 
BRANCH  29  10
ATOM     10  N   UNL     1     -11.752 -12.484  35.527  0.00  0.00    -0.307 NA
ATOM     33  C   UNL     1     -12.115 -13.831  35.972  0.00  0.00    +0.104 C 
ATOM     34  C   UNL     1     -12.955 -11.720  35.190  0.00  0.00    +0.104 C 
ENDBRANCH  29  10
ENDBRANCH  27  29
ENDBRANCH   8  27
ENDBRANCH  24  25
ENDBRANCH  14  24
TORSDOF 10
ENDMDL
MODEL 8
REMARK VINA RESULT:      -5.7      6.456     11.270
REMARK  Name = 11882933
REMARK  15 active torsions:
REMARK  status: ('A' for Active; 'I' for Inactive)
REMARK    1  A    between atoms: O_2  and  C_16
REMARK    2  A    between atoms: O_3  and  C_21
REMARK    3  A    between atoms: O_6  and  C_37
REMARK    4  A    between atoms: O_6  and  C_38
REMARK    5  A    between atoms: N_8  and  C_27
REMARK    6  A    between atoms: N_10  and  C_29
REMARK    7  A    between atoms: N_10  and  C_33
REMARK    8  A    between atoms: N_10  and  C_34
REMARK    9  A    between atoms: C_11  and  C_19
REMARK   10  A    between atoms: C_13  and  C_21
REMARK   11  A    between atoms: C_13  and  C_22
REMARK   12  A    between atoms: C_14  and  C_24
REMARK   13  A    between atoms: C_24  and  C_25
REMARK   14  A    between atoms: C_27  and  C_29
REMARK   15  A    between atoms: C_28  and  C_30
REMARK                            x       y       z     vdW  Elec       q    Type
REMARK                         _______ _______ _______ _____ _____    ______ ____
ROOT
ATOM      1  S   UNL     1      -4.093  -9.662   9.395  0.00  0.00    -0.057 S 
ATOM      5  O   UNL     1      -8.627  -8.938   8.626  0.00  0.00    -0.270 OA
ATOM      7  N   UNL     1      -6.445  -9.700  10.472  0.00  0.00    -0.229 NA
ATOM      9  N   UNL     1      -6.322  -9.066   8.150  0.00  0.00    -0.261 N 
ATOM     11  C   UNL     1      -4.828 -11.187  13.641  0.00  0.00    -0.019 C 
ATOM     12  C   UNL     1      -3.451 -10.427  13.390  0.00  0.00    +0.011 C 
ATOM     13  C   UNL     1      -2.262 -10.756  14.374  0.00  0.00    +0.021 C 
ATOM     14  C   UNL     1      -5.974 -10.404  12.848  0.00  0.00    +0.054 C 
ATOM     15  C   UNL     1      -5.168 -11.150  15.153  0.00  0.00    +0.010 C 
ATOM     16  C   UNL     1      -2.785 -10.721  15.838  0.00  0.00    +0.123 C 
ATOM     17  C   UNL     1      -3.048 -10.463  11.886  0.00  0.00    +0.049 C 
ATOM     18  C   UNL     1      -4.022 -11.587  16.054  0.00  0.00    +0.032 C 
ATOM     19  C   UNL     1      -4.794 -12.662  13.175  0.00  0.00    +0.012 C 
ATOM     20  C   UNL     1      -5.537 -10.083  11.441  0.00  0.00    +0.058 A 
ATOM     22  C   UNL     1      -1.177  -9.649  14.245  0.00  0.00    +0.016 C 
ATOM     23  C   UNL     1      -4.218 -10.098  11.037  0.00  0.00    +0.015 A 
ATOM     26  C   UNL     1      -5.798  -9.461   9.352  0.00  0.00    +0.165 A 
ATOM     28  C   UNL     1      -7.676  -8.832   7.859  0.00  0.00    +0.250 C 
ATOM     42  H   UNL     1      -5.617  -8.898   7.439  0.00  0.00    +0.157 HD
ENDROOT
BRANCH  28  30
ATOM     30  C   UNL     1      -7.961  -8.379   6.472  0.00  0.00    +0.037 A 
ATOM     31  C   UNL     1      -9.072  -7.594   6.244  0.00  0.00    +0.016 A 
ATOM     32  C   UNL     1      -7.105  -8.757   5.460  0.00  0.00    +0.016 A 
ATOM     35  C   UNL     1      -9.338  -7.168   4.942  0.00  0.00    +0.046 A 
ATOM     36  C   UNL     1      -7.371  -8.332   4.159  0.00  0.00    +0.046 A 
ATOM     37  C   UNL     1      -8.489  -7.537   3.900  0.00  0.00    +0.120 A 
BRANCH  37   6
ATOM      6  O   UNL     1      -8.747  -7.122   2.630  0.00  0.00    -0.495 OA
ATOM     38  C   UNL     1      -9.803  -6.176   2.460  0.00  0.00    +0.277 C 
ENDBRANCH  37   6
ENDBRANCH  28  30
BRANCH  16   2
ATOM      2  O   UNL     1      -1.767 -11.140  16.746  0.00  0.00    -0.391 OA
ATOM     39  H   UNL     1      -1.199 -10.374  16.934  0.00  0.00    +0.210 HD
ENDBRANCH  16   2
BRANCH  13  21
ATOM     21  C   UNL     1      -1.536 -12.086  14.080  0.00  0.00    +0.165 C 
BRANCH  21   3
ATOM      3  O   UNL     1      -2.156 -13.095  14.844  0.00  0.00    -0.394 OA
ATOM     40  H   UNL     1      -1.465 -13.702  15.160  0.00  0.00    +0.209 HD
ENDBRANCH  21   3
ENDBRANCH  13  21
BRANCH  14  24
ATOM     24  C   UNL     1      -7.345 -11.092  12.867  0.00  0.00    +0.106 C 
BRANCH  24  25
ATOM      4  O   UNL     1      -8.712  -9.248  13.635  0.00  0.00    -0.276 OA
ATOM      8  N   UNL     1      -8.678 -11.231  14.846  0.00  0.00    -0.314 N 
ATOM     25  C   UNL     1      -8.314 -10.398  13.798  0.00  0.00    +0.214 C 
ATOM     41  H   UNL     1      -8.340 -12.189  14.870  0.00  0.00    +0.149 HD
BRANCH   8  27
ATOM     27  C   UNL     1      -9.591 -10.832  15.892  0.00  0.00    +0.119 C 
BRANCH  27  29
ATOM     29  C   UNL     1      -8.849 -10.196  17.058  0.00  0.00    +0.102 C 
BRANCH  29  10
ATOM     10  N   UNL     1      -7.885 -11.134  17.619  0.00  0.00    -0.307 NA
ATOM     33  C   UNL     1      -6.884 -10.430  18.421  0.00  0.00    +0.104 C 
ATOM     34  C   UNL     1      -8.564 -12.148  18.430  0.00  0.00    +0.104 C 
ENDBRANCH  29  10
ENDBRANCH  27  29
ENDBRANCH   8  27
ENDBRANCH  24  25
ENDBRANCH  14  24
TORSDOF 10
ENDMDL
MODEL 9
REMARK VINA RESULT:      -5.6      5.145     10.564
REMARK  Name = 11882933
REMARK  15 active torsions:
REMARK  status: ('A' for Active; 'I' for Inactive)
REMARK    1  A    between atoms: O_2  and  C_16
REMARK    2  A    between atoms: O_3  and  C_21
REMARK    3  A    between atoms: O_6  and  C_37
REMARK    4  A    between atoms: O_6  and  C_38
REMARK    5  A    between atoms: N_8  and  C_27
REMARK    6  A    between atoms: N_10  and  C_29
REMARK    7  A    between atoms: N_10  and  C_33
REMARK    8  A    between atoms: N_10  and  C_34
REMARK    9  A    between atoms: C_11  and  C_19
REMARK   10  A    between atoms: C_13  and  C_21
REMARK   11  A    between atoms: C_13  and  C_22
REMARK   12  A    between atoms: C_14  and  C_24
REMARK   13  A    between atoms: C_24  and  C_25
REMARK   14  A    between atoms: C_27  and  C_29
REMARK   15  A    between atoms: C_28  and  C_30
REMARK                            x       y       z     vdW  Elec       q    Type
REMARK                         _______ _______ _______ _____ _____    ______ ____
ROOT
ATOM      1  S   UNL     1     -10.497 -10.150  13.121  0.00  0.00    -0.057 S 
ATOM      5  O   UNL     1      -6.078  -9.533  11.795  0.00  0.00    -0.270 OA
ATOM      7  N   UNL     1      -8.057  -9.947  13.954  0.00  0.00    -0.229 NA
ATOM      9  N   UNL     1      -8.412  -9.776  11.576  0.00  0.00    -0.261 N 
ATOM     11  C   UNL     1      -9.419 -10.013  17.561  0.00  0.00    -0.019 C 
ATOM     12  C   UNL     1     -10.654 -10.934  17.160  0.00  0.00    +0.011 C 
ATOM     13  C   UNL     1     -11.720 -11.231  18.286  0.00  0.00    +0.021 C 
ATOM     14  C   UNL     1      -8.283 -10.204  16.453  0.00  0.00    +0.054 C 
ATOM     15  C   UNL     1      -8.852 -10.476  18.927  0.00  0.00    +0.010 C 
ATOM     16  C   UNL     1     -10.983 -11.635  19.594  0.00  0.00    +0.123 C 
ATOM     17  C   UNL     1     -11.281 -10.488  15.807  0.00  0.00    +0.049 C 
ATOM     18  C   UNL     1      -9.908 -10.637  20.011  0.00  0.00    +0.032 C 
ATOM     19  C   UNL     1      -9.793  -8.514  17.661  0.00  0.00    +0.012 C 
ATOM     20  C   UNL     1      -8.862 -10.125  15.064  0.00  0.00    +0.058 A 
ATOM     22  C   UNL     1     -12.590 -12.444  17.852  0.00  0.00    +0.016 C 
ATOM     23  C   UNL     1     -10.207 -10.273  14.795  0.00  0.00    +0.015 A 
ATOM     26  C   UNL     1      -8.811  -9.935  12.877  0.00  0.00    +0.165 A 
ATOM     28  C   UNL     1      -7.098  -9.587  11.117  0.00  0.00    +0.250 C 
ATOM     42  H   UNL     1      -9.174  -9.851  10.910  0.00  0.00    +0.157 HD
ENDROOT
BRANCH  28  30
ATOM     30  C   UNL     1      -6.949  -9.473   9.643  0.00  0.00    +0.037 A 
ATOM     31  C   UNL     1      -8.039  -9.081   8.893  0.00  0.00    +0.016 A 
ATOM     32  C   UNL     1      -5.727  -9.759   9.072  0.00  0.00    +0.016 A 
ATOM     35  C   UNL     1      -7.899  -8.972   7.509  0.00  0.00    +0.046 A 
ATOM     36  C   UNL     1      -5.588  -9.651   7.689  0.00  0.00    +0.046 A 
ATOM     37  C   UNL     1      -6.675  -9.257   6.907  0.00  0.00    +0.120 A 
BRANCH  37   6
ATOM      6  O   UNL     1      -6.537  -9.151   5.557  0.00  0.00    -0.495 OA
ATOM     38  C   UNL     1      -7.438  -9.910   4.752  0.00  0.00    +0.277 C 
ENDBRANCH  37   6
ENDBRANCH  28  30
BRANCH  16   2
ATOM      2  O   UNL     1     -11.912 -11.786  20.668  0.00  0.00    -0.391 OA
ATOM     39  H   UNL     1     -11.987 -12.733  20.869  0.00  0.00    +0.210 HD
ENDBRANCH  16   2
BRANCH  13  21
ATOM     21  C   UNL     1     -12.714 -10.079  18.547  0.00  0.00    +0.165 C 
BRANCH  21   3
ATOM      3  O   UNL     1     -13.904 -10.641  19.053  0.00  0.00    -0.394 OA
ATOM     40  H   UNL     1     -14.653 -10.136  18.694  0.00  0.00    +0.209 HD
ENDBRANCH  21   3
ENDBRANCH  13  21
BRANCH  14  24
ATOM     24  C   UNL     1      -7.074  -9.273  16.612  0.00  0.00    +0.106 C 
BRANCH  24  25
ATOM      4  O   UNL     1      -5.363 -10.549  17.754  0.00  0.00    -0.276 OA
ATOM      8  N   UNL     1      -5.128 -10.085  15.489  0.00  0.00    -0.314 N 
ATOM     25  C   UNL     1      -5.776 -10.041  16.715  0.00  0.00    +0.214 C 
ATOM     41  H   UNL     1      -5.572  -9.684  14.669  0.00  0.00    +0.149 HD
BRANCH   8  27
ATOM     27  C   UNL     1      -3.862 -10.751  15.289  0.00  0.00    +0.119 C 
BRANCH  27  29
ATOM     29  C   UNL     1      -3.589 -10.985  13.810  0.00  0.00    +0.102 C 
BRANCH  29  10
ATOM     10  N   UNL     1      -2.159 -10.913  13.541  0.00  0.00    -0.307 NA
ATOM     33  C   UNL     1      -1.910 -10.369  12.205  0.00  0.00    +0.104 C 
ATOM     34  C   UNL     1      -1.483 -10.099  14.554  0.00  0.00    +0.104 C 
ENDBRANCH  29  10
ENDBRANCH  27  29
ENDBRANCH   8  27
ENDBRANCH  24  25
ENDBRANCH  14  24
TORSDOF 10
ENDMDL
MODEL 10
REMARK VINA RESULT:      -5.5      2.632      6.531
REMARK  Name = 11882933
REMARK  15 active torsions:
REMARK  status: ('A' for Active; 'I' for Inactive)
REMARK    1  A    between atoms: O_2  and  C_16
REMARK    2  A    between atoms: O_3  and  C_21
REMARK    3  A    between atoms: O_6  and  C_37
REMARK    4  A    between atoms: O_6  and  C_38
REMARK    5  A    between atoms: N_8  and  C_27
REMARK    6  A    between atoms: N_10  and  C_29
REMARK    7  A    between atoms: N_10  and  C_33
REMARK    8  A    between atoms: N_10  and  C_34
REMARK    9  A    between atoms: C_11  and  C_19
REMARK   10  A    between atoms: C_13  and  C_21
REMARK   11  A    between atoms: C_13  and  C_22
REMARK   12  A    between atoms: C_14  and  C_24
REMARK   13  A    between atoms: C_24  and  C_25
REMARK   14  A    between atoms: C_27  and  C_29
REMARK   15  A    between atoms: C_28  and  C_30
REMARK                            x       y       z     vdW  Elec       q    Type
REMARK                         _______ _______ _______ _____ _____    ______ ____
ROOT
ATOM      1  S   UNL     1      -9.110  -9.172  14.207  0.00  0.00    -0.057 S 
ATOM      5  O   UNL     1     -13.295  -8.527  16.139  0.00  0.00    -0.270 OA
ATOM      7  N   UNL     1     -10.525  -9.542  16.341  0.00  0.00    -0.229 NA
ATOM      9  N   UNL     1     -11.612  -8.443  14.491  0.00  0.00    -0.261 N 
ATOM     11  C   UNL     1      -7.577 -11.563  17.789  0.00  0.00    -0.019 C 
ATOM     12  C   UNL     1      -6.497 -10.702  16.997  0.00  0.00    +0.011 C 
ATOM     13  C   UNL     1      -4.993 -11.167  17.107  0.00  0.00    +0.021 C 
ATOM     14  C   UNL     1      -8.913 -10.692  17.903  0.00  0.00    +0.054 C 
ATOM     15  C   UNL     1      -7.059 -11.852  19.221  0.00  0.00    +0.010 C 
ATOM     16  C   UNL     1      -4.654 -11.457  18.596  0.00  0.00    +0.123 C 
ATOM     17  C   UNL     1      -6.958 -10.412  15.539  0.00  0.00    +0.049 C 
ATOM     18  C   UNL     1      -5.642 -12.407  19.263  0.00  0.00    +0.032 C 
ATOM     19  C   UNL     1      -7.899 -12.910  17.096  0.00  0.00    +0.012 C 
ATOM     20  C   UNL     1      -9.269 -10.071  16.577  0.00  0.00    +0.058 A 
ATOM     22  C   UNL     1      -4.069 -10.006  16.640  0.00  0.00    +0.016 C 
ATOM     23  C   UNL     1      -8.372  -9.939  15.537  0.00  0.00    +0.015 A 
ATOM     26  C   UNL     1     -10.558  -9.049  15.122  0.00  0.00    +0.165 A 
ATOM     28  C   UNL     1     -12.894  -8.220  15.021  0.00  0.00    +0.250 C 
ATOM     42  H   UNL     1     -11.383  -8.100  13.564  0.00  0.00    +0.157 HD
ENDROOT
BRANCH  28  30
ATOM     30  C   UNL     1     -13.840  -7.509  14.123  0.00  0.00    +0.037 A 
ATOM     31  C   UNL     1     -15.127  -7.278  14.562  0.00  0.00    +0.016 A 
ATOM     32  C   UNL     1     -13.400  -7.102  12.881  0.00  0.00    +0.016 A 
ATOM     35  C   UNL     1     -16.014  -6.609  13.718  0.00  0.00    +0.046 A 
ATOM     36  C   UNL     1     -14.288  -6.435  12.038  0.00  0.00    +0.046 A 
ATOM     37  C   UNL     1     -15.596  -6.188  12.457  0.00  0.00    +0.120 A 
BRANCH  37   6
ATOM      6  O   UNL     1     -16.461  -5.535  11.634  0.00  0.00    -0.495 OA
ATOM     38  C   UNL     1     -15.907  -4.904  10.480  0.00  0.00    +0.277 C 
ENDBRANCH  37   6
ENDBRANCH  28  30
BRANCH  16   2
ATOM      2  O   UNL     1      -3.340 -12.002  18.716  0.00  0.00    -0.391 OA
ATOM     39  H   UNL     1      -3.286 -12.473  19.564  0.00  0.00    +0.210 HD
ENDBRANCH  16   2
BRANCH  13  21
ATOM     21  C   UNL     1      -4.628 -12.373  16.214  0.00  0.00    +0.165 C 
BRANCH  21   3
ATOM      3  O   UNL     1      -3.280 -12.230  15.825  0.00  0.00    -0.394 OA
ATOM     40  H   UNL     1      -3.257 -12.087  14.864  0.00  0.00    +0.209 HD
ENDBRANCH  21   3
ENDBRANCH  13  21
BRANCH  14  24
ATOM     24  C   UNL     1     -10.107 -11.435  18.515  0.00  0.00    +0.106 C 
BRANCH  24  25
ATOM      4  O   UNL     1     -10.006 -10.266  20.632  0.00  0.00    -0.276 OA
ATOM      8  N   UNL     1     -12.062 -10.589  19.598  0.00  0.00    -0.314 N 
ATOM     25  C   UNL     1     -10.684 -10.699  19.704  0.00  0.00    +0.214 C 
ATOM     41  H   UNL     1     -12.534 -10.929  18.765  0.00  0.00    +0.149 HD
BRANCH   8  27
ATOM     27  C   UNL     1     -12.881  -9.935  20.592  0.00  0.00    +0.119 C 
BRANCH  27  29
ATOM     29  C   UNL     1     -13.865 -10.909  21.224  0.00  0.00    +0.102 C 
BRANCH  29  10
ATOM     10  N   UNL     1     -15.232 -10.443  21.035  0.00  0.00    -0.307 NA
ATOM     33  C   UNL     1     -16.063 -10.794  22.188  0.00  0.00    +0.104 C 
ATOM     34  C   UNL     1     -15.258  -8.995  20.814  0.00  0.00    +0.104 C 
ENDBRANCH  29  10
ENDBRANCH  27  29
ENDBRANCH   8  27
ENDBRANCH  24  25
ENDBRANCH  14  24
TORSDOF 10
ENDMDL
