MODEL 1
REMARK VINA RESULT:      -6.8      0.000      0.000
REMARK  Name = 25390424
REMARK  8 active torsions:
REMARK  status: ('A' for Active; 'I' for Inactive)
REMARK    1  A    between atoms: O_2  and  C_11
REMARK    2  A    between atoms: O_3  and  C_12
REMARK    3  A    between atoms: N_6  and  C_8
REMARK    4  A    between atoms: N_7  and  C_17
REMARK    5  A    between atoms: C_9  and  C_16
REMARK    6  A    between atoms: C_10  and  C_17
REMARK    7  A    between atoms: C_15  and  C_23
REMARK    8  A    between atoms: C_16  and  C_22
REMARK                            x       y       z     vdW  Elec       q    Type
REMARK                         _______ _______ _______ _____ _____    ______ ____
ROOT
ATOM      1  O   UNL     1      10.666   9.359  20.572  0.00  0.00    -0.366 OA
ATOM      9  C   UNL     1      11.124   8.144  19.954  0.00  0.00    +0.158 C 
ATOM     10  C   UNL     1      10.506   9.134  21.990  0.00  0.00    +0.167 C 
ATOM     11  C   UNL     1      11.672   7.291  21.085  0.00  0.00    +0.175 C 
ATOM     12  C   UNL     1      10.730   7.643  22.217  0.00  0.00    +0.176 C 
ENDROOT
BRANCH  11   2
ATOM      2  O   UNL     1      11.670   5.917  20.761  0.00  0.00    -0.387 OA
ATOM     26  H   UNL     1      12.243   5.465  21.404  0.00  0.00    +0.210 HD
ENDBRANCH  11   2
BRANCH  12   3
ATOM      3  O   UNL     1       9.479   6.976  22.044  0.00  0.00    -0.387 OA
ATOM     27  H   UNL     1       9.121   7.249  21.182  0.00  0.00    +0.210 HD
ENDBRANCH  12   3
BRANCH   9  16
ATOM     16  C   UNL     1      12.156   8.468  18.889  0.00  0.00    +0.130 C 
BRANCH  16  22
ATOM      4  O   UNL     1      13.913   9.559  20.148  0.00  0.00    -0.276 OA
ATOM      6  N   UNL     1      14.361   7.535  19.104  0.00  0.00    -0.312 N 
ATOM     22  C   UNL     1      13.555   8.607  19.459  0.00  0.00    +0.216 C 
ATOM     24  H   UNL     1      13.992   6.798  18.511  0.00  0.00    +0.149 HD
BRANCH   6   8
ATOM      8  C   UNL     1      15.731   7.429  19.518  0.00  0.00    +0.073 C 
ATOM     13  C   UNL     1      16.132   6.527  20.648  0.00  0.00    +0.024 C 
ATOM     14  C   UNL     1      16.534   6.192  19.242  0.00  0.00    +0.024 C 
ENDBRANCH   6   8
ENDBRANCH  16  22
ENDBRANCH   9  16
BRANCH  10  17
ATOM     17  C   UNL     1      11.520  10.006  22.719  0.00  0.00    +0.138 C 
BRANCH  17   7
ATOM      5  O   UNL     1      11.213  11.098  25.391  0.00  0.00    -0.276 OA
ATOM      7  N   UNL     1      10.951  11.269  23.082  0.00  0.00    -0.313 N 
ATOM     23  C   UNL     1      10.842  11.715  24.396  0.00  0.00    +0.216 C 
ATOM     25  H   UNL     1      10.632  11.872  22.330  0.00  0.00    +0.149 HD
BRANCH  23  15
ATOM     15  C   UNL     1      10.232  13.080  24.493  0.00  0.00    +0.075 C 
ATOM     18  C   UNL     1      10.654  13.938  23.296  0.00  0.00    +0.013 C 
ATOM     19  C   UNL     1      10.737  13.808  25.741  0.00  0.00    +0.013 C 
ATOM     20  C   UNL     1      11.300  15.187  23.885  0.00  0.00    +0.001 C 
ATOM     21  C   UNL     1      11.836  14.729  25.229  0.00  0.00    +0.001 C 
ENDBRANCH  23  15
ENDBRANCH  17   7
ENDBRANCH  10  17
TORSDOF 8
ENDMDL
MODEL 2
REMARK VINA RESULT:      -6.8      2.134      7.409
REMARK  Name = 25390424
REMARK  8 active torsions:
REMARK  status: ('A' for Active; 'I' for Inactive)
REMARK    1  A    between atoms: O_2  and  C_11
REMARK    2  A    between atoms: O_3  and  C_12
REMARK    3  A    between atoms: N_6  and  C_8
REMARK    4  A    between atoms: N_7  and  C_17
REMARK    5  A    between atoms: C_9  and  C_16
REMARK    6  A    between atoms: C_10  and  C_17
REMARK    7  A    between atoms: C_15  and  C_23
REMARK    8  A    between atoms: C_16  and  C_22
REMARK                            x       y       z     vdW  Elec       q    Type
REMARK                         _______ _______ _______ _____ _____    ______ ____
ROOT
ATOM      1  O   UNL     1      13.596   6.594  19.750  0.00  0.00    -0.366 OA
ATOM      9  C   UNL     1      12.328   7.054  20.250  0.00  0.00    +0.158 C 
ATOM     10  C   UNL     1      13.835   7.191  18.456  0.00  0.00    +0.167 C 
ATOM     11  C   UNL     1      11.995   8.296  19.441  0.00  0.00    +0.175 C 
ATOM     12  C   UNL     1      12.557   7.933  18.082  0.00  0.00    +0.176 C 
ENDROOT
BRANCH  11   2
ATOM      2  O   UNL     1      10.608   8.558  19.420  0.00  0.00    -0.387 OA
ATOM     26  H   UNL     1      10.413   9.153  20.165  0.00  0.00    +0.210 HD
ENDBRANCH  11   2
BRANCH  12   3
ATOM      3  O   UNL     1      11.690   7.015  17.416  0.00  0.00    -0.387 OA
ATOM     27  H   UNL     1      11.017   6.734  18.058  0.00  0.00    +0.210 HD
ENDBRANCH  12   3
BRANCH   9  16
ATOM     16  C   UNL     1      12.431   7.317  21.742  0.00  0.00    +0.130 C 
BRANCH  16  22
ATOM      4  O   UNL     1      10.107   7.783  22.236  0.00  0.00    -0.276 OA
ATOM      6  N   UNL     1      11.716   9.368  22.773  0.00  0.00    -0.312 N 
ATOM     22  C   UNL     1      11.278   8.153  22.265  0.00  0.00    +0.216 C 
ATOM     24  H   UNL     1      12.703   9.605  22.738  0.00  0.00    +0.149 HD
BRANCH   6   8
ATOM      8  C   UNL     1      10.819  10.340  23.328  0.00  0.00    +0.073 C 
ATOM     13  C   UNL     1      11.225  11.196  24.492  0.00  0.00    +0.024 C 
ATOM     14  C   UNL     1      11.048  11.811  23.134  0.00  0.00    +0.024 C 
ENDBRANCH   6   8
ENDBRANCH  16  22
ENDBRANCH   9  16
BRANCH  10  17
ATOM     17  C   UNL     1      15.043   8.110  18.583  0.00  0.00    +0.138 C 
BRANCH  17   7
ATOM      5  O   UNL     1      16.775   5.781  18.657  0.00  0.00    -0.276 OA
ATOM      7  N   UNL     1      15.899   7.696  19.655  0.00  0.00    -0.313 N 
ATOM     23  C   UNL     1      16.700   6.558  19.605  0.00  0.00    +0.216 C 
ATOM     25  H   UNL     1      15.930   8.284  20.482  0.00  0.00    +0.149 HD
BRANCH  23  15
ATOM     15  C   UNL     1      17.513   6.371  20.849  0.00  0.00    +0.075 C 
ATOM     18  C   UNL     1      17.782   7.723  21.518  0.00  0.00    +0.013 C 
ATOM     19  C   UNL     1      18.884   5.780  20.512  0.00  0.00    +0.013 C 
ATOM     20  C   UNL     1      19.298   7.833  21.642  0.00  0.00    +0.001 C 
ATOM     21  C   UNL     1      19.826   6.976  20.506  0.00  0.00    +0.001 C 
ENDBRANCH  23  15
ENDBRANCH  17   7
ENDBRANCH  10  17
TORSDOF 8
ENDMDL
MODEL 3
REMARK VINA RESULT:      -6.7      2.038      2.598
REMARK  Name = 25390424
REMARK  8 active torsions:
REMARK  status: ('A' for Active; 'I' for Inactive)
REMARK    1  A    between atoms: O_2  and  C_11
REMARK    2  A    between atoms: O_3  and  C_12
REMARK    3  A    between atoms: N_6  and  C_8
REMARK    4  A    between atoms: N_7  and  C_17
REMARK    5  A    between atoms: C_9  and  C_16
REMARK    6  A    between atoms: C_10  and  C_17
REMARK    7  A    between atoms: C_15  and  C_23
REMARK    8  A    between atoms: C_16  and  C_22
REMARK                            x       y       z     vdW  Elec       q    Type
REMARK                         _______ _______ _______ _____ _____    ______ ____
ROOT
ATOM      1  O   UNL     1      11.304   8.886  20.309  0.00  0.00    -0.366 OA
ATOM      9  C   UNL     1      11.671   7.507  20.131  0.00  0.00    +0.158 C 
ATOM     10  C   UNL     1      10.883   9.088  21.677  0.00  0.00    +0.167 C 
ATOM     11  C   UNL     1      11.893   6.958  21.531  0.00  0.00    +0.175 C 
ATOM     12  C   UNL     1      10.841   7.707  22.322  0.00  0.00    +0.176 C 
ENDROOT
BRANCH  11   2
ATOM      2  O   UNL     1      11.738   5.556  21.580  0.00  0.00    -0.387 OA
ATOM     26  H   UNL     1      10.842   5.373  21.911  0.00  0.00    +0.210 HD
ENDBRANCH  11   2
BRANCH  12   3
ATOM      3  O   UNL     1       9.550   7.146  22.084  0.00  0.00    -0.387 OA
ATOM     27  H   UNL     1       9.661   6.183  22.010  0.00  0.00    +0.210 HD
ENDBRANCH  12   3
BRANCH   9  16
ATOM     16  C   UNL     1      12.900   7.414  19.246  0.00  0.00    +0.130 C 
BRANCH  16  22
ATOM      4  O   UNL     1      11.682   7.404  17.153  0.00  0.00    -0.276 OA
ATOM      6  N   UNL     1      13.549   8.767  17.368  0.00  0.00    -0.312 N 
ATOM     22  C   UNL     1      12.620   7.838  17.816  0.00  0.00    +0.216 C 
ATOM     24  H   UNL     1      14.310   9.057  17.975  0.00  0.00    +0.149 HD
BRANCH   6   8
ATOM      8  C   UNL     1      13.504   9.326  16.047  0.00  0.00    +0.073 C 
ATOM     13  C   UNL     1      13.727  10.792  15.817  0.00  0.00    +0.024 C 
ATOM     14  C   UNL     1      14.753   9.796  15.358  0.00  0.00    +0.024 C 
ENDBRANCH   6   8
ENDBRANCH  16  22
ENDBRANCH   9  16
BRANCH  10  17
ATOM     17  C   UNL     1      11.883  10.025  22.341  0.00  0.00    +0.138 C 
BRANCH  17   7
ATOM      5  O   UNL     1      11.074  12.781  21.916  0.00  0.00    -0.276 OA
ATOM      7  N   UNL     1      11.235  10.896  23.276  0.00  0.00    -0.313 N 
ATOM     23  C   UNL     1      10.881  12.210  22.987  0.00  0.00    +0.216 C 
ATOM     25  H   UNL     1      11.007  10.514  24.189  0.00  0.00    +0.149 HD
BRANCH  23  15
ATOM     15  C   UNL     1      10.194  12.888  24.133  0.00  0.00    +0.075 C 
ATOM     18  C   UNL     1      10.244  14.409  23.958  0.00  0.00    +0.013 C 
ATOM     19  C   UNL     1      10.915  12.584  25.448  0.00  0.00    +0.013 C 
ATOM     20  C   UNL     1      10.899  14.953  25.223  0.00  0.00    +0.001 C 
ATOM     21  C   UNL     1      11.776  13.812  25.706  0.00  0.00    +0.001 C 
ENDBRANCH  23  15
ENDBRANCH  17   7
ENDBRANCH  10  17
TORSDOF 8
ENDMDL
MODEL 4
REMARK VINA RESULT:      -6.6     13.964     16.109
REMARK  Name = 25390424
REMARK  8 active torsions:
REMARK  status: ('A' for Active; 'I' for Inactive)
REMARK    1  A    between atoms: O_2  and  C_11
REMARK    2  A    between atoms: O_3  and  C_12
REMARK    3  A    between atoms: N_6  and  C_8
REMARK    4  A    between atoms: N_7  and  C_17
REMARK    5  A    between atoms: C_9  and  C_16
REMARK    6  A    between atoms: C_10  and  C_17
REMARK    7  A    between atoms: C_15  and  C_23
REMARK    8  A    between atoms: C_16  and  C_22
REMARK                            x       y       z     vdW  Elec       q    Type
REMARK                         _______ _______ _______ _____ _____    ______ ____
ROOT
ATOM      1  O   UNL     1      -0.942  -1.053  23.850  0.00  0.00    -0.366 OA
ATOM      9  C   UNL     1      -0.042  -0.022  24.293  0.00  0.00    +0.158 C 
ATOM     10  C   UNL     1      -2.034  -1.159  24.792  0.00  0.00    +0.167 C 
ATOM     11  C   UNL     1      -0.831   0.811  25.288  0.00  0.00    +0.175 C 
ATOM     12  C   UNL     1      -1.686  -0.243  25.960  0.00  0.00    +0.176 C 
ENDROOT
BRANCH  11   2
ATOM      2  O   UNL     1       0.011   1.504  26.185  0.00  0.00    -0.387 OA
ATOM     26  H   UNL     1       0.628   0.854  26.566  0.00  0.00    +0.210 HD
ENDBRANCH  11   2
BRANCH  12   3
ATOM      3  O   UNL     1      -0.906  -0.992  26.892  0.00  0.00    -0.387 OA
ATOM     27  H   UNL     1      -1.012  -1.932  26.670  0.00  0.00    +0.210 HD
ENDBRANCH  12   3
BRANCH   9  16
ATOM     16  C   UNL     1       0.453   0.773  23.099  0.00  0.00    +0.130 C 
BRANCH  16  22
ATOM      4  O   UNL     1       1.770  -0.495  21.512  0.00  0.00    -0.276 OA
ATOM      6  N   UNL     1       2.845   0.593  23.259  0.00  0.00    -0.312 N 
ATOM     22  C   UNL     1       1.736   0.210  22.517  0.00  0.00    +0.216 C 
ATOM     24  H   UNL     1       2.726   1.161  24.092  0.00  0.00    +0.149 HD
BRANCH   6   8
ATOM      8  C   UNL     1       4.178   0.189  22.915  0.00  0.00    +0.073 C 
ATOM     13  C   UNL     1       5.357   0.632  23.731  0.00  0.00    +0.024 C 
ATOM     14  C   UNL     1       4.930  -0.806  23.751  0.00  0.00    +0.024 C 
ENDBRANCH   6   8
ENDBRANCH  16  22
ENDBRANCH   9  16
BRANCH  10  17
ATOM     17  C   UNL     1      -3.312  -0.747  24.072  0.00  0.00    +0.138 C 
BRANCH  17   7
ATOM      5  O   UNL     1      -5.283   0.937  25.379  0.00  0.00    -0.276 OA
ATOM      7  N   UNL     1      -3.426   0.679  23.995  0.00  0.00    -0.313 N 
ATOM     23  C   UNL     1      -4.408   1.410  24.658  0.00  0.00    +0.216 C 
ATOM     25  H   UNL     1      -2.734   1.174  23.441  0.00  0.00    +0.149 HD
BRANCH  23  15
ATOM     15  C   UNL     1      -4.285   2.885  24.427  0.00  0.00    +0.075 C 
ATOM     18  C   UNL     1      -2.877   3.229  23.930  0.00  0.00    +0.013 C 
ATOM     19  C   UNL     1      -4.476   3.653  25.737  0.00  0.00    +0.013 C 
ATOM     20  C   UNL     1      -2.331   4.264  24.908  0.00  0.00    +0.001 C 
ATOM     21  C   UNL     1      -3.064   3.971  26.205  0.00  0.00    +0.001 C 
ENDBRANCH  23  15
ENDBRANCH  17   7
ENDBRANCH  10  17
TORSDOF 8
ENDMDL
MODEL 5
REMARK VINA RESULT:      -6.4      3.762      6.206
REMARK  Name = 25390424
REMARK  8 active torsions:
REMARK  status: ('A' for Active; 'I' for Inactive)
REMARK    1  A    between atoms: O_2  and  C_11
REMARK    2  A    between atoms: O_3  and  C_12
REMARK    3  A    between atoms: N_6  and  C_8
REMARK    4  A    between atoms: N_7  and  C_17
REMARK    5  A    between atoms: C_9  and  C_16
REMARK    6  A    between atoms: C_10  and  C_17
REMARK    7  A    between atoms: C_15  and  C_23
REMARK    8  A    between atoms: C_16  and  C_22
REMARK                            x       y       z     vdW  Elec       q    Type
REMARK                         _______ _______ _______ _____ _____    ______ ____
ROOT
ATOM      1  O   UNL     1      12.597   9.374  18.871  0.00  0.00    -0.366 OA
ATOM      9  C   UNL     1      12.449   8.019  18.411  0.00  0.00    +0.158 C 
ATOM     10  C   UNL     1      12.396   9.408  20.302  0.00  0.00    +0.167 C 
ATOM     11  C   UNL     1      12.594   7.148  19.647  0.00  0.00    +0.175 C 
ATOM     12  C   UNL     1      11.940   8.011  20.706  0.00  0.00    +0.176 C 
ENDROOT
BRANCH  11   2
ATOM      2  O   UNL     1      11.971   5.892  19.486  0.00  0.00    -0.387 OA
ATOM     26  H   UNL     1      11.037   5.995  19.738  0.00  0.00    +0.210 HD
ENDBRANCH  11   2
BRANCH  12   3
ATOM      3  O   UNL     1      10.519   7.956  20.582  0.00  0.00    -0.387 OA
ATOM     27  H   UNL     1      10.146   8.563  21.244  0.00  0.00    +0.210 HD
ENDBRANCH  12   3
BRANCH   9  16
ATOM     16  C   UNL     1      13.485   7.725  17.341  0.00  0.00    +0.130 C 
BRANCH  16  22
ATOM      4  O   UNL     1      12.882   8.749  15.233  0.00  0.00    -0.276 OA
ATOM      6  N   UNL     1      14.405   9.824  16.616  0.00  0.00    -0.312 N 
ATOM     22  C   UNL     1      13.536   8.799  16.271  0.00  0.00    +0.216 C 
ATOM     24  H   UNL     1      14.926   9.776  17.486  0.00  0.00    +0.149 HD
BRANCH   6   8
ATOM      8  C   UNL     1      14.631  10.960  15.769  0.00  0.00    +0.073 C 
ATOM     13  C   UNL     1      15.819  11.855  15.973  0.00  0.00    +0.024 C 
ATOM     14  C   UNL     1      15.745  10.971  14.762  0.00  0.00    +0.024 C 
ENDBRANCH   6   8
ENDBRANCH  16  22
ENDBRANCH   9  16
BRANCH  10  17
ATOM     17  C   UNL     1      13.714   9.815  20.949  0.00  0.00    +0.138 C 
BRANCH  17   7
ATOM      5  O   UNL     1      16.584   9.837  21.389  0.00  0.00    -0.276 OA
ATOM      7  N   UNL     1      14.576   8.684  21.123  0.00  0.00    -0.313 N 
ATOM     23  C   UNL     1      15.949   8.787  21.330  0.00  0.00    +0.216 C 
ATOM     25  H   UNL     1      14.148   7.764  21.115  0.00  0.00    +0.149 HD
BRANCH  23  15
ATOM     15  C   UNL     1      16.608   7.453  21.507  0.00  0.00    +0.075 C 
ATOM     18  C   UNL     1      18.053   7.502  21.001  0.00  0.00    +0.013 C 
ATOM     19  C   UNL     1      15.897   6.387  20.671  0.00  0.00    +0.013 C 
ATOM     20  C   UNL     1      18.167   6.395  19.959  0.00  0.00    +0.001 C 
ATOM     21  C   UNL     1      16.754   6.243  19.422  0.00  0.00    +0.001 C 
ENDBRANCH  23  15
ENDBRANCH  17   7
ENDBRANCH  10  17
TORSDOF 8
ENDMDL
MODEL 6
REMARK VINA RESULT:      -6.3      2.404      6.374
REMARK  Name = 25390424
REMARK  8 active torsions:
REMARK  status: ('A' for Active; 'I' for Inactive)
REMARK    1  A    between atoms: O_2  and  C_11
REMARK    2  A    between atoms: O_3  and  C_12
REMARK    3  A    between atoms: N_6  and  C_8
REMARK    4  A    between atoms: N_7  and  C_17
REMARK    5  A    between atoms: C_9  and  C_16
REMARK    6  A    between atoms: C_10  and  C_17
REMARK    7  A    between atoms: C_15  and  C_23
REMARK    8  A    between atoms: C_16  and  C_22
REMARK                            x       y       z     vdW  Elec       q    Type
REMARK                         _______ _______ _______ _____ _____    ______ ____
ROOT
ATOM      1  O   UNL     1      12.668  10.231  21.305  0.00  0.00    -0.366 OA
ATOM      9  C   UNL     1      11.314  10.147  21.781  0.00  0.00    +0.158 C 
ATOM     10  C   UNL     1      13.416  11.114  22.171  0.00  0.00    +0.167 C 
ATOM     11  C   UNL     1      11.352  10.642  23.217  0.00  0.00    +0.175 C 
ATOM     12  C   UNL     1      12.408  11.725  23.137  0.00  0.00    +0.176 C 
ENDROOT
BRANCH  11   2
ATOM      2  O   UNL     1      10.094  11.117  23.647  0.00  0.00    -0.387 OA
ATOM     26  H   UNL     1       9.416  10.680  23.103  0.00  0.00    +0.210 HD
ENDBRANCH  11   2
BRANCH  12   3
ATOM      3  O   UNL     1      11.868  12.899  22.530  0.00  0.00    -0.387 OA
ATOM     27  H   UNL     1      11.425  12.624  21.710  0.00  0.00    +0.210 HD
ENDBRANCH  12   3
BRANCH   9  16
ATOM     16  C   UNL     1      10.812   8.720  21.649  0.00  0.00    +0.130 C 
BRANCH  16  22
ATOM      4  O   UNL     1      12.090   7.009  20.510  0.00  0.00    -0.276 OA
ATOM      6  N   UNL     1      11.015   8.639  19.255  0.00  0.00    -0.312 N 
ATOM     22  C   UNL     1      11.386   8.012  20.437  0.00  0.00    +0.216 C 
ATOM     24  H   UNL     1      10.447   9.480  19.284  0.00  0.00    +0.149 HD
BRANCH   6   8
ATOM      8  C   UNL     1      11.430   8.163  17.967  0.00  0.00    +0.073 C 
ATOM     13  C   UNL     1      10.698   8.562  16.719  0.00  0.00    +0.024 C 
ATOM     14  C   UNL     1      12.084   9.079  16.973  0.00  0.00    +0.024 C 
ENDBRANCH   6   8
ENDBRANCH  16  22
ENDBRANCH   9  16
BRANCH  10  17
ATOM     17  C   UNL     1      14.485  10.285  22.872  0.00  0.00    +0.138 C 
BRANCH  17   7
ATOM      5  O   UNL     1      15.026   7.559  22.032  0.00  0.00    -0.276 OA
ATOM      7  N   UNL     1      15.486   9.842  21.947  0.00  0.00    -0.313 N 
ATOM     23  C   UNL     1      15.676   8.507  21.600  0.00  0.00    +0.216 C 
ATOM     25  H   UNL     1      16.066  10.552  21.510  0.00  0.00    +0.149 HD
BRANCH  23  15
ATOM     15  C   UNL     1      16.771   8.323  20.594  0.00  0.00    +0.075 C 
ATOM     18  C   UNL     1      16.672   6.939  19.946  0.00  0.00    +0.013 C 
ATOM     19  C   UNL     1      18.141   8.382  21.272  0.00  0.00    +0.013 C 
ATOM     20  C   UNL     1      18.023   6.272  20.179  0.00  0.00    +0.001 C 
ATOM     21  C   UNL     1      18.546   6.925  21.446  0.00  0.00    +0.001 C 
ENDBRANCH  23  15
ENDBRANCH  17   7
ENDBRANCH  10  17
TORSDOF 8
ENDMDL
MODEL 7
REMARK VINA RESULT:      -6.3      4.683      7.151
REMARK  Name = 25390424
REMARK  8 active torsions:
REMARK  status: ('A' for Active; 'I' for Inactive)
REMARK    1  A    between atoms: O_2  and  C_11
REMARK    2  A    between atoms: O_3  and  C_12
REMARK    3  A    between atoms: N_6  and  C_8
REMARK    4  A    between atoms: N_7  and  C_17
REMARK    5  A    between atoms: C_9  and  C_16
REMARK    6  A    between atoms: C_10  and  C_17
REMARK    7  A    between atoms: C_15  and  C_23
REMARK    8  A    between atoms: C_16  and  C_22
REMARK                            x       y       z     vdW  Elec       q    Type
REMARK                         _______ _______ _______ _____ _____    ______ ____
ROOT
ATOM      1  O   UNL     1      13.289   9.118  19.702  0.00  0.00    -0.366 OA
ATOM      9  C   UNL     1      12.274   8.183  19.298  0.00  0.00    +0.158 C 
ATOM     10  C   UNL     1      14.270   8.428  20.510  0.00  0.00    +0.167 C 
ATOM     11  C   UNL     1      12.883   6.805  19.500  0.00  0.00    +0.175 C 
ATOM     12  C   UNL     1      13.725   7.023  20.740  0.00  0.00    +0.176 C 
ENDROOT
BRANCH  11   2
ATOM      2  O   UNL     1      11.896   5.809  19.661  0.00  0.00    -0.387 OA
ATOM     26  H   UNL     1      11.140   6.054  19.100  0.00  0.00    +0.210 HD
ENDBRANCH  11   2
BRANCH  12   3
ATOM      3  O   UNL     1      12.897   7.053  21.902  0.00  0.00    -0.387 OA
ATOM     27  H   UNL     1      13.478   7.187  22.669  0.00  0.00    +0.210 HD
ENDBRANCH  12   3
BRANCH   9  16
ATOM     16  C   UNL     1      11.867   8.457  17.862  0.00  0.00    +0.130 C 
BRANCH  16  22
ATOM      4  O   UNL     1      13.685   8.020  16.323  0.00  0.00    -0.276 OA
ATOM      6  N   UNL     1      13.303  10.198  17.032  0.00  0.00    -0.312 N 
ATOM     22  C   UNL     1      13.047   8.834  16.986  0.00  0.00    +0.216 C 
ATOM     24  H   UNL     1      12.739  10.800  17.624  0.00  0.00    +0.149 HD
BRANCH   6   8
ATOM      8  C   UNL     1      14.369  10.807  16.290  0.00  0.00    +0.073 C 
ATOM     13  C   UNL     1      14.253  12.213  15.779  0.00  0.00    +0.024 C 
ATOM     14  C   UNL     1      15.211  11.895  16.889  0.00  0.00    +0.024 C 
ENDBRANCH   6   8
ENDBRANCH  16  22
ENDBRANCH   9  16
BRANCH  10  17
ATOM     17  C   UNL     1      15.591   8.439  19.752  0.00  0.00    +0.138 C 
BRANCH  17   7
ATOM      5  O   UNL     1      18.055   9.025  21.171  0.00  0.00    -0.276 OA
ATOM      7  N   UNL     1      16.517   7.500  20.311  0.00  0.00    -0.313 N 
ATOM     23  C   UNL     1      17.680   7.871  20.979  0.00  0.00    +0.216 C 
ATOM     25  H   UNL     1      16.289   6.513  20.229  0.00  0.00    +0.149 HD
BRANCH  23  15
ATOM     15  C   UNL     1      18.455   6.693  21.486  0.00  0.00    +0.075 C 
ATOM     18  C   UNL     1      19.490   7.142  22.522  0.00  0.00    +0.013 C 
ATOM     19  C   UNL     1      19.243   6.037  20.350  0.00  0.00    +0.013 C 
ATOM     20  C   UNL     1      20.837   6.646  22.008  0.00  0.00    +0.001 C 
ATOM     21  C   UNL     1      20.657   6.577  20.502  0.00  0.00    +0.001 C 
ENDBRANCH  23  15
ENDBRANCH  17   7
ENDBRANCH  10  17
TORSDOF 8
ENDMDL
MODEL 8
REMARK VINA RESULT:      -6.3     15.097     18.232
REMARK  Name = 25390424
REMARK  8 active torsions:
REMARK  status: ('A' for Active; 'I' for Inactive)
REMARK    1  A    between atoms: O_2  and  C_11
REMARK    2  A    between atoms: O_3  and  C_12
REMARK    3  A    between atoms: N_6  and  C_8
REMARK    4  A    between atoms: N_7  and  C_17
REMARK    5  A    between atoms: C_9  and  C_16
REMARK    6  A    between atoms: C_10  and  C_17
REMARK    7  A    between atoms: C_15  and  C_23
REMARK    8  A    between atoms: C_16  and  C_22
REMARK                            x       y       z     vdW  Elec       q    Type
REMARK                         _______ _______ _______ _____ _____    ______ ____
ROOT
ATOM      1  O   UNL     1      -0.153   3.223  23.990  0.00  0.00    -0.366 OA
ATOM      9  C   UNL     1      -0.921   3.803  25.059  0.00  0.00    +0.158 C 
ATOM     10  C   UNL     1       0.352   1.938  24.418  0.00  0.00    +0.167 C 
ATOM     11  C   UNL     1      -1.254   2.653  25.995  0.00  0.00    +0.175 C 
ATOM     12  C   UNL     1      -0.002   1.807  25.895  0.00  0.00    +0.176 C 
ENDROOT
BRANCH  11   2
ATOM      2  O   UNL     1      -1.525   3.099  27.307  0.00  0.00    -0.387 OA
ATOM     26  H   UNL     1      -1.181   2.427  27.920  0.00  0.00    +0.210 HD
ENDBRANCH  11   2
BRANCH  12   3
ATOM      3  O   UNL     1       1.054   2.392  26.657  0.00  0.00    -0.387 OA
ATOM     27  H   UNL     1       0.966   2.070  27.570  0.00  0.00    +0.210 HD
ENDBRANCH  12   3
BRANCH   9  16
ATOM     16  C   UNL     1      -2.148   4.493  24.492  0.00  0.00    +0.130 C 
BRANCH  16  22
ATOM      4  O   UNL     1      -3.514   4.723  26.477  0.00  0.00    -0.276 OA
ATOM      6  N   UNL     1      -4.332   3.504  24.678  0.00  0.00    -0.312 N 
ATOM     22  C   UNL     1      -3.385   4.271  25.343  0.00  0.00    +0.216 C 
ATOM     24  H   UNL     1      -4.135   3.151  23.747  0.00  0.00    +0.149 HD
BRANCH   6   8
ATOM      8  C   UNL     1      -5.591   3.153  25.269  0.00  0.00    +0.073 C 
ATOM     13  C   UNL     1      -6.343   1.933  24.824  0.00  0.00    +0.024 C 
ATOM     14  C   UNL     1      -5.717   1.972  26.188  0.00  0.00    +0.024 C 
ENDBRANCH   6   8
ENDBRANCH  16  22
ENDBRANCH   9  16
BRANCH  10  17
ATOM     17  C   UNL     1      -0.301   0.868  23.552  0.00  0.00    +0.138 C 
BRANCH  17   7
ATOM      5  O   UNL     1      -3.147   1.242  23.113  0.00  0.00    -0.276 OA
ATOM      7  N   UNL     1      -1.380   0.228  24.244  0.00  0.00    -0.313 N 
ATOM     23  C   UNL     1      -2.723   0.468  23.967  0.00  0.00    +0.216 C 
ATOM     25  H   UNL     1      -1.138  -0.452  24.959  0.00  0.00    +0.149 HD
BRANCH  23  15
ATOM     15  C   UNL     1      -3.643  -0.351  24.820  0.00  0.00    +0.075 C 
ATOM     18  C   UNL     1      -2.839  -1.177  25.829  0.00  0.00    +0.013 C 
ATOM     19  C   UNL     1      -4.418  -1.355  23.965  0.00  0.00    +0.013 C 
ATOM     20  C   UNL     1      -3.247  -2.628  25.599  0.00  0.00    +0.001 C 
ATOM     21  C   UNL     1      -3.668  -2.668  24.141  0.00  0.00    +0.001 C 
ENDBRANCH  23  15
ENDBRANCH  17   7
ENDBRANCH  10  17
TORSDOF 8
ENDMDL
MODEL 9
REMARK VINA RESULT:      -6.2      2.116      3.842
REMARK  Name = 25390424
REMARK  8 active torsions:
REMARK  status: ('A' for Active; 'I' for Inactive)
REMARK    1  A    between atoms: O_2  and  C_11
REMARK    2  A    between atoms: O_3  and  C_12
REMARK    3  A    between atoms: N_6  and  C_8
REMARK    4  A    between atoms: N_7  and  C_17
REMARK    5  A    between atoms: C_9  and  C_16
REMARK    6  A    between atoms: C_10  and  C_17
REMARK    7  A    between atoms: C_15  and  C_23
REMARK    8  A    between atoms: C_16  and  C_22
REMARK                            x       y       z     vdW  Elec       q    Type
REMARK                         _______ _______ _______ _____ _____    ______ ____
ROOT
ATOM      1  O   UNL     1      13.382   6.930  20.119  0.00  0.00    -0.366 OA
ATOM      9  C   UNL     1      14.777   7.033  19.783  0.00  0.00    +0.158 C 
ATOM     10  C   UNL     1      13.149   7.610  21.372  0.00  0.00    +0.167 C 
ATOM     11  C   UNL     1      15.318   8.173  20.629  0.00  0.00    +0.175 C 
ATOM     12  C   UNL     1      14.520   8.011  21.905  0.00  0.00    +0.176 C 
ENDROOT
BRANCH  11   2
ATOM      2  O   UNL     1      16.713   8.071  20.824  0.00  0.00    -0.387 OA
ATOM     26  H   UNL     1      17.036   8.953  21.080  0.00  0.00    +0.210 HD
ENDBRANCH  11   2
BRANCH  12   3
ATOM      3  O   UNL     1      15.032   6.924  22.675  0.00  0.00    -0.387 OA
ATOM     27  H   UNL     1      15.990   7.058  22.766  0.00  0.00    +0.210 HD
ENDBRANCH  12   3
BRANCH   9  16
ATOM     16  C   UNL     1      14.929   7.265  18.290  0.00  0.00    +0.130 C 
BRANCH  16  22
ATOM      4  O   UNL     1      14.600   9.580  17.663  0.00  0.00    -0.276 OA
ATOM      6  N   UNL     1      12.807   8.110  17.540  0.00  0.00    -0.312 N 
ATOM     22  C   UNL     1      14.125   8.456  17.803  0.00  0.00    +0.216 C 
ATOM     24  H   UNL     1      12.490   7.159  17.703  0.00  0.00    +0.149 HD
BRANCH   6   8
ATOM      8  C   UNL     1      11.841   9.059  17.066  0.00  0.00    +0.073 C 
ATOM     13  C   UNL     1      11.583   9.238  15.599  0.00  0.00    +0.024 C 
ATOM     14  C   UNL     1      10.537   8.612  16.473  0.00  0.00    +0.024 C 
ENDBRANCH   6   8
ENDBRANCH  16  22
ENDBRANCH   9  16
BRANCH  10  17
ATOM     17  C   UNL     1      12.245   8.804  21.094  0.00  0.00    +0.138 C 
BRANCH  17   7
ATOM      5  O   UNL     1      10.327   9.963  22.941  0.00  0.00    -0.276 OA
ATOM      7  N   UNL     1      12.473   9.857  22.038  0.00  0.00    -0.313 N 
ATOM     23  C   UNL     1      11.490  10.354  22.889  0.00  0.00    +0.216 C 
ATOM     25  H   UNL     1      13.412  10.239  22.095  0.00  0.00    +0.149 HD
BRANCH  23  15
ATOM     15  C   UNL     1      12.002  11.435  23.792  0.00  0.00    +0.075 C 
ATOM     18  C   UNL     1      11.171  11.492  25.078  0.00  0.00    +0.013 C 
ATOM     19  C   UNL     1      11.857  12.806  23.127  0.00  0.00    +0.013 C 
ATOM     20  C   UNL     1      10.652  12.923  25.175  0.00  0.00    +0.001 C 
ATOM     21  C   UNL     1      10.591  13.395  23.733  0.00  0.00    +0.001 C 
ENDBRANCH  23  15
ENDBRANCH  17   7
ENDBRANCH  10  17
TORSDOF 8
ENDMDL
MODEL 10
REMARK VINA RESULT:      -6.0     13.835     16.945
REMARK  Name = 25390424
REMARK  8 active torsions:
REMARK  status: ('A' for Active; 'I' for Inactive)
REMARK    1  A    between atoms: O_2  and  C_11
REMARK    2  A    between atoms: O_3  and  C_12
REMARK    3  A    between atoms: N_6  and  C_8
REMARK    4  A    between atoms: N_7  and  C_17
REMARK    5  A    between atoms: C_9  and  C_16
REMARK    6  A    between atoms: C_10  and  C_17
REMARK    7  A    between atoms: C_15  and  C_23
REMARK    8  A    between atoms: C_16  and  C_22
REMARK                            x       y       z     vdW  Elec       q    Type
REMARK                         _______ _______ _______ _____ _____    ______ ____
ROOT
ATOM      1  O   UNL     1      -1.914  -0.079  25.655  0.00  0.00    -0.366 OA
ATOM      9  C   UNL     1      -3.239  -0.570  25.389  0.00  0.00    +0.158 C 
ATOM     10  C   UNL     1      -0.973  -0.785  24.814  0.00  0.00    +0.167 C 
ATOM     11  C   UNL     1      -3.152  -1.279  24.048  0.00  0.00    +0.175 C 
ATOM     12  C   UNL     1      -1.765  -1.883  24.112  0.00  0.00    +0.176 C 
ENDROOT
BRANCH  11   2
ATOM      2  O   UNL     1      -4.174  -2.240  23.889  0.00  0.00    -0.387 OA
ATOM     26  H   UNL     1      -4.768  -2.162  24.656  0.00  0.00    +0.210 HD
ENDBRANCH  11   2
BRANCH  12   3
ATOM      3  O   UNL     1      -1.765  -3.036  24.954  0.00  0.00    -0.387 OA
ATOM     27  H   UNL     1      -2.690  -3.226  25.185  0.00  0.00    +0.210 HD
ENDBRANCH  12   3
BRANCH   9  16
ATOM     16  C   UNL     1      -4.224   0.585  25.397  0.00  0.00    +0.130 C 
BRANCH  16  22
ATOM      4  O   UNL     1      -4.204   2.022  23.449  0.00  0.00    -0.276 OA
ATOM      6  N   UNL     1      -2.757   2.480  25.206  0.00  0.00    -0.312 N 
ATOM     22  C   UNL     1      -3.751   1.758  24.560  0.00  0.00    +0.216 C 
ATOM     24  H   UNL     1      -2.424   2.179  26.117  0.00  0.00    +0.149 HD
BRANCH   6   8
ATOM      8  C   UNL     1      -2.143   3.638  24.623  0.00  0.00    +0.073 C 
ATOM     13  C   UNL     1      -1.888   4.873  25.436  0.00  0.00    +0.024 C 
ATOM     14  C   UNL     1      -0.736   4.030  24.971  0.00  0.00    +0.024 C 
ENDBRANCH   6   8
ENDBRANCH  16  22
ENDBRANCH   9  16
BRANCH  10  17
ATOM     17  C   UNL     1      -0.364   0.222  23.847  0.00  0.00    +0.138 C 
BRANCH  17   7
ATOM      5  O   UNL     1       2.091   1.743  23.550  0.00  0.00    -0.276 OA
ATOM      7  N   UNL     1       0.892  -0.244  23.338  0.00  0.00    -0.313 N 
ATOM     23  C   UNL     1       2.024   0.559  23.230  0.00  0.00    +0.216 C 
ATOM     25  H   UNL     1       0.953  -1.220  23.065  0.00  0.00    +0.149 HD
BRANCH  23  15
ATOM     15  C   UNL     1       3.208  -0.183  22.691  0.00  0.00    +0.075 C 
ATOM     18  C   UNL     1       3.673  -1.243  23.694  0.00  0.00    +0.013 C 
ATOM     19  C   UNL     1       4.392   0.765  22.489  0.00  0.00    +0.013 C 
ATOM     20  C   UNL     1       5.143  -0.941  23.968  0.00  0.00    +0.001 C 
ATOM     21  C   UNL     1       5.268   0.551  23.715  0.00  0.00    +0.001 C 
ENDBRANCH  23  15
ENDBRANCH  17   7
ENDBRANCH  10  17
TORSDOF 8
ENDMDL
