MODEL 1
REMARK VINA RESULT:      -5.4      0.000      0.000
REMARK  Name = 26742300
REMARK  9 active torsions:
REMARK  status: ('A' for Active; 'I' for Inactive)
REMARK    1  A    between atoms: S_1  and  C_23
REMARK    2  A    between atoms: S_1  and  C_25
REMARK    3  A    between atoms: S_2  and  C_26
REMARK    4  A    between atoms: S_2  and  C_28
REMARK    5  A    between atoms: O_6  and  C_27
REMARK    6  A    between atoms: N_10  and  C_21
REMARK    7  A    between atoms: C_20  and  C_23
REMARK    8  A    between atoms: C_24  and  C_26
REMARK    9  A    between atoms: C_25  and  C_27
REMARK                            x       y       z     vdW  Elec       q    Type
REMARK                         _______ _______ _______ _____ _____    ______ ____
ROOT
ATOM      3  O   UNL     1      13.889   6.426   7.349  0.00  0.00    -0.266 OA
ATOM      4  O   UNL     1      10.946   3.910   3.653  0.00  0.00    -0.275 OA
ATOM      8  N   UNL     1       9.745   5.649   4.619  0.00  0.00    -0.300 N 
ATOM      9  N   UNL     1      11.754   7.076   6.655  0.00  0.00    -0.310 N 
ATOM     11  C   UNL     1       9.662   5.676   7.115  0.00  0.00    +0.027 C 
ATOM     12  C   UNL     1       9.469   7.784   5.866  0.00  0.00    +0.054 C 
ATOM     13  C   UNL     1       8.927   7.010   7.066  0.00  0.00    +0.018 C 
ATOM     14  C   UNL     1       9.421   4.879   5.821  0.00  0.00    +0.113 C 
ATOM     15  C   UNL     1      11.152   5.938   7.362  0.00  0.00    +0.130 C 
ATOM     16  C   UNL     1       9.174   7.003   4.570  0.00  0.00    +0.117 C 
ATOM     17  C   UNL     1      10.962   8.021   5.996  0.00  0.00    +0.027 A 
ATOM     18  C   UNL     1      11.523   9.116   5.456  0.00  0.00    +0.024 A 
ATOM     19  C   UNL     1      13.152   7.222   6.765  0.00  0.00    +0.273 A 
ATOM     20  C   UNL     1      10.475   5.049   3.592  0.00  0.00    +0.225 C 
ATOM     21  C   UNL     1      13.742   8.443   6.130  0.00  0.00    +0.099 A 
ATOM     22  C   UNL     1      12.942   9.328   5.526  0.00  0.00    +0.030 A 
ENDROOT
BRANCH  21  10
ATOM      5  O   UNL     1      15.678   7.479   4.255  0.00  0.00    -0.275 OA
ATOM     10  N   UNL     1      15.093   8.614   6.203  0.00  0.00    -0.281 N 
ATOM     24  C   UNL     1      15.982   8.126   5.256  0.00  0.00    +0.227 C 
ATOM     29  H   UNL     1      15.465   8.915   7.100  0.00  0.00    +0.155 HD
BRANCH  24  26
ATOM     26  C   UNL     1      17.420   8.456   5.579  0.00  0.00    +0.164 C 
BRANCH  26   2
ATOM      2  S   UNL     1      18.376   8.470   4.044  0.00  0.00    -0.155 S 
ATOM     28  C   UNL     1      19.886   7.687   4.660  0.00  0.00    +0.085 C 
ENDBRANCH  26   2
ENDBRANCH  24  26
ENDBRANCH  21  10
BRANCH  20  23
ATOM     23  C   UNL     1      10.691   5.870   2.347  0.00  0.00    +0.165 C 
BRANCH  23   1
ATOM      1  S   UNL     1      12.383   6.477   2.379  0.00  0.00    -0.140 S 
BRANCH   1  25
ATOM     25  C   UNL     1      13.098   5.381   1.127  0.00  0.00    +0.189 C 
BRANCH  25  27
ATOM      7  O   UNL     1      13.954   3.206   1.713  0.00  0.00    -0.250 OA
ATOM     27  C   UNL     1      14.049   4.425   1.786  0.00  0.00    +0.315 C 
BRANCH  27   6
ATOM      6  O   UNL     1      15.042   5.056   2.464  0.00  0.00    -0.480 OA
ATOM     30  H   UNL     1      15.192   4.657   3.348  0.00  0.00    +0.295 HD
ENDBRANCH  27   6
ENDBRANCH  25  27
ENDBRANCH   1  25
ENDBRANCH  23   1
ENDBRANCH  20  23
TORSDOF 8
ENDMDL
MODEL 2
REMARK VINA RESULT:      -5.4      4.002      6.964
REMARK  Name = 26742300
REMARK  9 active torsions:
REMARK  status: ('A' for Active; 'I' for Inactive)
REMARK    1  A    between atoms: S_1  and  C_23
REMARK    2  A    between atoms: S_1  and  C_25
REMARK    3  A    between atoms: S_2  and  C_26
REMARK    4  A    between atoms: S_2  and  C_28
REMARK    5  A    between atoms: O_6  and  C_27
REMARK    6  A    between atoms: N_10  and  C_21
REMARK    7  A    between atoms: C_20  and  C_23
REMARK    8  A    between atoms: C_24  and  C_26
REMARK    9  A    between atoms: C_25  and  C_27
REMARK                            x       y       z     vdW  Elec       q    Type
REMARK                         _______ _______ _______ _____ _____    ______ ____
ROOT
ATOM      3  O   UNL     1      12.339   7.475   3.519  0.00  0.00    -0.266 OA
ATOM      4  O   UNL     1      12.134   6.668  -1.769  0.00  0.00    -0.275 OA
ATOM      8  N   UNL     1      12.861   4.754  -0.670  0.00  0.00    -0.300 N 
ATOM      9  N   UNL     1      12.746   5.436   2.450  0.00  0.00    -0.310 N 
ATOM     11  C   UNL     1      14.762   5.053   0.921  0.00  0.00    +0.027 C 
ATOM     12  C   UNL     1      13.143   3.239   1.283  0.00  0.00    +0.054 C 
ATOM     13  C   UNL     1      14.627   3.595   1.341  0.00  0.00    +0.018 C 
ATOM     14  C   UNL     1      14.226   5.256  -0.507  0.00  0.00    +0.113 C 
ATOM     15  C   UNL     1      14.031   5.934   1.942  0.00  0.00    +0.130 C 
ATOM     16  C   UNL     1      12.630   3.394  -0.161  0.00  0.00    +0.117 C 
ATOM     17  C   UNL     1      12.333   4.122   2.215  0.00  0.00    +0.027 A 
ATOM     18  C   UNL     1      11.211   3.653   2.786  0.00  0.00    +0.024 A 
ATOM     19  C   UNL     1      12.007   6.315   3.269  0.00  0.00    +0.273 A 
ATOM     20  C   UNL     1      11.919   5.527  -1.349  0.00  0.00    +0.225 C 
ATOM     21  C   UNL     1      10.751   5.762   3.867  0.00  0.00    +0.099 A 
ATOM     22  C   UNL     1      10.406   4.492   3.628  0.00  0.00    +0.030 A 
ENDROOT
BRANCH  21  10
ATOM      5  O   UNL     1       8.679   7.530   2.987  0.00  0.00    -0.275 OA
ATOM     10  N   UNL     1      10.001   6.584   4.656  0.00  0.00    -0.281 N 
ATOM     24  C   UNL     1       9.003   7.416   4.169  0.00  0.00    +0.227 C 
ATOM     29  H   UNL     1      10.346   6.749   5.598  0.00  0.00    +0.155 HD
BRANCH  24  26
ATOM     26  C   UNL     1       8.329   8.219   5.256  0.00  0.00    +0.164 C 
BRANCH  26   2
ATOM      2  S   UNL     1       8.714   7.473   6.858  0.00  0.00    -0.155 S 
ATOM     28  C   UNL     1       9.715   8.813   7.545  0.00  0.00    +0.085 C 
ENDBRANCH  26   2
ENDBRANCH  24  26
ENDBRANCH  21  10
BRANCH  20  23
ATOM     23  C   UNL     1      10.562   4.908  -1.562  0.00  0.00    +0.165 C 
BRANCH  23   1
ATOM      1  S   UNL     1      10.340   4.671  -3.331  0.00  0.00    -0.140 S 
BRANCH   1  25
ATOM     25  C   UNL     1      10.719   2.903  -3.427  0.00  0.00    +0.189 C 
BRANCH  25  27
ATOM      7  O   UNL     1       8.916   1.311  -3.289  0.00  0.00    -0.250 OA
ATOM     27  C   UNL     1       9.517   2.161  -3.934  0.00  0.00    +0.315 C 
BRANCH  27   6
ATOM      6  O   UNL     1       9.153   2.544  -5.184  0.00  0.00    -0.480 OA
ATOM     30  H   UNL     1       9.928   2.641  -5.777  0.00  0.00    +0.295 HD
ENDBRANCH  27   6
ENDBRANCH  25  27
ENDBRANCH   1  25
ENDBRANCH  23   1
ENDBRANCH  20  23
TORSDOF 8
ENDMDL
MODEL 3
REMARK VINA RESULT:      -5.4      2.626      5.698
REMARK  Name = 26742300
REMARK  9 active torsions:
REMARK  status: ('A' for Active; 'I' for Inactive)
REMARK    1  A    between atoms: S_1  and  C_23
REMARK    2  A    between atoms: S_1  and  C_25
REMARK    3  A    between atoms: S_2  and  C_26
REMARK    4  A    between atoms: S_2  and  C_28
REMARK    5  A    between atoms: O_6  and  C_27
REMARK    6  A    between atoms: N_10  and  C_21
REMARK    7  A    between atoms: C_20  and  C_23
REMARK    8  A    between atoms: C_24  and  C_26
REMARK    9  A    between atoms: C_25  and  C_27
REMARK                            x       y       z     vdW  Elec       q    Type
REMARK                         _______ _______ _______ _____ _____    ______ ____
ROOT
ATOM      3  O   UNL     1      10.095   7.524   1.289  0.00  0.00    -0.266 OA
ATOM      4  O   UNL     1      12.087   9.300   5.930  0.00  0.00    -0.275 OA
ATOM      8  N   UNL     1      10.641   7.515   6.282  0.00  0.00    -0.300 N 
ATOM      9  N   UNL     1       9.721   6.545   3.379  0.00  0.00    -0.310 N 
ATOM     11  C   UNL     1       8.384   7.702   5.229  0.00  0.00    +0.027 C 
ATOM     12  C   UNL     1       9.361   5.483   5.634  0.00  0.00    +0.054 C 
ATOM     13  C   UNL     1       8.063   6.286   5.691  0.00  0.00    +0.018 C 
ATOM     14  C   UNL     1       9.441   8.342   6.147  0.00  0.00    +0.113 C 
ATOM     15  C   UNL     1       8.842   7.656   3.767  0.00  0.00    +0.130 C 
ATOM     16  C   UNL     1      10.394   6.100   6.597  0.00  0.00    +0.117 C 
ATOM     17  C   UNL     1       9.924   5.452   4.225  0.00  0.00    +0.027 A 
ATOM     18  C   UNL     1      10.637   4.394   3.804  0.00  0.00    +0.024 A 
ATOM     19  C   UNL     1      10.260   6.590   2.076  0.00  0.00    +0.273 A 
ATOM     20  C   UNL     1      11.900   8.109   6.195  0.00  0.00    +0.225 C 
ATOM     21  C   UNL     1      11.068   5.403   1.654  0.00  0.00    +0.099 A 
ATOM     22  C   UNL     1      11.220   4.372   2.492  0.00  0.00    +0.030 A 
ENDROOT
BRANCH  21  10
ATOM      5  O   UNL     1       9.836   4.458  -0.750  0.00  0.00    -0.275 OA
ATOM     10  N   UNL     1      11.618   5.414   0.405  0.00  0.00    -0.281 N 
ATOM     24  C   UNL     1      10.965   4.945  -0.726  0.00  0.00    +0.227 C 
ATOM     29  H   UNL     1      12.622   5.565   0.352  0.00  0.00    +0.155 HD
BRANCH  24  26
ATOM     26  C   UNL     1      11.800   5.073  -1.978  0.00  0.00    +0.164 C 
BRANCH  26   2
ATOM      2  S   UNL     1      13.147   3.869  -1.908  0.00  0.00    -0.155 S 
ATOM     28  C   UNL     1      12.211   2.391  -2.366  0.00  0.00    +0.085 C 
ENDBRANCH  26   2
ENDBRANCH  24  26
ENDBRANCH  21  10
BRANCH  20  23
ATOM     23  C   UNL     1      13.089   7.214   6.438  0.00  0.00    +0.165 C 
BRANCH  23   1
ATOM      1  S   UNL     1      14.383   7.699   5.287  0.00  0.00    -0.140 S 
BRANCH   1  25
ATOM     25  C   UNL     1      13.561   7.253   3.737  0.00  0.00    +0.189 C 
BRANCH  25  27
ATOM      7  O   UNL     1      14.374   6.360   1.652  0.00  0.00    -0.250 OA
ATOM     27  C   UNL     1      14.525   6.510   2.857  0.00  0.00    +0.315 C 
BRANCH  27   6
ATOM      6  O   UNL     1      15.596   6.031   3.540  0.00  0.00    -0.480 OA
ATOM     30  H   UNL     1      15.503   6.164   4.508  0.00  0.00    +0.295 HD
ENDBRANCH  27   6
ENDBRANCH  25  27
ENDBRANCH   1  25
ENDBRANCH  23   1
ENDBRANCH  20  23
TORSDOF 8
ENDMDL
MODEL 4
REMARK VINA RESULT:      -5.4     26.384     29.498
REMARK  Name = 26742300
REMARK  9 active torsions:
REMARK  status: ('A' for Active; 'I' for Inactive)
REMARK    1  A    between atoms: S_1  and  C_23
REMARK    2  A    between atoms: S_1  and  C_25
REMARK    3  A    between atoms: S_2  and  C_26
REMARK    4  A    between atoms: S_2  and  C_28
REMARK    5  A    between atoms: O_6  and  C_27
REMARK    6  A    between atoms: N_10  and  C_21
REMARK    7  A    between atoms: C_20  and  C_23
REMARK    8  A    between atoms: C_24  and  C_26
REMARK    9  A    between atoms: C_25  and  C_27
REMARK                            x       y       z     vdW  Elec       q    Type
REMARK                         _______ _______ _______ _____ _____    ______ ____
ROOT
ATOM      3  O   UNL     1      -5.445 -13.630  15.867  0.00  0.00    -0.266 OA
ATOM      4  O   UNL     1      -9.880 -10.639  15.645  0.00  0.00    -0.275 OA
ATOM      8  N   UNL     1      -9.384 -11.217  17.840  0.00  0.00    -0.300 N 
ATOM      9  N   UNL     1      -6.638 -12.848  17.719  0.00  0.00    -0.310 N 
ATOM     11  C   UNL     1      -9.004 -13.645  18.280  0.00  0.00    +0.027 C 
ATOM     12  C   UNL     1      -7.913 -11.963  19.703  0.00  0.00    +0.054 C 
ATOM     13  C   UNL     1      -8.624 -13.315  19.718  0.00  0.00    +0.018 C 
ATOM     14  C   UNL     1      -9.937 -12.565  17.706  0.00  0.00    +0.113 C 
ATOM     15  C   UNL     1      -7.723 -13.801  17.451  0.00  0.00    +0.130 C 
ATOM     16  C   UNL     1      -8.874 -10.879  19.178  0.00  0.00    +0.117 C 
ATOM     17  C   UNL     1      -6.667 -12.010  18.837  0.00  0.00    +0.027 A 
ATOM     18  C   UNL     1      -5.612 -11.231  19.127  0.00  0.00    +0.024 A 
ATOM     19  C   UNL     1      -5.525 -12.897  16.854  0.00  0.00    +0.273 A 
ATOM     20  C   UNL     1      -9.448 -10.336  16.760  0.00  0.00    +0.225 C 
ATOM     21  C   UNL     1      -4.380 -11.996  17.198  0.00  0.00    +0.099 A 
ATOM     22  C   UNL     1      -4.447 -11.226  18.288  0.00  0.00    +0.030 A 
ENDROOT
BRANCH  21  10
ATOM      5  O   UNL     1      -4.026 -10.431  14.827  0.00  0.00    -0.275 OA
ATOM     10  N   UNL     1      -3.289 -12.005  16.378  0.00  0.00    -0.281 N 
ATOM     24  C   UNL     1      -3.175 -11.215  15.242  0.00  0.00    +0.227 C 
ATOM     29  H   UNL     1      -2.644 -12.783  16.489  0.00  0.00    +0.155 HD
BRANCH  24  26
ATOM     26  C   UNL     1      -1.866 -11.421  14.517  0.00  0.00    +0.164 C 
BRANCH  26   2
ATOM      2  S   UNL     1      -2.213 -11.944  12.821  0.00  0.00    -0.155 S 
ATOM     28  C   UNL     1      -1.928 -10.364  11.988  0.00  0.00    +0.085 C 
ENDBRANCH  26   2
ENDBRANCH  24  26
ENDBRANCH  21  10
BRANCH  20  23
ATOM     23  C   UNL     1      -8.944  -8.935  16.999  0.00  0.00    +0.165 C 
BRANCH  23   1
ATOM      1  S   UNL     1     -10.376  -7.870  17.222  0.00  0.00    -0.140 S 
BRANCH   1  25
ATOM     25  C   UNL     1     -10.196  -6.845  15.741  0.00  0.00    +0.189 C 
BRANCH  25  27
ATOM      7  O   UNL     1     -12.510  -6.291  16.122  0.00  0.00    -0.250 OA
ATOM     27  C   UNL     1     -11.485  -6.123  15.473  0.00  0.00    +0.315 C 
BRANCH  27   6
ATOM      6  O   UNL     1     -11.391  -5.248  14.440  0.00  0.00    -0.480 OA
ATOM     30  H   UNL     1     -10.578  -5.392  13.911  0.00  0.00    +0.295 HD
ENDBRANCH  27   6
ENDBRANCH  25  27
ENDBRANCH   1  25
ENDBRANCH  23   1
ENDBRANCH  20  23
TORSDOF 8
ENDMDL
MODEL 5
REMARK VINA RESULT:      -5.4     25.481     28.046
REMARK  Name = 26742300
REMARK  9 active torsions:
REMARK  status: ('A' for Active; 'I' for Inactive)
REMARK    1  A    between atoms: S_1  and  C_23
REMARK    2  A    between atoms: S_1  and  C_25
REMARK    3  A    between atoms: S_2  and  C_26
REMARK    4  A    between atoms: S_2  and  C_28
REMARK    5  A    between atoms: O_6  and  C_27
REMARK    6  A    between atoms: N_10  and  C_21
REMARK    7  A    between atoms: C_20  and  C_23
REMARK    8  A    between atoms: C_24  and  C_26
REMARK    9  A    between atoms: C_25  and  C_27
REMARK                            x       y       z     vdW  Elec       q    Type
REMARK                         _______ _______ _______ _____ _____    ______ ____
ROOT
ATOM      3  O   UNL     1      -6.331 -10.259  14.860  0.00  0.00    -0.266 OA
ATOM      4  O   UNL     1      -4.664 -14.622  12.244  0.00  0.00    -0.275 OA
ATOM      8  N   UNL     1      -3.048 -12.954  12.178  0.00  0.00    -0.300 N 
ATOM      9  N   UNL     1      -4.207 -10.541  13.925  0.00  0.00    -0.310 N 
ATOM     11  C   UNL     1      -3.816 -10.708  11.402  0.00  0.00    +0.027 C 
ATOM     12  C   UNL     1      -1.911 -10.878  12.945  0.00  0.00    +0.054 C 
ATOM     13  C   UNL     1      -2.439 -10.139  11.718  0.00  0.00    +0.018 C 
ATOM     14  C   UNL     1      -3.723 -12.216  11.110  0.00  0.00    +0.113 C 
ATOM     15  C   UNL     1      -4.760 -10.404  12.571  0.00  0.00    +0.130 C 
ATOM     16  C   UNL     1      -1.770 -12.379  12.625  0.00  0.00    +0.117 C 
ATOM     17  C   UNL     1      -2.833 -10.690  14.136  0.00  0.00    +0.027 A 
ATOM     18  C   UNL     1      -2.337 -10.696  15.384  0.00  0.00    +0.024 A 
ATOM     19  C   UNL     1      -5.115 -10.409  14.996  0.00  0.00    +0.273 A 
ATOM     20  C   UNL     1      -3.589 -14.157  12.633  0.00  0.00    +0.225 C 
ATOM     21  C   UNL     1      -4.526 -10.445  16.371  0.00  0.00    +0.099 A 
ATOM     22  C   UNL     1      -3.203 -10.571  16.522  0.00  0.00    +0.030 A 
ENDROOT
BRANCH  21  10
ATOM      5  O   UNL     1      -4.202 -11.676  18.935  0.00  0.00    -0.275 OA
ATOM     10  N   UNL     1      -5.373 -10.333  17.435  0.00  0.00    -0.281 N 
ATOM     24  C   UNL     1      -5.157 -10.952  18.658  0.00  0.00    +0.227 C 
ATOM     29  H   UNL     1      -6.301  -9.966  17.240  0.00  0.00    +0.155 HD
BRANCH  24  26
ATOM     26  C   UNL     1      -6.249 -10.663  19.660  0.00  0.00    +0.164 C 
BRANCH  26   2
ATOM      2  S   UNL     1      -7.448 -12.016  19.625  0.00  0.00    -0.155 S 
ATOM     28  C   UNL     1      -8.941 -11.045  19.312  0.00  0.00    +0.085 C 
ENDBRANCH  26   2
ENDBRANCH  24  26
ENDBRANCH  21  10
BRANCH  20  23
ATOM     23  C   UNL     1      -2.792 -14.909  13.667  0.00  0.00    +0.165 C 
BRANCH  23   1
ATOM      1  S   UNL     1      -3.948 -15.559  14.882  0.00  0.00    -0.140 S 
BRANCH   1  25
ATOM     25  C   UNL     1      -4.502 -13.996  15.607  0.00  0.00    +0.189 C 
BRANCH  25  27
ATOM      7  O   UNL     1      -6.427 -14.361  17.010  0.00  0.00    -0.250 OA
ATOM     27  C   UNL     1      -5.211 -14.269  16.902  0.00  0.00    +0.315 C 
BRANCH  27   6
ATOM      6  O   UNL     1      -4.356 -14.421  17.946  0.00  0.00    -0.480 OA
ATOM     30  H   UNL     1      -3.646 -15.068  17.746  0.00  0.00    +0.295 HD
ENDBRANCH  27   6
ENDBRANCH  25  27
ENDBRANCH   1  25
ENDBRANCH  23   1
ENDBRANCH  20  23
TORSDOF 8
ENDMDL
MODEL 6
REMARK VINA RESULT:      -5.3     25.218     27.981
REMARK  Name = 26742300
REMARK  9 active torsions:
REMARK  status: ('A' for Active; 'I' for Inactive)
REMARK    1  A    between atoms: S_1  and  C_23
REMARK    2  A    between atoms: S_1  and  C_25
REMARK    3  A    between atoms: S_2  and  C_26
REMARK    4  A    between atoms: S_2  and  C_28
REMARK    5  A    between atoms: O_6  and  C_27
REMARK    6  A    between atoms: N_10  and  C_21
REMARK    7  A    between atoms: C_20  and  C_23
REMARK    8  A    between atoms: C_24  and  C_26
REMARK    9  A    between atoms: C_25  and  C_27
REMARK                            x       y       z     vdW  Elec       q    Type
REMARK                         _______ _______ _______ _____ _____    ______ ____
ROOT
ATOM      3  O   UNL     1      -6.651 -10.029  14.260  0.00  0.00    -0.266 OA
ATOM      4  O   UNL     1      -4.610 -14.685  12.584  0.00  0.00    -0.275 OA
ATOM      8  N   UNL     1      -2.925 -13.121  12.924  0.00  0.00    -0.300 N 
ATOM      9  N   UNL     1      -4.371 -10.507  14.061  0.00  0.00    -0.310 N 
ATOM     11  C   UNL     1      -3.234 -10.911  11.804  0.00  0.00    +0.027 C 
ATOM     12  C   UNL     1      -1.919 -11.055  13.876  0.00  0.00    +0.054 C 
ATOM     13  C   UNL     1      -1.981 -10.394  12.501  0.00  0.00    +0.018 C 
ATOM     14  C   UNL     1      -3.176 -12.441  11.653  0.00  0.00    +0.113 C 
ATOM     15  C   UNL     1      -4.466 -10.456  12.595  0.00  0.00    +0.130 C 
ATOM     16  C   UNL     1      -1.806 -12.583  13.712  0.00  0.00    +0.117 C 
ATOM     17  C   UNL     1      -3.147 -10.715  14.702  0.00  0.00    +0.027 A 
ATOM     18  C   UNL     1      -3.063 -10.642  16.040  0.00  0.00    +0.024 A 
ATOM     19  C   UNL     1      -5.553 -10.235  14.781  0.00  0.00    +0.273 A 
ATOM     20  C   UNL     1      -3.674 -14.249  13.260  0.00  0.00    +0.225 C 
ATOM     21  C   UNL     1      -5.422 -10.186  16.271  0.00  0.00    +0.099 A 
ATOM     22  C   UNL     1      -4.226 -10.373  16.838  0.00  0.00    +0.030 A 
ENDROOT
BRANCH  21  10
ATOM      5  O   UNL     1      -7.097 -12.140  17.525  0.00  0.00    -0.275 OA
ATOM     10  N   UNL     1      -6.546  -9.937  17.005  0.00  0.00    -0.281 N 
ATOM     24  C   UNL     1      -7.314 -10.931  17.595  0.00  0.00    +0.227 C 
ATOM     29  H   UNL     1      -6.947  -9.007  16.920  0.00  0.00    +0.155 HD
BRANCH  24  26
ATOM     26  C   UNL     1      -8.501 -10.381  18.349  0.00  0.00    +0.164 C 
BRANCH  26   2
ATOM      2  S   UNL     1      -9.129 -11.660  19.463  0.00  0.00    -0.155 S 
ATOM     28  C   UNL     1     -10.549 -12.199  18.482  0.00  0.00    +0.085 C 
ENDBRANCH  26   2
ENDBRANCH  24  26
ENDBRANCH  21  10
BRANCH  20  23
ATOM     23  C   UNL     1      -3.298 -14.954  14.539  0.00  0.00    +0.165 C 
BRANCH  23   1
ATOM      1  S   UNL     1      -2.796 -16.628  14.114  0.00  0.00    -0.140 S 
BRANCH   1  25
ATOM     25  C   UNL     1      -1.001 -16.412  14.200  0.00  0.00    +0.189 C 
BRANCH  25  27
ATOM      7  O   UNL     1      -0.930 -16.298  11.794  0.00  0.00    -0.250 OA
ATOM     27  C   UNL     1      -0.492 -15.924  12.875  0.00  0.00    +0.315 C 
BRANCH  27   6
ATOM      6  O   UNL     1       0.500 -15.005  13.000  0.00  0.00    -0.480 OA
ATOM     30  H   UNL     1       0.180 -14.095  12.823  0.00  0.00    +0.295 HD
ENDBRANCH  27   6
ENDBRANCH  25  27
ENDBRANCH   1  25
ENDBRANCH  23   1
ENDBRANCH  20  23
TORSDOF 8
ENDMDL
MODEL 7
REMARK VINA RESULT:      -5.0     24.597     27.214
REMARK  Name = 26742300
REMARK  9 active torsions:
REMARK  status: ('A' for Active; 'I' for Inactive)
REMARK    1  A    between atoms: S_1  and  C_23
REMARK    2  A    between atoms: S_1  and  C_25
REMARK    3  A    between atoms: S_2  and  C_26
REMARK    4  A    between atoms: S_2  and  C_28
REMARK    5  A    between atoms: O_6  and  C_27
REMARK    6  A    between atoms: N_10  and  C_21
REMARK    7  A    between atoms: C_20  and  C_23
REMARK    8  A    between atoms: C_24  and  C_26
REMARK    9  A    between atoms: C_25  and  C_27
REMARK                            x       y       z     vdW  Elec       q    Type
REMARK                         _______ _______ _______ _____ _____    ______ ____
ROOT
ATOM      3  O   UNL     1      -5.047 -12.698  10.071  0.00  0.00    -0.266 OA
ATOM      4  O   UNL     1      -5.878 -12.504  15.356  0.00  0.00    -0.275 OA
ATOM      8  N   UNL     1      -3.604 -12.557  14.880  0.00  0.00    -0.300 N 
ATOM      9  N   UNL     1      -3.374 -12.510  11.692  0.00  0.00    -0.310 N 
ATOM     11  C   UNL     1      -2.841 -14.381  13.355  0.00  0.00    +0.027 C 
ATOM     12  C   UNL     1      -1.588 -12.269  13.452  0.00  0.00    +0.054 C 
ATOM     13  C   UNL     1      -1.438 -13.786  13.362  0.00  0.00    +0.018 C 
ATOM     14  C   UNL     1      -3.595 -14.001  14.641  0.00  0.00    +0.113 C 
ATOM     15  C   UNL     1      -3.575 -13.909  12.095  0.00  0.00    +0.130 C 
ATOM     16  C   UNL     1      -2.295 -11.896  14.769  0.00  0.00    +0.117 C 
ATOM     17  C   UNL     1      -2.374 -11.725  12.273  0.00  0.00    +0.027 A 
ATOM     18  C   UNL     1      -2.130 -10.488  11.810  0.00  0.00    +0.024 A 
ATOM     19  C   UNL     1      -4.166 -12.038  10.626  0.00  0.00    +0.273 A 
ATOM     20  C   UNL     1      -4.789 -11.930  15.269  0.00  0.00    +0.225 C 
ATOM     21  C   UNL     1      -3.880 -10.647  10.154  0.00  0.00    +0.099 A 
ATOM     22  C   UNL     1      -2.900  -9.941  10.729  0.00  0.00    +0.030 A 
ENDROOT
BRANCH  21  10
ATOM      5  O   UNL     1      -6.271  -9.094  10.409  0.00  0.00    -0.275 OA
ATOM     10  N   UNL     1      -4.633 -10.149   9.132  0.00  0.00    -0.281 N 
ATOM     24  C   UNL     1      -5.783  -9.395   9.321  0.00  0.00    +0.227 C 
ATOM     29  H   UNL     1      -4.462 -10.539   8.209  0.00  0.00    +0.155 HD
BRANCH  24  26
ATOM     26  C   UNL     1      -6.424  -8.970   8.021  0.00  0.00    +0.164 C 
BRANCH  26   2
ATOM      2  S   UNL     1      -8.139  -8.495   8.342  0.00  0.00    -0.155 S 
ATOM     28  C   UNL     1      -7.990  -6.720   8.029  0.00  0.00    +0.085 C 
ENDBRANCH  26   2
ENDBRANCH  24  26
ENDBRANCH  21  10
BRANCH  20  23
ATOM     23  C   UNL     1      -4.703 -10.460  15.588  0.00  0.00    +0.165 C 
BRANCH  23   1
ATOM      1  S   UNL     1      -6.112 -10.042  16.625  0.00  0.00    -0.140 S 
BRANCH   1  25
ATOM     25  C   UNL     1      -5.420 -10.496  18.235  0.00  0.00    +0.189 C 
BRANCH  25  27
ATOM      7  O   UNL     1      -6.916 -12.272  18.880  0.00  0.00    -0.250 OA
ATOM     27  C   UNL     1      -6.485 -11.142  19.072  0.00  0.00    +0.315 C 
BRANCH  27   6
ATOM      6  O   UNL     1      -6.914 -10.344  20.083  0.00  0.00    -0.480 OA
ATOM     30  H   UNL     1      -7.363  -9.538  19.747  0.00  0.00    +0.295 HD
ENDBRANCH  27   6
ENDBRANCH  25  27
ENDBRANCH   1  25
ENDBRANCH  23   1
ENDBRANCH  20  23
TORSDOF 8
ENDMDL
MODEL 8
REMARK VINA RESULT:      -5.0     26.967     29.062
REMARK  Name = 26742300
REMARK  9 active torsions:
REMARK  status: ('A' for Active; 'I' for Inactive)
REMARK    1  A    between atoms: S_1  and  C_23
REMARK    2  A    between atoms: S_1  and  C_25
REMARK    3  A    between atoms: S_2  and  C_26
REMARK    4  A    between atoms: S_2  and  C_28
REMARK    5  A    between atoms: O_6  and  C_27
REMARK    6  A    between atoms: N_10  and  C_21
REMARK    7  A    between atoms: C_20  and  C_23
REMARK    8  A    between atoms: C_24  and  C_26
REMARK    9  A    between atoms: C_25  and  C_27
REMARK                            x       y       z     vdW  Elec       q    Type
REMARK                         _______ _______ _______ _____ _____    ______ ____
ROOT
ATOM      3  O   UNL     1      -4.969 -14.181  16.378  0.00  0.00    -0.266 OA
ATOM      4  O   UNL     1      -9.716 -11.813  15.662  0.00  0.00    -0.275 OA
ATOM      8  N   UNL     1      -8.483 -10.711  17.294  0.00  0.00    -0.300 N 
ATOM      9  N   UNL     1      -5.661 -12.206  17.420  0.00  0.00    -0.310 N 
ATOM     11  C   UNL     1      -7.565 -12.135  19.128  0.00  0.00    +0.027 C 
ATOM     12  C   UNL     1      -6.409 -10.058  18.502  0.00  0.00    +0.054 C 
ATOM     13  C   UNL     1      -6.831 -10.922  19.688  0.00  0.00    +0.018 C 
ATOM     14  C   UNL     1      -8.803 -11.694  18.329  0.00  0.00    +0.113 C 
ATOM     15  C   UNL     1      -6.590 -12.956  18.275  0.00  0.00    +0.130 C 
ATOM     16  C   UNL     1      -7.660  -9.577  17.741  0.00  0.00    +0.117 C 
ATOM     17  C   UNL     1      -5.497 -10.825  17.562  0.00  0.00    +0.027 A 
ATOM     18  C   UNL     1      -4.559 -10.178  16.851  0.00  0.00    +0.024 A 
ATOM     19  C   UNL     1      -4.873 -12.962  16.527  0.00  0.00    +0.273 A 
ATOM     20  C   UNL     1      -9.026 -10.853  16.017  0.00  0.00    +0.225 C 
ATOM     21  C   UNL     1      -3.856 -12.200  15.736  0.00  0.00    +0.099 A 
ATOM     22  C   UNL     1      -3.723 -10.882  15.920  0.00  0.00    +0.030 A 
ENDROOT
BRANCH  21  10
ATOM      5  O   UNL     1      -4.339 -12.499  12.930  0.00  0.00    -0.275 OA
ATOM     10  N   UNL     1      -3.082 -12.893  14.851  0.00  0.00    -0.281 N 
ATOM     24  C   UNL     1      -3.367 -12.996  13.497  0.00  0.00    +0.227 C 
ATOM     29  H   UNL     1      -2.402 -13.536  15.249  0.00  0.00    +0.155 HD
BRANCH  24  26
ATOM     26  C   UNL     1      -2.348 -13.821  12.746  0.00  0.00    +0.164 C 
BRANCH  26   2
ATOM      2  S   UNL     1      -1.731 -15.124  13.838  0.00  0.00    -0.155 S 
ATOM     28  C   UNL     1      -1.472 -16.414  12.598  0.00  0.00    +0.085 C 
ENDBRANCH  26   2
ENDBRANCH  24  26
ENDBRANCH  21  10
BRANCH  20  23
ATOM     23  C   UNL     1      -8.730  -9.754  15.029  0.00  0.00    +0.165 C 
BRANCH  23   1
ATOM      1  S   UNL     1     -10.238  -8.801  14.803  0.00  0.00    -0.140 S 
BRANCH   1  25
ATOM     25  C   UNL     1      -9.845  -7.395  15.873  0.00  0.00    +0.189 C 
BRANCH  25  27
ATOM      7  O   UNL     1     -11.463  -6.093  14.651  0.00  0.00    -0.250 OA
ATOM     27  C   UNL     1     -10.893  -6.333  15.707  0.00  0.00    +0.315 C 
BRANCH  27   6
ATOM      6  O   UNL     1     -11.156  -5.671  16.863  0.00  0.00    -0.480 OA
ATOM     30  H   UNL     1     -10.860  -6.177  17.650  0.00  0.00    +0.295 HD
ENDBRANCH  27   6
ENDBRANCH  25  27
ENDBRANCH   1  25
ENDBRANCH  23   1
ENDBRANCH  20  23
TORSDOF 8
ENDMDL
MODEL 9
REMARK VINA RESULT:      -4.9      3.332      5.569
REMARK  Name = 26742300
REMARK  9 active torsions:
REMARK  status: ('A' for Active; 'I' for Inactive)
REMARK    1  A    between atoms: S_1  and  C_23
REMARK    2  A    between atoms: S_1  and  C_25
REMARK    3  A    between atoms: S_2  and  C_26
REMARK    4  A    between atoms: S_2  and  C_28
REMARK    5  A    between atoms: O_6  and  C_27
REMARK    6  A    between atoms: N_10  and  C_21
REMARK    7  A    between atoms: C_20  and  C_23
REMARK    8  A    between atoms: C_24  and  C_26
REMARK    9  A    between atoms: C_25  and  C_27
REMARK                            x       y       z     vdW  Elec       q    Type
REMARK                         _______ _______ _______ _____ _____    ______ ____
ROOT
ATOM      3  O   UNL     1      13.155   7.933   3.963  0.00  0.00    -0.266 OA
ATOM      4  O   UNL     1       9.005  10.581   6.067  0.00  0.00    -0.275 OA
ATOM      8  N   UNL     1       8.863   8.311   6.545  0.00  0.00    -0.300 N 
ATOM      9  N   UNL     1      11.508   6.991   5.329  0.00  0.00    -0.310 N 
ATOM     11  C   UNL     1       9.067   6.762   4.597  0.00  0.00    +0.027 C 
ATOM     12  C   UNL     1       9.746   6.003   6.834  0.00  0.00    +0.054 C 
ATOM     13  C   UNL     1       9.037   5.574   5.551  0.00  0.00    +0.018 C 
ATOM     14  C   UNL     1       8.347   7.972   5.218  0.00  0.00    +0.113 C 
ATOM     15  C   UNL     1      10.524   7.078   4.241  0.00  0.00    +0.130 C 
ATOM     16  C   UNL     1       8.986   7.180   7.476  0.00  0.00    +0.117 C 
ATOM     17  C   UNL     1      11.182   6.408   6.557  0.00  0.00    +0.027 A 
ATOM     18  C   UNL     1      12.127   6.233   7.495  0.00  0.00    +0.024 A 
ATOM     19  C   UNL     1      12.816   7.429   5.035  0.00  0.00    +0.273 A 
ATOM     20  C   UNL     1       9.115   9.645   6.865  0.00  0.00    +0.225 C 
ATOM     21  C   UNL     1      13.835   7.238   6.115  0.00  0.00    +0.099 A 
ATOM     22  C   UNL     1      13.480   6.658   7.267  0.00  0.00    +0.030 A 
ENDROOT
BRANCH  21  10
ATOM      5  O   UNL     1      14.893   9.842   6.663  0.00  0.00    -0.275 OA
ATOM     10  N   UNL     1      15.110   7.660   5.875  0.00  0.00    -0.281 N 
ATOM     24  C   UNL     1      15.565   8.937   6.170  0.00  0.00    +0.227 C 
ATOM     29  H   UNL     1      15.670   7.082   5.254  0.00  0.00    +0.155 HD
BRANCH  24  26
ATOM     26  C   UNL     1      17.016   9.140   5.803  0.00  0.00    +0.164 C 
BRANCH  26   2
ATOM      2  S   UNL     1      17.254   8.661   4.075  0.00  0.00    -0.155 S 
ATOM     28  C   UNL     1      18.929   7.992   4.209  0.00  0.00    +0.085 C 
ENDBRANCH  26   2
ENDBRANCH  24  26
ENDBRANCH  21  10
BRANCH  20  23
ATOM     23  C   UNL     1       9.555   9.930   8.278  0.00  0.00    +0.165 C 
BRANCH  23   1
ATOM      1  S   UNL     1      11.184  10.688   8.202  0.00  0.00    -0.140 S 
BRANCH   1  25
ATOM     25  C   UNL     1      10.883  12.106   9.286  0.00  0.00    +0.189 C 
BRANCH  25  27
ATOM      7  O   UNL     1      11.144  12.019  11.680  0.00  0.00    -0.250 OA
ATOM     27  C   UNL     1      11.645  11.926  10.567  0.00  0.00    +0.315 C 
BRANCH  27   6
ATOM      6  O   UNL     1      12.955  11.631  10.362  0.00  0.00    -0.480 OA
ATOM     30  H   UNL     1      13.547  12.314  10.743  0.00  0.00    +0.295 HD
ENDBRANCH  27   6
ENDBRANCH  25  27
ENDBRANCH   1  25
ENDBRANCH  23   1
ENDBRANCH  20  23
TORSDOF 8
ENDMDL
MODEL 10
REMARK VINA RESULT:      -4.8     25.100     28.508
REMARK  Name = 26742300
REMARK  9 active torsions:
REMARK  status: ('A' for Active; 'I' for Inactive)
REMARK    1  A    between atoms: S_1  and  C_23
REMARK    2  A    between atoms: S_1  and  C_25
REMARK    3  A    between atoms: S_2  and  C_26
REMARK    4  A    between atoms: S_2  and  C_28
REMARK    5  A    between atoms: O_6  and  C_27
REMARK    6  A    between atoms: N_10  and  C_21
REMARK    7  A    between atoms: C_20  and  C_23
REMARK    8  A    between atoms: C_24  and  C_26
REMARK    9  A    between atoms: C_25  and  C_27
REMARK                            x       y       z     vdW  Elec       q    Type
REMARK                         _______ _______ _______ _____ _____    ______ ____
ROOT
ATOM      3  O   UNL     1      -7.798  -8.800  17.160  0.00  0.00    -0.266 OA
ATOM      4  O   UNL     1      -3.418 -10.298  14.471  0.00  0.00    -0.275 OA
ATOM      8  N   UNL     1      -4.116 -11.981  15.913  0.00  0.00    -0.300 N 
ATOM      9  N   UNL     1      -6.808 -10.915  17.268  0.00  0.00    -0.310 N 
ATOM     11  C   UNL     1      -4.494 -11.310  18.288  0.00  0.00    +0.027 C 
ATOM     12  C   UNL     1      -5.749 -13.199  17.341  0.00  0.00    +0.054 C 
ATOM     13  C   UNL     1      -5.019 -12.708  18.589  0.00  0.00    +0.018 C 
ATOM     14  C   UNL     1      -3.529 -11.342  17.091  0.00  0.00    +0.113 C 
ATOM     15  C   UNL     1      -5.684 -10.374  18.045  0.00  0.00    +0.130 C 
ATOM     16  C   UNL     1      -4.761 -13.280  16.161  0.00  0.00    +0.117 C 
ATOM     17  C   UNL     1      -6.903 -12.280  16.984  0.00  0.00    +0.027 A 
ATOM     18  C   UNL     1      -7.995 -12.770  16.375  0.00  0.00    +0.024 A 
ATOM     19  C   UNL     1      -7.829 -10.008  16.917  0.00  0.00    +0.273 A 
ATOM     20  C   UNL     1      -3.963 -11.389  14.659  0.00  0.00    +0.225 C 
ATOM     21  C   UNL     1      -9.018 -10.589  16.218  0.00  0.00    +0.099 A 
ATOM     22  C   UNL     1      -9.072 -11.905  15.985  0.00  0.00    +0.030 A 
ENDROOT
BRANCH  21  10
ATOM      5  O   UNL     1      -9.252  -9.219  13.715  0.00  0.00    -0.275 OA
ATOM     10  N   UNL     1     -10.023  -9.742  15.851  0.00  0.00    -0.281 N 
ATOM     24  C   UNL     1     -10.083  -9.111  14.616  0.00  0.00    +0.227 C 
ATOM     29  H   UNL     1     -10.621  -9.396  16.596  0.00  0.00    +0.155 HD
BRANCH  24  26
ATOM     26  C   UNL     1     -11.300  -8.229  14.469  0.00  0.00    +0.164 C 
BRANCH  26   2
ATOM      2  S   UNL     1     -11.119  -6.798  15.562  0.00  0.00    -0.155 S 
ATOM     28  C   UNL     1     -12.812  -6.169  15.463  0.00  0.00    +0.085 C 
ENDBRANCH  26   2
ENDBRANCH  24  26
ENDBRANCH  21  10
BRANCH  20  23
ATOM     23  C   UNL     1      -4.512 -12.150  13.479  0.00  0.00    +0.165 C 
BRANCH  23   1
ATOM      1  S   UNL     1      -4.918 -10.955  12.198  0.00  0.00    -0.140 S 
BRANCH   1  25
ATOM     25  C   UNL     1      -3.543 -11.280  11.066  0.00  0.00    +0.189 C 
BRANCH  25  27
ATOM      7  O   UNL     1      -2.624  -9.176  10.334  0.00  0.00    -0.250 OA
ATOM     27  C   UNL     1      -2.582 -10.127  11.104  0.00  0.00    +0.315 C 
BRANCH  27   6
ATOM      6  O   UNL     1      -1.665 -10.240  12.099  0.00  0.00    -0.480 OA
ATOM     30  H   UNL     1      -2.063 -10.090  12.983  0.00  0.00    +0.295 HD
ENDBRANCH  27   6
ENDBRANCH  25  27
ENDBRANCH   1  25
ENDBRANCH  23   1
ENDBRANCH  20  23
TORSDOF 8
ENDMDL
