MODEL 1
REMARK VINA RESULT:      -7.1      0.000      0.000
REMARK  Name = 45783631
REMARK  10 active torsions:
REMARK  status: ('A' for Active; 'I' for Inactive)
REMARK    1  A    between atoms: O_3  and  C_23
REMARK    2  A    between atoms: O_4  and  C_29
REMARK    3  A    between atoms: O_4  and  C_30
REMARK    4  A    between atoms: N_6  and  C_15
REMARK    5  A    between atoms: N_10  and  C_27
REMARK    6  A    between atoms: C_11  and  C_16
REMARK    7  A    between atoms: C_15  and  C_17
REMARK    8  A    between atoms: C_19  and  C_22
REMARK    9  A    between atoms: C_20  and  C_23
REMARK   10  A    between atoms: C_28  and  C_29
REMARK                            x       y       z     vdW  Elec       q    Type
REMARK                         _______ _______ _______ _____ _____    ______ ____
ROOT
ATOM      1  O   UNL     1      16.006   6.034  18.449  0.00  0.00    -0.336 OA
ATOM      7  N   UNL     1      16.808   7.221  20.172  0.00  0.00    -0.190 NA
ATOM      8  N   UNL     1      17.251   5.474  18.763  0.00  0.00    -0.056 NA
ATOM     16  C   UNL     1      15.822   7.057  19.326  0.00  0.00    +0.245 A 
ATOM     19  C   UNL     1      17.661   6.228  19.788  0.00  0.00    +0.204 A 
ENDROOT
BRANCH  19  22
ATOM      9  N   UNL     1      20.510   6.710  22.128  0.00  0.00    -0.239 NA
ATOM     22  C   UNL     1      18.916   6.015  20.449  0.00  0.00    +0.041 A 
ATOM     24  C   UNL     1      19.745   4.960  20.087  0.00  0.00    +0.016 A 
ATOM     25  C   UNL     1      19.340   6.854  21.466  0.00  0.00    +0.124 A 
ATOM     26  C   UNL     1      20.957   4.778  20.745  0.00  0.00    +0.044 A 
ATOM     27  C   UNL     1      21.290   5.673  21.749  0.00  0.00    +0.125 A 
BRANCH  27  10
ATOM      5  O   UNL     1      22.193   3.471  23.591  0.00  0.00    -0.273 OA
ATOM     10  N   UNL     1      22.513   5.481  22.404  0.00  0.00    -0.268 N 
ATOM     28  C   UNL     1      22.878   4.432  23.254  0.00  0.00    +0.244 C 
ATOM     32  H   UNL     1      23.203   6.205  22.225  0.00  0.00    +0.156 HD
BRANCH  28  29
ATOM     29  C   UNL     1      24.291   4.588  23.773  0.00  0.00    +0.255 C 
BRANCH  29   4
ATOM      4  O   UNL     1      24.852   3.305  23.960  0.00  0.00    -0.374 OA
ATOM     30  C   UNL     1      25.335   3.126  25.288  0.00  0.00    +0.194 C 
ENDBRANCH  29   4
ENDBRANCH  28  29
ENDBRANCH  27  10
ENDBRANCH  19  22
BRANCH  16  11
ATOM      6  N   UNL     1      14.528   9.071  20.002  0.00  0.00    -0.284 NA
ATOM     11  C   UNL     1      14.530   7.835  19.194  0.00  0.00    +0.146 C 
ATOM     12  C   UNL     1      14.266   8.309  17.753  0.00  0.00    +0.030 C 
ATOM     13  C   UNL     1      14.067   9.814  17.859  0.00  0.00    +0.017 C 
ATOM     14  C   UNL     1      13.658  10.019  19.303  0.00  0.00    +0.085 C 
BRANCH   6  15
ATOM     15  C   UNL     1      14.109   8.856  21.380  0.00  0.00    +0.159 C 
BRANCH  15  17
ATOM      2  O   UNL     1      12.598   6.959  21.594  0.00  0.00    -0.461 OA
ATOM     17  C   UNL     1      12.709   8.307  21.462  0.00  0.00    +0.119 A 
ATOM     18  C   UNL     1      11.465   8.893  21.432  0.00  0.00    +0.046 A 
ATOM     20  C   UNL     1      11.269   6.682  21.647  0.00  0.00    +0.131 A 
ATOM     21  C   UNL     1      10.529   7.838  21.551  0.00  0.00    +0.047 A 
BRANCH  20  23
ATOM     23  C   UNL     1      10.906   5.265  21.791  0.00  0.00    +0.230 C 
BRANCH  23   3
ATOM      3  O   UNL     1      10.889   4.626  20.512  0.00  0.00    -0.387 OA
ATOM     31  H   UNL     1      11.578   3.941  20.528  0.00  0.00    +0.210 HD
ENDBRANCH  23   3
ENDBRANCH  20  23
ENDBRANCH  15  17
ENDBRANCH   6  15
ENDBRANCH  16  11
TORSDOF 9
ENDMDL
MODEL 2
REMARK VINA RESULT:      -6.8      2.623      3.680
REMARK  Name = 45783631
REMARK  10 active torsions:
REMARK  status: ('A' for Active; 'I' for Inactive)
REMARK    1  A    between atoms: O_3  and  C_23
REMARK    2  A    between atoms: O_4  and  C_29
REMARK    3  A    between atoms: O_4  and  C_30
REMARK    4  A    between atoms: N_6  and  C_15
REMARK    5  A    between atoms: N_10  and  C_27
REMARK    6  A    between atoms: C_11  and  C_16
REMARK    7  A    between atoms: C_15  and  C_17
REMARK    8  A    between atoms: C_19  and  C_22
REMARK    9  A    between atoms: C_20  and  C_23
REMARK   10  A    between atoms: C_28  and  C_29
REMARK                            x       y       z     vdW  Elec       q    Type
REMARK                         _______ _______ _______ _____ _____    ______ ____
ROOT
ATOM      1  O   UNL     1      14.244   6.795  19.775  0.00  0.00    -0.336 OA
ATOM      7  N   UNL     1      15.601   7.394  21.454  0.00  0.00    -0.190 NA
ATOM      8  N   UNL     1      15.513   6.298  19.448  0.00  0.00    -0.056 NA
ATOM     16  C   UNL     1      14.385   7.427  20.969  0.00  0.00    +0.245 A 
ATOM     19  C   UNL     1      16.257   6.691  20.485  0.00  0.00    +0.204 A 
ENDROOT
BRANCH  19  22
ATOM      9  N   UNL     1      19.561   5.121  19.814  0.00  0.00    -0.239 NA
ATOM     22  C   UNL     1      17.658   6.399  20.584  0.00  0.00    +0.041 A 
ATOM     24  C   UNL     1      18.465   7.065  21.499  0.00  0.00    +0.016 A 
ATOM     25  C   UNL     1      18.248   5.444  19.772  0.00  0.00    +0.124 A 
ATOM     26  C   UNL     1      19.821   6.760  21.573  0.00  0.00    +0.044 A 
ATOM     27  C   UNL     1      20.315   5.789  20.716  0.00  0.00    +0.125 A 
BRANCH  27  10
ATOM      5  O   UNL     1      21.712   3.218  21.419  0.00  0.00    -0.273 OA
ATOM     10  N   UNL     1      21.680   5.491  20.799  0.00  0.00    -0.268 N 
ATOM     28  C   UNL     1      22.276   4.271  21.132  0.00  0.00    +0.244 C 
ATOM     32  H   UNL     1      22.294   6.273  20.587  0.00  0.00    +0.156 HD
BRANCH  28  29
ATOM     29  C   UNL     1      23.787   4.353  21.119  0.00  0.00    +0.255 C 
BRANCH  29   4
ATOM      4  O   UNL     1      24.308   3.110  20.698  0.00  0.00    -0.374 OA
ATOM     30  C   UNL     1      25.011   3.221  19.464  0.00  0.00    +0.194 C 
ENDBRANCH  29   4
ENDBRANCH  28  29
ENDBRANCH  27  10
ENDBRANCH  19  22
BRANCH  16  11
ATOM      6  N   UNL     1      12.625   9.168  20.717  0.00  0.00    -0.284 NA
ATOM     11  C   UNL     1      13.138   8.060  21.549  0.00  0.00    +0.146 C 
ATOM     12  C   UNL     1      11.962   7.072  21.654  0.00  0.00    +0.030 C 
ATOM     13  C   UNL     1      10.816   7.735  20.904  0.00  0.00    +0.017 C 
ATOM     14  C   UNL     1      11.178   9.207  20.930  0.00  0.00    +0.085 C 
BRANCH   6  15
ATOM     15  C   UNL     1      13.257  10.447  21.009  0.00  0.00    +0.159 C 
BRANCH  15  17
ATOM      2  O   UNL     1      12.146  11.080  23.080  0.00  0.00    -0.461 OA
ATOM     17  C   UNL     1      12.337  11.367  21.766  0.00  0.00    +0.119 A 
ATOM     18  C   UNL     1      11.617  12.483  21.406  0.00  0.00    +0.046 A 
ATOM     20  C   UNL     1      11.294  12.021  23.564  0.00  0.00    +0.131 A 
ATOM     21  C   UNL     1      10.938  12.907  22.573  0.00  0.00    +0.047 A 
BRANCH  20  23
ATOM     23  C   UNL     1      10.940  11.908  24.986  0.00  0.00    +0.230 C 
BRANCH  23   3
ATOM      3  O   UNL     1      11.401  10.661  25.512  0.00  0.00    -0.387 OA
ATOM     31  H   UNL     1      12.318  10.797  25.803  0.00  0.00    +0.210 HD
ENDBRANCH  23   3
ENDBRANCH  20  23
ENDBRANCH  15  17
ENDBRANCH   6  15
ENDBRANCH  16  11
TORSDOF 9
ENDMDL
MODEL 3
REMARK VINA RESULT:      -6.8      2.086      3.739
REMARK  Name = 45783631
REMARK  10 active torsions:
REMARK  status: ('A' for Active; 'I' for Inactive)
REMARK    1  A    between atoms: O_3  and  C_23
REMARK    2  A    between atoms: O_4  and  C_29
REMARK    3  A    between atoms: O_4  and  C_30
REMARK    4  A    between atoms: N_6  and  C_15
REMARK    5  A    between atoms: N_10  and  C_27
REMARK    6  A    between atoms: C_11  and  C_16
REMARK    7  A    between atoms: C_15  and  C_17
REMARK    8  A    between atoms: C_19  and  C_22
REMARK    9  A    between atoms: C_20  and  C_23
REMARK   10  A    between atoms: C_28  and  C_29
REMARK                            x       y       z     vdW  Elec       q    Type
REMARK                         _______ _______ _______ _____ _____    ______ ____
ROOT
ATOM      1  O   UNL     1      14.354   6.744  19.789  0.00  0.00    -0.336 OA
ATOM      7  N   UNL     1      15.639   7.481  21.469  0.00  0.00    -0.190 NA
ATOM      8  N   UNL     1      15.640   6.244  19.544  0.00  0.00    -0.056 NA
ATOM     16  C   UNL     1      14.442   7.461  20.940  0.00  0.00    +0.245 A 
ATOM     19  C   UNL     1      16.340   6.721  20.578  0.00  0.00    +0.204 A 
ENDROOT
BRANCH  19  22
ATOM      9  N   UNL     1      19.785   6.870  21.970  0.00  0.00    -0.239 NA
ATOM     22  C   UNL     1      17.740   6.458  20.748  0.00  0.00    +0.041 A 
ATOM     24  C   UNL     1      18.410   5.578  19.907  0.00  0.00    +0.016 A 
ATOM     25  C   UNL     1      18.465   7.073  21.755  0.00  0.00    +0.124 A 
ATOM     26  C   UNL     1      19.768   5.343  20.095  0.00  0.00    +0.044 A 
ATOM     27  C   UNL     1      20.403   6.008  21.132  0.00  0.00    +0.125 A 
BRANCH  27  10
ATOM      5  O   UNL     1      21.827   4.259  23.124  0.00  0.00    -0.273 OA
ATOM     10  N   UNL     1      21.770   5.764  21.313  0.00  0.00    -0.268 N 
ATOM     28  C   UNL     1      22.378   4.936  22.260  0.00  0.00    +0.244 C 
ATOM     32  H   UNL     1      22.374   6.261  20.663  0.00  0.00    +0.156 HD
BRANCH  28  29
ATOM     29  C   UNL     1      23.887   4.944  22.138  0.00  0.00    +0.255 C 
BRANCH  29   4
ATOM      4  O   UNL     1      24.346   3.611  22.063  0.00  0.00    -0.374 OA
ATOM     30  C   UNL     1      23.969   2.988  20.839  0.00  0.00    +0.194 C 
ENDBRANCH  29   4
ENDBRANCH  28  29
ENDBRANCH  27  10
ENDBRANCH  19  22
BRANCH  16  11
ATOM      6  N   UNL     1      12.470   8.865  20.362  0.00  0.00    -0.284 NA
ATOM     11  C   UNL     1      13.166   8.114  21.427  0.00  0.00    +0.146 C 
ATOM     12  C   UNL     1      12.128   7.093  21.928  0.00  0.00    +0.030 C 
ATOM     13  C   UNL     1      10.864   7.386  21.131  0.00  0.00    +0.017 C 
ATOM     14  C   UNL     1      11.045   8.825  20.693  0.00  0.00    +0.085 C 
BRANCH   6  15
ATOM     15  C   UNL     1      12.959  10.228  20.207  0.00  0.00    +0.159 C 
BRANCH  15  17
ATOM      2  O   UNL     1      12.991   9.821  17.807  0.00  0.00    -0.461 OA
ATOM     17  C   UNL     1      13.586  10.449  18.856  0.00  0.00    +0.119 A 
ATOM     18  C   UNL     1      14.673  11.176  18.429  0.00  0.00    +0.046 A 
ATOM     20  C   UNL     1      13.707  10.151  16.700  0.00  0.00    +0.131 A 
ATOM     21  C   UNL     1      14.752  10.982  17.029  0.00  0.00    +0.047 A 
BRANCH  20  23
ATOM     23  C   UNL     1      13.239   9.578  15.430  0.00  0.00    +0.230 C 
BRANCH  23   3
ATOM      3  O   UNL     1      12.251  10.427  14.839  0.00  0.00    -0.387 OA
ATOM     31  H   UNL     1      12.629  10.768  14.012  0.00  0.00    +0.210 HD
ENDBRANCH  23   3
ENDBRANCH  20  23
ENDBRANCH  15  17
ENDBRANCH   6  15
ENDBRANCH  16  11
TORSDOF 9
ENDMDL
MODEL 4
REMARK VINA RESULT:      -6.6      4.497      9.167
REMARK  Name = 45783631
REMARK  10 active torsions:
REMARK  status: ('A' for Active; 'I' for Inactive)
REMARK    1  A    between atoms: O_3  and  C_23
REMARK    2  A    between atoms: O_4  and  C_29
REMARK    3  A    between atoms: O_4  and  C_30
REMARK    4  A    between atoms: N_6  and  C_15
REMARK    5  A    between atoms: N_10  and  C_27
REMARK    6  A    between atoms: C_11  and  C_16
REMARK    7  A    between atoms: C_15  and  C_17
REMARK    8  A    between atoms: C_19  and  C_22
REMARK    9  A    between atoms: C_20  and  C_23
REMARK   10  A    between atoms: C_28  and  C_29
REMARK                            x       y       z     vdW  Elec       q    Type
REMARK                         _______ _______ _______ _____ _____    ______ ____
ROOT
ATOM      1  O   UNL     1      12.788  10.626  19.506  0.00  0.00    -0.336 OA
ATOM      7  N   UNL     1      13.467   9.211  17.907  0.00  0.00    -0.190 NA
ATOM      8  N   UNL     1      13.529  11.392  18.596  0.00  0.00    -0.056 NA
ATOM     16  C   UNL     1      12.802   9.355  19.025  0.00  0.00    +0.245 A 
ATOM     19  C   UNL     1      13.895  10.487  17.683  0.00  0.00    +0.204 A 
ENDROOT
BRANCH  19  22
ATOM      9  N   UNL     1      15.342  10.340  14.260  0.00  0.00    -0.239 NA
ATOM     22  C   UNL     1      14.688  10.826  16.536  0.00  0.00    +0.041 A 
ATOM     24  C   UNL     1      15.547  11.918  16.558  0.00  0.00    +0.016 A 
ATOM     25  C   UNL     1      14.622  10.075  15.374  0.00  0.00    +0.124 A 
ATOM     26  C   UNL     1      16.304  12.223  15.431  0.00  0.00    +0.044 A 
ATOM     27  C   UNL     1      16.166  11.409  14.318  0.00  0.00    +0.125 A 
BRANCH  27  10
ATOM      5  O   UNL     1      15.628  13.331  12.067  0.00  0.00    -0.273 OA
ATOM     10  N   UNL     1      16.933  11.724  13.190  0.00  0.00    -0.268 N 
ATOM     28  C   UNL     1      16.631  12.632  12.171  0.00  0.00    +0.244 C 
ATOM     32  H   UNL     1      17.813  11.219  13.127  0.00  0.00    +0.156 HD
BRANCH  28  29
ATOM     29  C   UNL     1      17.716  12.684  11.116  0.00  0.00    +0.255 C 
BRANCH  29   4
ATOM      4  O   UNL     1      18.775  11.836  11.509  0.00  0.00    -0.374 OA
ATOM     30  C   UNL     1      19.921  11.999  10.679  0.00  0.00    +0.194 C 
ENDBRANCH  29   4
ENDBRANCH  28  29
ENDBRANCH  27  10
ENDBRANCH  19  22
BRANCH  16  11
ATOM      6  N   UNL     1      12.877   7.769  20.942  0.00  0.00    -0.284 NA
ATOM     11  C   UNL     1      12.059   8.317  19.841  0.00  0.00    +0.146 C 
ATOM     12  C   UNL     1      10.806   8.887  20.530  0.00  0.00    +0.030 C 
ATOM     13  C   UNL     1      10.979   8.560  22.006  0.00  0.00    +0.017 C 
ATOM     14  C   UNL     1      11.941   7.388  22.001  0.00  0.00    +0.085 C 
BRANCH   6  15
ATOM     15  C   UNL     1      13.723   6.657  20.532  0.00  0.00    +0.159 C 
BRANCH  15  17
ATOM      2  O   UNL     1      16.049   6.070  20.120  0.00  0.00    -0.461 OA
ATOM     17  C   UNL     1      15.181   7.031  20.533  0.00  0.00    +0.119 A 
ATOM     18  C   UNL     1      15.858   8.179  20.874  0.00  0.00    +0.046 A 
ATOM     20  C   UNL     1      17.293   6.610  20.199  0.00  0.00    +0.131 A 
ATOM     21  C   UNL     1      17.230   7.905  20.658  0.00  0.00    +0.047 A 
BRANCH  20  23
ATOM     23  C   UNL     1      18.406   5.739  19.795  0.00  0.00    +0.230 C 
BRANCH  23   3
ATOM      3  O   UNL     1      18.200   5.260  18.464  0.00  0.00    -0.387 OA
ATOM     31  H   UNL     1      18.576   4.365  18.424  0.00  0.00    +0.210 HD
ENDBRANCH  23   3
ENDBRANCH  20  23
ENDBRANCH  15  17
ENDBRANCH   6  15
ENDBRANCH  16  11
TORSDOF 9
ENDMDL
MODEL 5
REMARK VINA RESULT:      -6.6     17.786     21.632
REMARK  Name = 45783631
REMARK  10 active torsions:
REMARK  status: ('A' for Active; 'I' for Inactive)
REMARK    1  A    between atoms: O_3  and  C_23
REMARK    2  A    between atoms: O_4  and  C_29
REMARK    3  A    between atoms: O_4  and  C_30
REMARK    4  A    between atoms: N_6  and  C_15
REMARK    5  A    between atoms: N_10  and  C_27
REMARK    6  A    between atoms: C_11  and  C_16
REMARK    7  A    between atoms: C_15  and  C_17
REMARK    8  A    between atoms: C_19  and  C_22
REMARK    9  A    between atoms: C_20  and  C_23
REMARK   10  A    between atoms: C_28  and  C_29
REMARK                            x       y       z     vdW  Elec       q    Type
REMARK                         _______ _______ _______ _____ _____    ______ ____
ROOT
ATOM      1  O   UNL     1      10.828   6.886  -1.657  0.00  0.00    -0.336 OA
ATOM      7  N   UNL     1      10.922   5.131  -0.267  0.00  0.00    -0.190 NA
ATOM      8  N   UNL     1      10.628   7.398  -0.368  0.00  0.00    -0.056 NA
ATOM     16  C   UNL     1      10.992   5.545  -1.507  0.00  0.00    +0.245 A 
ATOM     19  C   UNL     1      10.697   6.303   0.395  0.00  0.00    +0.204 A 
ENDROOT
BRANCH  19  22
ATOM      9  N   UNL     1      11.362   5.712   4.006  0.00  0.00    -0.239 NA
ATOM     22  C   UNL     1      10.544   6.346   1.821  0.00  0.00    +0.041 A 
ATOM     24  C   UNL     1       9.484   7.028   2.407  0.00  0.00    +0.016 A 
ATOM     25  C   UNL     1      11.448   5.710   2.656  0.00  0.00    +0.124 A 
ATOM     26  C   UNL     1       9.361   7.053   3.793  0.00  0.00    +0.044 A 
ATOM     27  C   UNL     1      10.318   6.385   4.540  0.00  0.00    +0.125 A 
BRANCH  27  10
ATOM      5  O   UNL     1       9.792   4.164   6.501  0.00  0.00    -0.273 OA
ATOM     10  N   UNL     1      10.185   6.416   5.933  0.00  0.00    -0.268 N 
ATOM     28  C   UNL     1       9.940   5.346   6.799  0.00  0.00    +0.244 C 
ATOM     32  H   UNL     1      10.283   7.341   6.343  0.00  0.00    +0.156 HD
BRANCH  28  29
ATOM     29  C   UNL     1       9.855   5.790   8.243  0.00  0.00    +0.255 C 
BRANCH  29   4
ATOM      4  O   UNL     1      10.073   4.672   9.078  0.00  0.00    -0.374 OA
ATOM     30  C   UNL     1       9.118   4.603  10.132  0.00  0.00    +0.194 C 
ENDBRANCH  29   4
ENDBRANCH  28  29
ENDBRANCH  27  10
ENDBRANCH  19  22
BRANCH  16  11
ATOM      6  N   UNL     1      12.375   3.825  -2.656  0.00  0.00    -0.284 NA
ATOM     11  C   UNL     1      11.228   4.748  -2.773  0.00  0.00    +0.146 C 
ATOM     12  C   UNL     1      10.035   3.847  -3.140  0.00  0.00    +0.030 C 
ATOM     13  C   UNL     1      10.619   2.447  -3.267  0.00  0.00    +0.017 C 
ATOM     14  C   UNL     1      12.088   2.696  -3.543  0.00  0.00    +0.085 C 
BRANCH   6  15
ATOM     15  C   UNL     1      13.653   4.453  -2.964  0.00  0.00    +0.159 C 
BRANCH  15  17
ATOM      2  O   UNL     1      14.064   4.195  -0.579  0.00  0.00    -0.461 OA
ATOM     17  C   UNL     1      14.615   4.363  -1.810  0.00  0.00    +0.119 A 
ATOM     18  C   UNL     1      15.987   4.417  -1.721  0.00  0.00    +0.046 A 
ATOM     20  C   UNL     1      15.095   4.141   0.304  0.00  0.00    +0.131 A 
ATOM     21  C   UNL     1      16.298   4.273  -0.348  0.00  0.00    +0.047 A 
BRANCH  20  23
ATOM     23  C   UNL     1      14.731   3.959   1.717  0.00  0.00    +0.230 C 
BRANCH  23   3
ATOM      3  O   UNL     1      15.618   3.026   2.340  0.00  0.00    -0.387 OA
ATOM     31  H   UNL     1      16.427   3.001   1.802  0.00  0.00    +0.210 HD
ENDBRANCH  23   3
ENDBRANCH  20  23
ENDBRANCH  15  17
ENDBRANCH   6  15
ENDBRANCH  16  11
TORSDOF 9
ENDMDL
MODEL 6
REMARK VINA RESULT:      -6.5     26.955     31.226
REMARK  Name = 45783631
REMARK  10 active torsions:
REMARK  status: ('A' for Active; 'I' for Inactive)
REMARK    1  A    between atoms: O_3  and  C_23
REMARK    2  A    between atoms: O_4  and  C_29
REMARK    3  A    between atoms: O_4  and  C_30
REMARK    4  A    between atoms: N_6  and  C_15
REMARK    5  A    between atoms: N_10  and  C_27
REMARK    6  A    between atoms: C_11  and  C_16
REMARK    7  A    between atoms: C_15  and  C_17
REMARK    8  A    between atoms: C_19  and  C_22
REMARK    9  A    between atoms: C_20  and  C_23
REMARK   10  A    between atoms: C_28  and  C_29
REMARK                            x       y       z     vdW  Elec       q    Type
REMARK                         _______ _______ _______ _____ _____    ______ ____
ROOT
ATOM      1  O   UNL     1      -5.582  -9.507  15.838  0.00  0.00    -0.336 OA
ATOM      7  N   UNL     1      -6.037 -11.234  17.191  0.00  0.00    -0.190 NA
ATOM      8  N   UNL     1      -6.798  -9.203  16.465  0.00  0.00    -0.056 NA
ATOM     16  C   UNL     1      -5.204 -10.720  16.322  0.00  0.00    +0.245 A 
ATOM     19  C   UNL     1      -6.999 -10.268  17.246  0.00  0.00    +0.204 A 
ENDROOT
BRANCH  19  22
ATOM      9  N   UNL     1      -9.173 -11.373  20.054  0.00  0.00    -0.239 NA
ATOM     22  C   UNL     1      -8.150 -10.398  18.092  0.00  0.00    +0.041 A 
ATOM     24  C   UNL     1      -9.327  -9.714  17.808  0.00  0.00    +0.016 A 
ATOM     25  C   UNL     1      -8.124 -11.207  19.216  0.00  0.00    +0.124 A 
ATOM     26  C   UNL     1     -10.428  -9.859  18.647  0.00  0.00    +0.044 A 
ATOM     27  C   UNL     1     -10.300 -10.693  19.746  0.00  0.00    +0.125 A 
BRANCH  27  10
ATOM      5  O   UNL     1     -12.289 -12.938  19.993  0.00  0.00    -0.273 OA
ATOM     10  N   UNL     1     -11.414 -10.832  20.583  0.00  0.00    -0.268 N 
ATOM     28  C   UNL     1     -12.308 -11.904  20.655  0.00  0.00    +0.244 C 
ATOM     32  H   UNL     1     -11.572 -10.043  21.205  0.00  0.00    +0.156 HD
BRANCH  28  29
ATOM     29  C   UNL     1     -13.392 -11.672  21.686  0.00  0.00    +0.255 C 
BRANCH  29   4
ATOM      4  O   UNL     1     -13.509 -12.826  22.492  0.00  0.00    -0.374 OA
ATOM     30  C   UNL     1     -13.820 -12.500  23.843  0.00  0.00    +0.194 C 
ENDBRANCH  29   4
ENDBRANCH  28  29
ENDBRANCH  27  10
ENDBRANCH  19  22
BRANCH  16  11
ATOM      6  N   UNL     1      -3.492 -10.661  14.516  0.00  0.00    -0.284 NA
ATOM     11  C   UNL     1      -3.901 -11.281  15.793  0.00  0.00    +0.146 C 
ATOM     12  C   UNL     1      -2.716 -11.035  16.745  0.00  0.00    +0.030 C 
ATOM     13  C   UNL     1      -1.668 -10.325  15.900  0.00  0.00    +0.017 C 
ATOM     14  C   UNL     1      -2.030 -10.714  14.482  0.00  0.00    +0.085 C 
BRANCH   6  15
ATOM     15  C   UNL     1      -4.092 -11.295  13.351  0.00  0.00    +0.159 C 
BRANCH  15  17
ATOM      2  O   UNL     1      -4.861  -9.676  11.704  0.00  0.00    -0.461 OA
ATOM     17  C   UNL     1      -3.854 -10.501  12.095  0.00  0.00    +0.119 A 
ATOM     18  C   UNL     1      -2.797 -10.421  11.217  0.00  0.00    +0.046 A 
ATOM     20  C   UNL     1      -4.443  -9.064  10.565  0.00  0.00    +0.131 A 
ATOM     21  C   UNL     1      -3.180  -9.489  10.223  0.00  0.00    +0.047 A 
BRANCH  20  23
ATOM     23  C   UNL     1      -5.383  -8.113   9.956  0.00  0.00    +0.230 C 
BRANCH  23   3
ATOM      3  O   UNL     1      -5.632  -8.468   8.593  0.00  0.00    -0.387 OA
ATOM     31  H   UNL     1      -5.890  -9.404   8.587  0.00  0.00    +0.210 HD
ENDBRANCH  23   3
ENDBRANCH  20  23
ENDBRANCH  15  17
ENDBRANCH   6  15
ENDBRANCH  16  11
TORSDOF 9
ENDMDL
MODEL 7
REMARK VINA RESULT:      -6.5     28.457     32.925
REMARK  Name = 45783631
REMARK  10 active torsions:
REMARK  status: ('A' for Active; 'I' for Inactive)
REMARK    1  A    between atoms: O_3  and  C_23
REMARK    2  A    between atoms: O_4  and  C_29
REMARK    3  A    between atoms: O_4  and  C_30
REMARK    4  A    between atoms: N_6  and  C_15
REMARK    5  A    between atoms: N_10  and  C_27
REMARK    6  A    between atoms: C_11  and  C_16
REMARK    7  A    between atoms: C_15  and  C_17
REMARK    8  A    between atoms: C_19  and  C_22
REMARK    9  A    between atoms: C_20  and  C_23
REMARK   10  A    between atoms: C_28  and  C_29
REMARK                            x       y       z     vdW  Elec       q    Type
REMARK                         _______ _______ _______ _____ _____    ______ ____
ROOT
ATOM      1  O   UNL     1     -16.643   2.368  23.892  0.00  0.00    -0.336 OA
ATOM      7  N   UNL     1     -15.239   3.970  24.585  0.00  0.00    -0.190 NA
ATOM      8  N   UNL     1     -16.251   3.067  22.743  0.00  0.00    -0.056 NA
ATOM     16  C   UNL     1     -16.002   2.964  24.931  0.00  0.00    +0.245 A 
ATOM     19  C   UNL     1     -15.424   3.995  23.233  0.00  0.00    +0.204 A 
ENDROOT
BRANCH  19  22
ATOM      9  N   UNL     1     -12.708   5.962  21.627  0.00  0.00    -0.239 NA
ATOM     22  C   UNL     1     -14.768   4.961  22.400  0.00  0.00    +0.041 A 
ATOM     24  C   UNL     1     -15.499   5.813  21.580  0.00  0.00    +0.016 A 
ATOM     25  C   UNL     1     -13.388   5.074  22.387  0.00  0.00    +0.124 A 
ATOM     26  C   UNL     1     -14.836   6.741  20.783  0.00  0.00    +0.044 A 
ATOM     27  C   UNL     1     -13.452   6.774  20.843  0.00  0.00    +0.125 A 
BRANCH  27  10
ATOM      5  O   UNL     1     -12.496   9.559  21.468  0.00  0.00    -0.273 OA
ATOM     10  N   UNL     1     -12.795   7.712  20.037  0.00  0.00    -0.268 N 
ATOM     28  C   UNL     1     -12.371   8.998  20.382  0.00  0.00    +0.244 C 
ATOM     32  H   UNL     1     -12.614   7.395  19.087  0.00  0.00    +0.156 HD
BRANCH  28  29
ATOM     29  C   UNL     1     -11.703   9.708  19.224  0.00  0.00    +0.255 C 
BRANCH  29   4
ATOM      4  O   UNL     1     -10.491   9.048  18.924  0.00  0.00    -0.374 OA
ATOM     30  C   UNL     1     -10.104   9.241  17.567  0.00  0.00    +0.194 C 
ENDBRANCH  29   4
ENDBRANCH  28  29
ENDBRANCH  27  10
ENDBRANCH  19  22
BRANCH  16  11
ATOM      6  N   UNL     1     -17.308   3.124  27.043  0.00  0.00    -0.284 NA
ATOM     11  C   UNL     1     -16.263   2.386  26.306  0.00  0.00    +0.146 C 
ATOM     12  C   UNL     1     -16.772   0.934  26.254  0.00  0.00    +0.030 C 
ATOM     13  C   UNL     1     -18.076   0.941  27.039  0.00  0.00    +0.017 C 
ATOM     14  C   UNL     1     -17.945   2.155  27.936  0.00  0.00    +0.085 C 
BRANCH   6  15
ATOM     15  C   UNL     1     -16.794   4.280  27.766  0.00  0.00    +0.159 C 
BRANCH  15  17
ATOM      2  O   UNL     1     -15.124   3.366  29.282  0.00  0.00    -0.461 OA
ATOM     17  C   UNL     1     -16.359   3.921  29.161  0.00  0.00    +0.119 A 
ATOM     18  C   UNL     1     -16.959   4.035  30.394  0.00  0.00    +0.046 A 
ATOM     20  C   UNL     1     -14.935   3.123  30.605  0.00  0.00    +0.131 A 
ATOM     21  C   UNL     1     -16.035   3.516  31.332  0.00  0.00    +0.047 A 
BRANCH  20  23
ATOM     23  C   UNL     1     -13.648   2.516  30.977  0.00  0.00    +0.230 C 
BRANCH  23   3
ATOM      3  O   UNL     1     -13.068   1.856  29.849  0.00  0.00    -0.387 OA
ATOM     31  H   UNL     1     -12.512   2.510  29.393  0.00  0.00    +0.210 HD
ENDBRANCH  23   3
ENDBRANCH  20  23
ENDBRANCH  15  17
ENDBRANCH   6  15
ENDBRANCH  16  11
TORSDOF 9
ENDMDL
MODEL 8
REMARK VINA RESULT:      -6.5      3.093      9.581
REMARK  Name = 45783631
REMARK  10 active torsions:
REMARK  status: ('A' for Active; 'I' for Inactive)
REMARK    1  A    between atoms: O_3  and  C_23
REMARK    2  A    between atoms: O_4  and  C_29
REMARK    3  A    between atoms: O_4  and  C_30
REMARK    4  A    between atoms: N_6  and  C_15
REMARK    5  A    between atoms: N_10  and  C_27
REMARK    6  A    between atoms: C_11  and  C_16
REMARK    7  A    between atoms: C_15  and  C_17
REMARK    8  A    between atoms: C_19  and  C_22
REMARK    9  A    between atoms: C_20  and  C_23
REMARK   10  A    between atoms: C_28  and  C_29
REMARK                            x       y       z     vdW  Elec       q    Type
REMARK                         _______ _______ _______ _____ _____    ______ ____
ROOT
ATOM      1  O   UNL     1      22.138   7.029  22.529  0.00  0.00    -0.336 OA
ATOM      7  N   UNL     1      20.606   5.434  22.171  0.00  0.00    -0.190 NA
ATOM      8  N   UNL     1      21.076   7.651  21.860  0.00  0.00    -0.056 NA
ATOM     16  C   UNL     1      21.780   5.726  22.671  0.00  0.00    +0.245 A 
ATOM     19  C   UNL     1      20.212   6.646  21.683  0.00  0.00    +0.204 A 
ENDROOT
BRANCH  19  22
ATOM      9  N   UNL     1      16.940   8.131  20.724  0.00  0.00    -0.239 NA
ATOM     22  C   UNL     1      18.950   6.821  21.024  0.00  0.00    +0.041 A 
ATOM     24  C   UNL     1      18.503   5.903  20.081  0.00  0.00    +0.016 A 
ATOM     25  C   UNL     1      18.140   7.908  21.309  0.00  0.00    +0.124 A 
ATOM     26  C   UNL     1      17.274   6.098  19.458  0.00  0.00    +0.044 A 
ATOM     27  C   UNL     1      16.538   7.218  19.813  0.00  0.00    +0.125 A 
BRANCH  27  10
ATOM      5  O   UNL     1      13.746   6.627  20.767  0.00  0.00    -0.273 OA
ATOM     10  N   UNL     1      15.303   7.404  19.180  0.00  0.00    -0.268 N 
ATOM     28  C   UNL     1      14.029   7.110  19.675  0.00  0.00    +0.244 C 
ATOM     32  H   UNL     1      15.366   7.803  18.247  0.00  0.00    +0.156 HD
BRANCH  28  29
ATOM     29  C   UNL     1      12.940   7.450  18.680  0.00  0.00    +0.255 C 
BRANCH  29   4
ATOM      4  O   UNL     1      11.685   7.315  19.314  0.00  0.00    -0.374 OA
ATOM     30  C   UNL     1      11.140   8.577  19.685  0.00  0.00    +0.194 C 
ENDBRANCH  29   4
ENDBRANCH  28  29
ENDBRANCH  27  10
ENDBRANCH  19  22
BRANCH  16  11
ATOM      6  N   UNL     1      22.423   4.591  24.790  0.00  0.00    -0.284 NA
ATOM     11  C   UNL     1      22.774   4.825  23.375  0.00  0.00    +0.146 C 
ATOM     12  C   UNL     1      22.848   3.420  22.752  0.00  0.00    +0.030 C 
ATOM     13  C   UNL     1      22.587   2.459  23.903  0.00  0.00    +0.017 C 
ATOM     14  C   UNL     1      22.950   3.268  25.131  0.00  0.00    +0.085 C 
BRANCH   6  15
ATOM     15  C   UNL     1      22.921   5.627  25.685  0.00  0.00    +0.159 C 
BRANCH  15  17
ATOM      2  O   UNL     1      21.482   6.103  27.589  0.00  0.00    -0.461 OA
ATOM     17  C   UNL     1      21.800   6.417  26.306  0.00  0.00    +0.119 A 
ATOM     18  C   UNL     1      20.993   7.430  25.842  0.00  0.00    +0.046 A 
ATOM     20  C   UNL     1      20.460   6.924  27.948  0.00  0.00    +0.131 A 
ATOM     21  C   UNL     1      20.122   7.759  26.908  0.00  0.00    +0.047 A 
BRANCH  20  23
ATOM     23  C   UNL     1      19.945   6.761  29.315  0.00  0.00    +0.230 C 
BRANCH  23   3
ATOM      3  O   UNL     1      19.196   5.548  29.421  0.00  0.00    -0.387 OA
ATOM     31  H   UNL     1      18.642   5.488  28.625  0.00  0.00    +0.210 HD
ENDBRANCH  23   3
ENDBRANCH  20  23
ENDBRANCH  15  17
ENDBRANCH   6  15
ENDBRANCH  16  11
TORSDOF 9
ENDMDL
MODEL 9
REMARK VINA RESULT:      -6.5     26.456     30.675
REMARK  Name = 45783631
REMARK  10 active torsions:
REMARK  status: ('A' for Active; 'I' for Inactive)
REMARK    1  A    between atoms: O_3  and  C_23
REMARK    2  A    between atoms: O_4  and  C_29
REMARK    3  A    between atoms: O_4  and  C_30
REMARK    4  A    between atoms: N_6  and  C_15
REMARK    5  A    between atoms: N_10  and  C_27
REMARK    6  A    between atoms: C_11  and  C_16
REMARK    7  A    between atoms: C_15  and  C_17
REMARK    8  A    between atoms: C_19  and  C_22
REMARK    9  A    between atoms: C_20  and  C_23
REMARK   10  A    between atoms: C_28  and  C_29
REMARK                            x       y       z     vdW  Elec       q    Type
REMARK                         _______ _______ _______ _____ _____    ______ ____
ROOT
ATOM      1  O   UNL     1      -4.711 -11.310  17.304  0.00  0.00    -0.336 OA
ATOM      7  N   UNL     1      -5.471 -10.233  15.492  0.00  0.00    -0.190 NA
ATOM      8  N   UNL     1      -6.018 -10.907  17.609  0.00  0.00    -0.056 NA
ATOM     16  C   UNL     1      -4.469 -10.872  16.040  0.00  0.00    +0.245 A 
ATOM     19  C   UNL     1      -6.398 -10.279  16.492  0.00  0.00    +0.204 A 
ENDROOT
BRANCH  19  22
ATOM      9  N   UNL     1      -9.551  -8.500  17.344  0.00  0.00    -0.239 NA
ATOM     22  C   UNL     1      -7.696  -9.686  16.345  0.00  0.00    +0.041 A 
ATOM     24  C   UNL     1      -8.358  -9.708  15.122  0.00  0.00    +0.016 A 
ATOM     25  C   UNL     1      -8.329  -9.076  17.415  0.00  0.00    +0.124 A 
ATOM     26  C   UNL     1      -9.617  -9.125  15.009  0.00  0.00    +0.044 A 
ATOM     27  C   UNL     1     -10.164  -8.540  16.139  0.00  0.00    +0.125 A 
BRANCH  27  10
ATOM      5  O   UNL     1     -10.963  -5.777  15.256  0.00  0.00    -0.273 OA
ATOM     10  N   UNL     1     -11.431  -7.957  16.014  0.00  0.00    -0.268 N 
ATOM     28  C   UNL     1     -11.744  -6.661  15.596  0.00  0.00    +0.244 C 
ATOM     32  H   UNL     1     -12.202  -8.572  16.264  0.00  0.00    +0.156 HD
BRANCH  28  29
ATOM     29  C   UNL     1     -13.237  -6.406  15.602  0.00  0.00    +0.255 C 
BRANCH  29   4
ATOM      4  O   UNL     1     -13.580  -5.677  14.443  0.00  0.00    -0.374 OA
ATOM     30  C   UNL     1     -14.910  -5.954  14.016  0.00  0.00    +0.194 C 
ENDBRANCH  29   4
ENDBRANCH  28  29
ENDBRANCH  27  10
ENDBRANCH  19  22
BRANCH  16  11
ATOM      6  N   UNL     1      -2.866 -10.525  14.168  0.00  0.00    -0.284 NA
ATOM     11  C   UNL     1      -3.102 -11.186  15.468  0.00  0.00    +0.146 C 
ATOM     12  C   UNL     1      -1.953 -10.700  16.369  0.00  0.00    +0.030 C 
ATOM     13  C   UNL     1      -1.090  -9.820  15.475  0.00  0.00    +0.017 C 
ATOM     14  C   UNL     1      -1.423 -10.299  14.077  0.00  0.00    +0.085 C 
BRANCH   6  15
ATOM     15  C   UNL     1      -3.375 -11.285  13.035  0.00  0.00    +0.159 C 
BRANCH  15  17
ATOM      2  O   UNL     1      -4.816  -9.816  11.735  0.00  0.00    -0.461 OA
ATOM     17  C   UNL     1      -3.599 -10.412  11.829  0.00  0.00    +0.119 A 
ATOM     18  C   UNL     1      -2.810 -10.070  10.755  0.00  0.00    +0.046 A 
ATOM     20  C   UNL     1      -4.804  -9.086  10.589  0.00  0.00    +0.131 A 
ATOM     21  C   UNL     1      -3.593  -9.209   9.949  0.00  0.00    +0.047 A 
BRANCH  20  23
ATOM     23  C   UNL     1      -6.035  -8.344  10.278  0.00  0.00    +0.230 C 
BRANCH  23   3
ATOM      3  O   UNL     1      -5.910  -7.686   9.015  0.00  0.00    -0.387 OA
ATOM     31  H   UNL     1      -5.365  -8.259   8.450  0.00  0.00    +0.210 HD
ENDBRANCH  23   3
ENDBRANCH  20  23
ENDBRANCH  15  17
ENDBRANCH   6  15
ENDBRANCH  16  11
TORSDOF 9
ENDMDL
MODEL 10
REMARK VINA RESULT:      -6.3     15.929     19.818
REMARK  Name = 45783631
REMARK  10 active torsions:
REMARK  status: ('A' for Active; 'I' for Inactive)
REMARK    1  A    between atoms: O_3  and  C_23
REMARK    2  A    between atoms: O_4  and  C_29
REMARK    3  A    between atoms: O_4  and  C_30
REMARK    4  A    between atoms: N_6  and  C_15
REMARK    5  A    between atoms: N_10  and  C_27
REMARK    6  A    between atoms: C_11  and  C_16
REMARK    7  A    between atoms: C_15  and  C_17
REMARK    8  A    between atoms: C_19  and  C_22
REMARK    9  A    between atoms: C_20  and  C_23
REMARK   10  A    between atoms: C_28  and  C_29
REMARK                            x       y       z     vdW  Elec       q    Type
REMARK                         _______ _______ _______ _____ _____    ______ ____
ROOT
ATOM      1  O   UNL     1      11.894   9.550   3.822  0.00  0.00    -0.336 OA
ATOM      7  N   UNL     1      10.410   7.874   3.911  0.00  0.00    -0.190 NA
ATOM      8  N   UNL     1      12.166   8.729   2.720  0.00  0.00    -0.056 NA
ATOM     16  C   UNL     1      10.847   8.974   4.470  0.00  0.00    +0.245 A 
ATOM     19  C   UNL     1      11.250   7.764   2.841  0.00  0.00    +0.204 A 
ENDROOT
BRANCH  19  22
ATOM      9  N   UNL     1      12.073   4.629   1.018  0.00  0.00    -0.239 NA
ATOM     22  C   UNL     1      11.148   6.676   1.912  0.00  0.00    +0.041 A 
ATOM     24  C   UNL     1      10.080   6.590   1.025  0.00  0.00    +0.016 A 
ATOM     25  C   UNL     1      12.110   5.680   1.869  0.00  0.00    +0.124 A 
ATOM     26  C   UNL     1      10.008   5.523   0.135  0.00  0.00    +0.044 A 
ATOM     27  C   UNL     1      11.021   4.579   0.171  0.00  0.00    +0.125 A 
BRANCH  27  10
ATOM      5  O   UNL     1      12.227   4.233  -2.565  0.00  0.00    -0.273 OA
ATOM     10  N   UNL     1      10.939   3.510  -0.730  0.00  0.00    -0.268 N 
ATOM     28  C   UNL     1      11.523   3.403  -1.995  0.00  0.00    +0.244 C 
ATOM     32  H   UNL     1      10.379   2.727  -0.401  0.00  0.00    +0.156 HD
BRANCH  28  29
ATOM     29  C   UNL     1      11.191   2.088  -2.666  0.00  0.00    +0.255 C 
BRANCH  29   4
ATOM      4  O   UNL     1       9.790   1.995  -2.819  0.00  0.00    -0.374 OA
ATOM     30  C   UNL     1       9.331   2.721  -3.955  0.00  0.00    +0.194 C 
ENDBRANCH  29   4
ENDBRANCH  28  29
ENDBRANCH  27  10
ENDBRANCH  19  22
BRANCH  16  11
ATOM      6  N   UNL     1      10.299   8.784   6.890  0.00  0.00    -0.284 NA
ATOM     11  C   UNL     1      10.354   9.679   5.716  0.00  0.00    +0.146 C 
ATOM     12  C   UNL     1      11.273  10.836   6.149  0.00  0.00    +0.030 C 
ATOM     13  C   UNL     1      11.636  10.537   7.596  0.00  0.00    +0.017 C 
ATOM     14  C   UNL     1      10.515   9.631   8.064  0.00  0.00    +0.085 C 
BRANCH   6  15
ATOM     15  C   UNL     1       9.057   8.029   6.980  0.00  0.00    +0.159 C 
BRANCH  15  17
ATOM      2  O   UNL     1       9.032   6.266   8.657  0.00  0.00    -0.461 OA
ATOM     17  C   UNL     1       9.299   6.595   7.366  0.00  0.00    +0.119 A 
ATOM     18  C   UNL     1       9.751   5.496   6.672  0.00  0.00    +0.046 A 
ATOM     20  C   UNL     1       9.317   4.943   8.788  0.00  0.00    +0.131 A 
ATOM     21  C   UNL     1       9.763   4.424   7.596  0.00  0.00    +0.047 A 
BRANCH  20  23
ATOM     23  C   UNL     1       9.099   4.361  10.121  0.00  0.00    +0.230 C 
BRANCH  23   3
ATOM      3  O   UNL     1      10.236   4.595  10.955  0.00  0.00    -0.387 OA
ATOM     31  H   UNL     1      10.440   5.543  10.896  0.00  0.00    +0.210 HD
ENDBRANCH  23   3
ENDBRANCH  20  23
ENDBRANCH  15  17
ENDBRANCH   6  15
ENDBRANCH  16  11
TORSDOF 9
ENDMDL
