MODEL 1
REMARK VINA RESULT:      -7.6      0.000      0.000
REMARK  Name = 45783285
REMARK  6 active torsions:
REMARK  status: ('A' for Active; 'I' for Inactive)
REMARK    1  A    between atoms: O_3  and  C_32
REMARK    2  A    between atoms: N_5  and  C_14
REMARK    3  A    between atoms: C_10  and  C_15
REMARK    4  A    between atoms: C_14  and  C_16
REMARK    5  A    between atoms: C_17  and  C_22
REMARK    6  A    between atoms: C_29  and  C_32
REMARK                            x       y       z     vdW  Elec       q    Type
REMARK                         _______ _______ _______ _____ _____    ______ ____
ROOT
ATOM      1  O   UNL     1     -17.673   5.142  31.228  0.00  0.00    -0.336 OA
ATOM      6  N   UNL     1     -15.823   4.401  30.207  0.00  0.00    -0.190 NA
ATOM      8  N   UNL     1     -18.109   4.354  30.156  0.00  0.00    -0.056 NA
ATOM     15  C   UNL     1     -16.315   5.117  31.186  0.00  0.00    +0.245 A 
ATOM     17  C   UNL     1     -16.961   3.953  29.602  0.00  0.00    +0.202 A 
ENDROOT
BRANCH  17  22
ATOM      2  O   UNL     1     -16.171   4.303  22.209  0.00  0.00    -0.377 OA
ATOM      7  N   UNL     1     -16.604   3.373  24.825  0.00  0.00    -0.311 N 
ATOM      9  N   UNL     1     -16.829   1.454  26.192  0.00  0.00    -0.240 NA
ATOM     20  C   UNL     1     -15.422   4.185  24.514  0.00  0.00    +0.134 C 
ATOM     21  C   UNL     1     -17.202   2.673  23.679  0.00  0.00    +0.134 C 
ATOM     22  C   UNL     1     -16.917   3.105  28.446  0.00  0.00    +0.027 A 
ATOM     23  C   UNL     1     -16.741   2.799  26.093  0.00  0.00    +0.122 A 
ATOM     24  C   UNL     1     -15.714   5.081  23.316  0.00  0.00    +0.178 C 
ATOM     25  C   UNL     1     -17.399   3.651  22.526  0.00  0.00    +0.178 C 
ATOM     26  C   UNL     1     -16.780   3.660  27.179  0.00  0.00    +0.055 A 
ATOM     30  C   UNL     1     -17.012   1.725  28.587  0.00  0.00    +0.031 A 
ATOM     31  C   UNL     1     -16.963   0.951  27.439  0.00  0.00    +0.113 A 
ENDBRANCH  17  22
BRANCH  15  10
ATOM      5  N   UNL     1     -14.150   5.589  32.318  0.00  0.00    -0.287 NA
ATOM     10  C   UNL     1     -15.591   5.906  32.257  0.00  0.00    +0.146 C 
ATOM     11  C   UNL     1     -15.648   7.425  32.017  0.00  0.00    +0.030 C 
ATOM     12  C   UNL     1     -14.196   7.882  32.020  0.00  0.00    +0.017 C 
ATOM     13  C   UNL     1     -13.482   6.798  32.800  0.00  0.00    +0.085 C 
BRANCH   5  14
ATOM     14  C   UNL     1     -13.852   4.429  33.149  0.00  0.00    +0.120 C 
BRANCH  14  16
ATOM     16  C   UNL     1     -14.017   3.139  32.392  0.00  0.00    -0.033 A 
ATOM     18  C   UNL     1     -13.382   2.966  31.163  0.00  0.00    +0.006 A 
ATOM     19  C   UNL     1     -14.804   2.115  32.920  0.00  0.00    +0.006 A 
ATOM     27  C   UNL     1     -13.533   1.770  30.461  0.00  0.00    +0.015 A 
ATOM     28  C   UNL     1     -14.956   0.919  32.218  0.00  0.00    +0.015 A 
ATOM     29  C   UNL     1     -14.321   0.747  30.989  0.00  0.00    +0.059 A 
BRANCH  29  32
ATOM      4  O   UNL     1     -13.786  -0.864  29.302  0.00  0.00    -0.245 OA
ATOM     32  C   UNL     1     -14.479  -0.501  30.259  0.00  0.00    +0.337 C 
BRANCH  32   3
ATOM      3  O   UNL     1     -15.498  -1.263  30.743  0.00  0.00    -0.477 OA
ATOM     33  H   UNL     1     -16.371  -0.846  30.587  0.00  0.00    +0.295 HD
ENDBRANCH  32   3
ENDBRANCH  29  32
ENDBRANCH  14  16
ENDBRANCH   5  14
ENDBRANCH  15  10
TORSDOF 6
ENDMDL
MODEL 2
REMARK VINA RESULT:      -7.5     31.353     33.047
REMARK  Name = 45783285
REMARK  6 active torsions:
REMARK  status: ('A' for Active; 'I' for Inactive)
REMARK    1  A    between atoms: O_3  and  C_32
REMARK    2  A    between atoms: N_5  and  C_14
REMARK    3  A    between atoms: C_10  and  C_15
REMARK    4  A    between atoms: C_14  and  C_16
REMARK    5  A    between atoms: C_17  and  C_22
REMARK    6  A    between atoms: C_29  and  C_32
REMARK                            x       y       z     vdW  Elec       q    Type
REMARK                         _______ _______ _______ _____ _____    ______ ____
ROOT
ATOM      1  O   UNL     1      16.076  12.120  22.083  0.00  0.00    -0.336 OA
ATOM      6  N   UNL     1      15.026  10.166  22.395  0.00  0.00    -0.190 NA
ATOM      8  N   UNL     1      16.909  11.137  21.532  0.00  0.00    -0.056 NA
ATOM     15  C   UNL     1      14.990  11.463  22.569  0.00  0.00    +0.245 A 
ATOM     17  C   UNL     1      16.221  10.013  21.755  0.00  0.00    +0.202 A 
ENDROOT
BRANCH  17  22
ATOM      2  O   UNL     1      22.288   5.720  22.160  0.00  0.00    -0.377 OA
ATOM      7  N   UNL     1      19.739   6.718  21.525  0.00  0.00    -0.311 N 
ATOM      9  N   UNL     1      17.637   6.208  20.566  0.00  0.00    -0.240 NA
ATOM     20  C   UNL     1      20.186   6.662  22.922  0.00  0.00    +0.134 C 
ATOM     21  C   UNL     1      20.423   5.793  20.611  0.00  0.00    +0.134 C 
ATOM     22  C   UNL     1      16.701   8.723  21.351  0.00  0.00    +0.027 A 
ATOM     23  C   UNL     1      18.423   7.086  21.230  0.00  0.00    +0.122 A 
ATOM     24  C   UNL     1      21.708   6.735  22.979  0.00  0.00    +0.178 C 
ATOM     25  C   UNL     1      21.933   5.913  20.792  0.00  0.00    +0.178 C 
ATOM     26  C   UNL     1      18.007   8.343  21.639  0.00  0.00    +0.055 A 
ATOM     30  C   UNL     1      15.863   7.848  20.670  0.00  0.00    +0.031 A 
ATOM     31  C   UNL     1      16.374   6.613  20.303  0.00  0.00    +0.113 A 
ENDBRANCH  17  22
BRANCH  15  10
ATOM      5  N   UNL     1      12.608  11.645  23.264  0.00  0.00    -0.287 NA
ATOM     10  C   UNL     1      13.923  12.314  23.225  0.00  0.00    +0.146 C 
ATOM     11  C   UNL     1      14.242  12.637  24.696  0.00  0.00    +0.030 C 
ATOM     12  C   UNL     1      13.024  12.169  25.479  0.00  0.00    +0.017 C 
ATOM     13  C   UNL     1      11.916  12.163  24.445  0.00  0.00    +0.085 C 
BRANCH   5  14
ATOM     14  C   UNL     1      11.831  11.834  22.046  0.00  0.00    +0.120 C 
BRANCH  14  16
ATOM     16  C   UNL     1      11.893  10.629  21.147  0.00  0.00    -0.033 A 
ATOM     18  C   UNL     1      12.651  10.672  19.977  0.00  0.00    +0.006 A 
ATOM     19  C   UNL     1      11.195   9.470  21.484  0.00  0.00    +0.006 A 
ATOM     27  C   UNL     1      12.711   9.555  19.144  0.00  0.00    +0.015 A 
ATOM     28  C   UNL     1      11.253   8.353  20.650  0.00  0.00    +0.015 A 
ATOM     29  C   UNL     1      12.011   8.395  19.480  0.00  0.00    +0.059 A 
BRANCH  29  32
ATOM      4  O   UNL     1      12.097   7.257  17.377  0.00  0.00    -0.245 OA
ATOM     32  C   UNL     1      12.073   7.230  18.612  0.00  0.00    +0.337 C 
BRANCH  32   3
ATOM      3  O   UNL     1      12.105   6.061  19.310  0.00  0.00    -0.477 OA
ATOM     33  H   UNL     1      12.181   6.214  20.275  0.00  0.00    +0.295 HD
ENDBRANCH  32   3
ENDBRANCH  29  32
ENDBRANCH  14  16
ENDBRANCH   5  14
ENDBRANCH  15  10
TORSDOF 6
ENDMDL
MODEL 3
REMARK VINA RESULT:      -7.5      3.605      9.718
REMARK  Name = 45783285
REMARK  6 active torsions:
REMARK  status: ('A' for Active; 'I' for Inactive)
REMARK    1  A    between atoms: O_3  and  C_32
REMARK    2  A    between atoms: N_5  and  C_14
REMARK    3  A    between atoms: C_10  and  C_15
REMARK    4  A    between atoms: C_14  and  C_16
REMARK    5  A    between atoms: C_17  and  C_22
REMARK    6  A    between atoms: C_29  and  C_32
REMARK                            x       y       z     vdW  Elec       q    Type
REMARK                         _______ _______ _______ _____ _____    ______ ____
ROOT
ATOM      1  O   UNL     1     -16.989   2.572  22.458  0.00  0.00    -0.336 OA
ATOM      6  N   UNL     1     -17.064   3.602  24.446  0.00  0.00    -0.190 NA
ATOM      8  N   UNL     1     -17.190   1.566  23.411  0.00  0.00    -0.056 NA
ATOM     15  C   UNL     1     -16.926   3.739  23.151  0.00  0.00    +0.245 A 
ATOM     17  C   UNL     1     -17.223   2.252  24.558  0.00  0.00    +0.202 A 
ENDROOT
BRANCH  17  22
ATOM      2  O   UNL     1     -14.042   1.689  31.264  0.00  0.00    -0.377 OA
ATOM      7  N   UNL     1     -15.748   1.332  29.059  0.00  0.00    -0.311 N 
ATOM      9  N   UNL     1     -17.784   0.386  28.312  0.00  0.00    -0.240 NA
ATOM     20  C   UNL     1     -15.453   2.681  29.557  0.00  0.00    +0.134 C 
ATOM     21  C   UNL     1     -15.559   0.249  30.035  0.00  0.00    +0.134 C 
ATOM     22  C   UNL     1     -17.413   1.618  25.831  0.00  0.00    +0.027 A 
ATOM     23  C   UNL     1     -16.703   1.155  28.054  0.00  0.00    +0.122 A 
ATOM     24  C   UNL     1     -14.093   2.689  30.246  0.00  0.00    +0.178 C 
ATOM     25  C   UNL     1     -14.192   0.388  30.697  0.00  0.00    +0.178 C 
ATOM     26  C   UNL     1     -16.473   1.787  26.841  0.00  0.00    +0.055 A 
ATOM     30  C   UNL     1     -18.538   0.834  26.059  0.00  0.00    +0.031 A 
ATOM     31  C   UNL     1     -18.675   0.244  27.306  0.00  0.00    +0.113 A 
ENDBRANCH  17  22
BRANCH  15  10
ATOM      5  N   UNL     1     -15.388   5.029  21.680  0.00  0.00    -0.287 NA
ATOM     10  C   UNL     1     -16.710   4.998  22.336  0.00  0.00    +0.146 C 
ATOM     11  C   UNL     1     -17.722   5.143  21.186  0.00  0.00    +0.030 C 
ATOM     12  C   UNL     1     -16.877   5.311  19.932  0.00  0.00    +0.017 C 
ATOM     13  C   UNL     1     -15.552   5.821  20.460  0.00  0.00    +0.085 C 
BRANCH   5  14
ATOM     14  C   UNL     1     -14.333   5.554  22.538  0.00  0.00    +0.120 C 
BRANCH  14  16
ATOM     16  C   UNL     1     -13.518   6.612  21.844  0.00  0.00    -0.033 A 
ATOM     18  C   UNL     1     -12.343   6.263  21.179  0.00  0.00    +0.006 A 
ATOM     19  C   UNL     1     -13.940   7.941  21.863  0.00  0.00    +0.006 A 
ATOM     27  C   UNL     1     -11.588   7.242  20.534  0.00  0.00    +0.015 A 
ATOM     28  C   UNL     1     -13.185   8.922  21.219  0.00  0.00    +0.015 A 
ATOM     29  C   UNL     1     -12.009   8.572  20.555  0.00  0.00    +0.059 A 
BRANCH  29  32
ATOM      4  O   UNL     1     -10.096   9.432  19.402  0.00  0.00    -0.245 OA
ATOM     32  C   UNL     1     -11.223   9.595  19.883  0.00  0.00    +0.337 C 
BRANCH  32   3
ATOM      3  O   UNL     1     -11.865  10.794  19.828  0.00  0.00    -0.477 OA
ATOM     33  H   UNL     1     -12.675  10.750  19.276  0.00  0.00    +0.295 HD
ENDBRANCH  32   3
ENDBRANCH  29  32
ENDBRANCH  14  16
ENDBRANCH   5  14
ENDBRANCH  15  10
TORSDOF 6
ENDMDL
MODEL 4
REMARK VINA RESULT:      -7.5     33.016     34.588
REMARK  Name = 45783285
REMARK  6 active torsions:
REMARK  status: ('A' for Active; 'I' for Inactive)
REMARK    1  A    between atoms: O_3  and  C_32
REMARK    2  A    between atoms: N_5  and  C_14
REMARK    3  A    between atoms: C_10  and  C_15
REMARK    4  A    between atoms: C_14  and  C_16
REMARK    5  A    between atoms: C_17  and  C_22
REMARK    6  A    between atoms: C_29  and  C_32
REMARK                            x       y       z     vdW  Elec       q    Type
REMARK                         _______ _______ _______ _____ _____    ______ ____
ROOT
ATOM      1  O   UNL     1      13.277   7.940  16.768  0.00  0.00    -0.336 OA
ATOM      6  N   UNL     1      13.640  10.046  17.437  0.00  0.00    -0.190 NA
ATOM      8  N   UNL     1      13.811   8.613  15.662  0.00  0.00    -0.056 NA
ATOM     15  C   UNL     1      13.211   8.855  17.770  0.00  0.00    +0.245 A 
ATOM     17  C   UNL     1      13.998   9.849  16.135  0.00  0.00    +0.202 A 
ENDROOT
BRANCH  17  22
ATOM      2  O   UNL     1      20.420  13.359  14.778  0.00  0.00    -0.377 OA
ATOM      7  N   UNL     1      17.707  12.626  14.788  0.00  0.00    -0.311 N 
ATOM      9  N   UNL     1      15.599  12.969  13.770  0.00  0.00    -0.240 NA
ATOM     20  C   UNL     1      18.745  11.625  14.513  0.00  0.00    +0.134 C 
ATOM     21  C   UNL     1      18.099  14.020  14.534  0.00  0.00    +0.134 C 
ATOM     22  C   UNL     1      14.541  10.908  15.333  0.00  0.00    +0.027 A 
ATOM     23  C   UNL     1      16.358  12.285  14.655  0.00  0.00    +0.122 A 
ATOM     24  C   UNL     1      20.051  12.040  15.180  0.00  0.00    +0.178 C 
ATOM     25  C   UNL     1      19.440  14.306  15.201  0.00  0.00    +0.178 C 
ATOM     26  C   UNL     1      15.881  11.257  15.453  0.00  0.00    +0.055 A 
ATOM     30  C   UNL     1      13.728  11.589  14.434  0.00  0.00    +0.031 A 
ATOM     31  C   UNL     1      14.301  12.603  13.682  0.00  0.00    +0.113 A 
ENDBRANCH  17  22
BRANCH  15  10
ATOM      5  N   UNL     1      13.721   7.992  20.047  0.00  0.00    -0.287 NA
ATOM     10  C   UNL     1      12.659   8.369  19.094  0.00  0.00    +0.146 C 
ATOM     11  C   UNL     1      11.839   9.446  19.827  0.00  0.00    +0.030 C 
ATOM     12  C   UNL     1      12.476   9.561  21.205  0.00  0.00    +0.017 C 
ATOM     13  C   UNL     1      13.179   8.232  21.385  0.00  0.00    +0.085 C 
BRANCH   5  14
ATOM     14  C   UNL     1      14.183   6.620  19.880  0.00  0.00    +0.120 C 
BRANCH  14  16
ATOM     16  C   UNL     1      15.675   6.506  20.034  0.00  0.00    -0.033 A 
ATOM     18  C   UNL     1      16.283   6.889  21.230  0.00  0.00    +0.006 A 
ATOM     19  C   UNL     1      16.451   6.017  18.983  0.00  0.00    +0.006 A 
ATOM     27  C   UNL     1      17.666   6.782  21.374  0.00  0.00    +0.015 A 
ATOM     28  C   UNL     1      17.834   5.911  19.127  0.00  0.00    +0.015 A 
ATOM     29  C   UNL     1      18.442   6.294  20.323  0.00  0.00    +0.059 A 
BRANCH  29  32
ATOM      4  O   UNL     1      20.630   7.066  20.908  0.00  0.00    -0.245 OA
ATOM     32  C   UNL     1      19.884   6.182  20.473  0.00  0.00    +0.337 C 
BRANCH  32   3
ATOM      3  O   UNL     1      20.357   4.969  20.076  0.00  0.00    -0.477 OA
ATOM     33  H   UNL     1      19.892   4.638  19.279  0.00  0.00    +0.295 HD
ENDBRANCH  32   3
ENDBRANCH  29  32
ENDBRANCH  14  16
ENDBRANCH   5  14
ENDBRANCH  15  10
TORSDOF 6
ENDMDL
MODEL 5
REMARK VINA RESULT:      -7.3     35.769     39.212
REMARK  Name = 45783285
REMARK  6 active torsions:
REMARK  status: ('A' for Active; 'I' for Inactive)
REMARK    1  A    between atoms: O_3  and  C_32
REMARK    2  A    between atoms: N_5  and  C_14
REMARK    3  A    between atoms: C_10  and  C_15
REMARK    4  A    between atoms: C_14  and  C_16
REMARK    5  A    between atoms: C_17  and  C_22
REMARK    6  A    between atoms: C_29  and  C_32
REMARK                            x       y       z     vdW  Elec       q    Type
REMARK                         _______ _______ _______ _____ _____    ______ ____
ROOT
ATOM      1  O   UNL     1      12.792   6.757   6.474  0.00  0.00    -0.336 OA
ATOM      6  N   UNL     1      12.896   8.989   6.322  0.00  0.00    -0.190 NA
ATOM      8  N   UNL     1      14.154   7.083   6.456  0.00  0.00    -0.056 NA
ATOM     15  C   UNL     1      12.122   7.936   6.391  0.00  0.00    +0.245 A 
ATOM     17  C   UNL     1      14.134   8.417   6.365  0.00  0.00    +0.202 A 
ENDROOT
BRANCH  17  22
ATOM      2  O   UNL     1      21.405   7.787   4.905  0.00  0.00    -0.377 OA
ATOM      7  N   UNL     1      18.893   8.792   5.663  0.00  0.00    -0.311 N 
ATOM      9  N   UNL     1      17.666  10.739   6.215  0.00  0.00    -0.240 NA
ATOM     20  C   UNL     1      19.059   8.106   4.376  0.00  0.00    +0.134 C 
ATOM     21  C   UNL     1      20.123   9.360   6.234  0.00  0.00    +0.134 C 
ATOM     22  C   UNL     1      15.332   9.205   6.315  0.00  0.00    +0.027 A 
ATOM     23  C   UNL     1      17.677   9.409   5.971  0.00  0.00    +0.122 A 
ATOM     24  C   UNL     1      20.221   7.123   4.463  0.00  0.00    +0.178 C 
ATOM     25  C   UNL     1      21.227   8.308   6.221  0.00  0.00    +0.178 C 
ATOM     26  C   UNL     1      16.548   8.605   6.008  0.00  0.00    +0.055 A 
ATOM     30  C   UNL     1      15.281  10.569   6.573  0.00  0.00    +0.031 A 
ATOM     31  C   UNL     1      16.466  11.286   6.511  0.00  0.00    +0.113 A 
ENDBRANCH  17  22
BRANCH  15  10
ATOM      5  N   UNL     1      10.104   6.665   5.679  0.00  0.00    -0.287 NA
ATOM     10  C   UNL     1      10.609   7.855   6.391  0.00  0.00    +0.146 C 
ATOM     11  C   UNL     1      10.020   7.743   7.809  0.00  0.00    +0.030 C 
ATOM     12  C   UNL     1       9.150   6.494   7.780  0.00  0.00    +0.017 C 
ATOM     13  C   UNL     1       8.831   6.316   6.310  0.00  0.00    +0.085 C 
BRANCH   5  14
ATOM     14  C   UNL     1       9.967   6.870   4.242  0.00  0.00    +0.120 C 
BRANCH  14  16
ATOM     16  C   UNL     1      10.898   5.986   3.458  0.00  0.00    -0.033 A 
ATOM     18  C   UNL     1      12.069   6.515   2.914  0.00  0.00    +0.006 A 
ATOM     19  C   UNL     1      10.592   4.638   3.275  0.00  0.00    +0.006 A 
ATOM     27  C   UNL     1      12.933   5.696   2.188  0.00  0.00    +0.015 A 
ATOM     28  C   UNL     1      11.456   3.818   2.547  0.00  0.00    +0.015 A 
ATOM     29  C   UNL     1      12.626   4.348   2.004  0.00  0.00    +0.059 A 
BRANCH  29  32
ATOM      4  O   UNL     1      13.359   3.134   0.076  0.00  0.00    -0.245 OA
ATOM     32  C   UNL     1      13.526   3.493   1.247  0.00  0.00    +0.337 C 
BRANCH  32   3
ATOM      3  O   UNL     1      14.613   3.109   1.971  0.00  0.00    -0.477 OA
ATOM     33  H   UNL     1      14.425   3.097   2.933  0.00  0.00    +0.295 HD
ENDBRANCH  32   3
ENDBRANCH  29  32
ENDBRANCH  14  16
ENDBRANCH   5  14
ENDBRANCH  15  10
TORSDOF 6
ENDMDL
MODEL 6
REMARK VINA RESULT:      -7.2     33.909     37.480
REMARK  Name = 45783285
REMARK  6 active torsions:
REMARK  status: ('A' for Active; 'I' for Inactive)
REMARK    1  A    between atoms: O_3  and  C_32
REMARK    2  A    between atoms: N_5  and  C_14
REMARK    3  A    between atoms: C_10  and  C_15
REMARK    4  A    between atoms: C_14  and  C_16
REMARK    5  A    between atoms: C_17  and  C_22
REMARK    6  A    between atoms: C_29  and  C_32
REMARK                            x       y       z     vdW  Elec       q    Type
REMARK                         _______ _______ _______ _____ _____    ______ ____
ROOT
ATOM      1  O   UNL     1      11.120   7.749   3.104  0.00  0.00    -0.336 OA
ATOM      6  N   UNL     1      10.087   7.032   1.250  0.00  0.00    -0.190 NA
ATOM      8  N   UNL     1      11.889   6.684   2.617  0.00  0.00    -0.056 NA
ATOM     15  C   UNL     1      10.079   7.887   2.241  0.00  0.00    +0.245 A 
ATOM     17  C   UNL     1      11.216   6.315   1.523  0.00  0.00    +0.202 A 
ENDROOT
BRANCH  17  22
ATOM      2  O   UNL     1       9.447   2.904  -4.853  0.00  0.00    -0.377 OA
ATOM      7  N   UNL     1      10.661   3.571  -2.407  0.00  0.00    -0.311 N 
ATOM      9  N   UNL     1      12.479   3.130  -0.958  0.00  0.00    -0.240 NA
ATOM     20  C   UNL     1      10.507   4.583  -3.458  0.00  0.00    +0.134 C 
ATOM     21  C   UNL     1      10.646   2.177  -2.874  0.00  0.00    +0.134 C 
ATOM     22  C   UNL     1      11.644   5.234   0.682  0.00  0.00    +0.027 A 
ATOM     23  C   UNL     1      11.388   3.872  -1.251  0.00  0.00    +0.122 A 
ATOM     24  C   UNL     1       9.316   4.231  -4.342  0.00  0.00    +0.178 C 
ATOM     25  C   UNL     1       9.447   1.954  -3.789  0.00  0.00    +0.178 C 
ATOM     26  C   UNL     1      10.933   4.924  -0.472  0.00  0.00    +0.055 A 
ATOM     30  C   UNL     1      12.771   4.493   1.018  0.00  0.00    +0.031 A 
ATOM     31  C   UNL     1      13.144   3.460   0.172  0.00  0.00    +0.113 A 
ENDBRANCH  17  22
BRANCH  15  10
ATOM      5  N   UNL     1       8.877   9.172   4.001  0.00  0.00    -0.287 NA
ATOM     10  C   UNL     1       9.086   8.988   2.551  0.00  0.00    +0.146 C 
ATOM     11  C   UNL     1       9.549  10.366   2.044  0.00  0.00    +0.030 C 
ATOM     12  C   UNL     1       9.509  11.273   3.266  0.00  0.00    +0.017 C 
ATOM     13  C   UNL     1       8.530  10.581   4.192  0.00  0.00    +0.085 C 
BRANCH   5  14
ATOM     14  C   UNL     1       7.867   8.278   4.554  0.00  0.00    +0.120 C 
BRANCH  14  16
ATOM     16  C   UNL     1       8.431   7.389   5.628  0.00  0.00    -0.033 A 
ATOM     18  C   UNL     1       8.946   6.136   5.297  0.00  0.00    +0.006 A 
ATOM     19  C   UNL     1       8.441   7.818   6.955  0.00  0.00    +0.006 A 
ATOM     27  C   UNL     1       9.471   5.312   6.293  0.00  0.00    +0.015 A 
ATOM     28  C   UNL     1       8.965   6.994   7.951  0.00  0.00    +0.015 A 
ATOM     29  C   UNL     1       9.480   5.741   7.620  0.00  0.00    +0.059 A 
BRANCH  29  32
ATOM      4  O   UNL     1      10.244   5.221   9.827  0.00  0.00    -0.245 OA
ATOM     32  C   UNL     1      10.027   4.882   8.659  0.00  0.00    +0.337 C 
BRANCH  32   3
ATOM      3  O   UNL     1      10.287   3.623   8.211  0.00  0.00    -0.477 OA
ATOM     33  H   UNL     1      10.140   2.950   8.908  0.00  0.00    +0.295 HD
ENDBRANCH  32   3
ENDBRANCH  29  32
ENDBRANCH  14  16
ENDBRANCH   5  14
ENDBRANCH  15  10
TORSDOF 6
ENDMDL
MODEL 7
REMARK VINA RESULT:      -7.2     21.388     24.558
REMARK  Name = 45783285
REMARK  6 active torsions:
REMARK  status: ('A' for Active; 'I' for Inactive)
REMARK    1  A    between atoms: O_3  and  C_32
REMARK    2  A    between atoms: N_5  and  C_14
REMARK    3  A    between atoms: C_10  and  C_15
REMARK    4  A    between atoms: C_14  and  C_16
REMARK    5  A    between atoms: C_17  and  C_22
REMARK    6  A    between atoms: C_29  and  C_32
REMARK                            x       y       z     vdW  Elec       q    Type
REMARK                         _______ _______ _______ _____ _____    ______ ____
ROOT
ATOM      1  O   UNL     1      -2.811  -9.794  11.018  0.00  0.00    -0.336 OA
ATOM      6  N   UNL     1      -4.322 -11.266  10.266  0.00  0.00    -0.190 NA
ATOM      8  N   UNL     1      -3.443  -9.181   9.929  0.00  0.00    -0.056 NA
ATOM     15  C   UNL     1      -3.388 -11.017  11.148  0.00  0.00    +0.245 A 
ATOM     17  C   UNL     1      -4.321 -10.111   9.540  0.00  0.00    +0.202 A 
ENDROOT
BRANCH  17  22
ATOM      2  O   UNL     1     -10.263  -6.103   7.529  0.00  0.00    -0.377 OA
ATOM      7  N   UNL     1      -8.165  -7.974   7.555  0.00  0.00    -0.311 N 
ATOM      9  N   UNL     1      -6.938  -9.534   6.267  0.00  0.00    -0.240 NA
ATOM     20  C   UNL     1      -7.900  -6.559   7.841  0.00  0.00    +0.134 C 
ATOM     21  C   UNL     1      -9.386  -8.238   6.782  0.00  0.00    +0.134 C 
ATOM     22  C   UNL     1      -5.209  -9.916   8.430  0.00  0.00    +0.027 A 
ATOM     23  C   UNL     1      -7.100  -8.871   7.434  0.00  0.00    +0.122 A 
ATOM     24  C   UNL     1      -9.155  -5.904   8.407  0.00  0.00    +0.178 C 
ATOM     25  C   UNL     1     -10.561  -7.493   7.406  0.00  0.00    +0.178 C 
ATOM     26  C   UNL     1      -6.271  -9.026   8.535  0.00  0.00    +0.055 A 
ATOM     30  C   UNL     1      -5.010 -10.617   7.246  0.00  0.00    +0.031 A 
ATOM     31  C   UNL     1      -5.895 -10.392   6.203  0.00  0.00    +0.113 A 
ENDBRANCH  17  22
BRANCH  15  10
ATOM      5  N   UNL     1      -3.699 -11.795  13.492  0.00  0.00    -0.287 NA
ATOM     10  C   UNL     1      -2.872 -11.892  12.272  0.00  0.00    +0.146 C 
ATOM     11  C   UNL     1      -2.879 -13.388  11.912  0.00  0.00    +0.030 C 
ATOM     12  C   UNL     1      -3.681 -14.059  13.018  0.00  0.00    +0.017 C 
ATOM     13  C   UNL     1      -3.582 -13.085  14.173  0.00  0.00    +0.085 C 
BRANCH   5  14
ATOM     14  C   UNL     1      -3.322 -10.682  14.354  0.00  0.00    +0.120 C 
BRANCH  14  16
ATOM     16  C   UNL     1      -4.181 -10.611  15.588  0.00  0.00    -0.033 A 
ATOM     18  C   UNL     1      -3.698 -11.101  16.802  0.00  0.00    +0.006 A 
ATOM     19  C   UNL     1      -5.458 -10.055  15.518  0.00  0.00    +0.006 A 
ATOM     27  C   UNL     1      -4.493 -11.034  17.946  0.00  0.00    +0.015 A 
ATOM     28  C   UNL     1      -6.254  -9.990  16.662  0.00  0.00    +0.015 A 
ATOM     29  C   UNL     1      -5.771 -10.479  17.876  0.00  0.00    +0.059 A 
BRANCH  29  32
ATOM      4  O   UNL     1      -6.248 -10.735  20.207  0.00  0.00    -0.245 OA
ATOM     32  C   UNL     1      -6.601 -10.409  19.068  0.00  0.00    +0.337 C 
BRANCH  32   3
ATOM      3  O   UNL     1      -7.849  -9.932  18.808  0.00  0.00    -0.477 OA
ATOM     33  H   UNL     1      -8.302 -10.454  18.113  0.00  0.00    +0.295 HD
ENDBRANCH  32   3
ENDBRANCH  29  32
ENDBRANCH  14  16
ENDBRANCH   5  14
ENDBRANCH  15  10
TORSDOF 6
ENDMDL
MODEL 8
REMARK VINA RESULT:      -7.1     17.955     21.053
REMARK  Name = 45783285
REMARK  6 active torsions:
REMARK  status: ('A' for Active; 'I' for Inactive)
REMARK    1  A    between atoms: O_3  and  C_32
REMARK    2  A    between atoms: N_5  and  C_14
REMARK    3  A    between atoms: C_10  and  C_15
REMARK    4  A    between atoms: C_14  and  C_16
REMARK    5  A    between atoms: C_17  and  C_22
REMARK    6  A    between atoms: C_29  and  C_32
REMARK                            x       y       z     vdW  Elec       q    Type
REMARK                         _______ _______ _______ _____ _____    ______ ____
ROOT
ATOM      1  O   UNL     1      -6.921 -11.099  20.046  0.00  0.00    -0.336 OA
ATOM      6  N   UNL     1      -7.094 -11.969  17.989  0.00  0.00    -0.190 NA
ATOM      8  N   UNL     1      -5.795 -10.658  19.340  0.00  0.00    -0.056 NA
ATOM     15  C   UNL     1      -7.632 -11.865  19.178  0.00  0.00    +0.245 A 
ATOM     17  C   UNL     1      -5.969 -11.212  18.136  0.00  0.00    +0.202 A 
ENDROOT
BRANCH  17  22
ATOM      2  O   UNL     1      -5.781 -10.229  10.761  0.00  0.00    -0.377 OA
ATOM      7  N   UNL     1      -5.031 -10.632  13.439  0.00  0.00    -0.311 N 
ATOM      9  N   UNL     1      -3.223 -10.670  14.965  0.00  0.00    -0.240 NA
ATOM     20  C   UNL     1      -5.953  -9.547  13.083  0.00  0.00    +0.134 C 
ATOM     21  C   UNL     1      -4.168 -11.104  12.346  0.00  0.00    +0.134 C 
ATOM     22  C   UNL     1      -5.037 -11.029  17.061  0.00  0.00    +0.027 A 
ATOM     23  C   UNL     1      -4.556 -10.740  14.749  0.00  0.00    +0.122 A 
ATOM     24  C   UNL     1      -6.701  -9.906  11.804  0.00  0.00    +0.178 C 
ATOM     25  C   UNL     1      -5.013 -11.380  11.107  0.00  0.00    +0.178 C 
ATOM     26  C   UNL     1      -5.495 -10.918  15.753  0.00  0.00    +0.055 A 
ATOM     30  C   UNL     1      -3.674 -10.962  17.322  0.00  0.00    +0.031 A 
ATOM     31  C   UNL     1      -2.815 -10.782  16.249  0.00  0.00    +0.113 A 
ENDBRANCH  17  22
BRANCH  15  10
ATOM      5  N   UNL     1     -10.113 -11.968  19.004  0.00  0.00    -0.287 NA
ATOM     10  C   UNL     1      -8.916 -12.471  19.707  0.00  0.00    +0.146 C 
ATOM     11  C   UNL     1      -8.970 -13.999  19.529  0.00  0.00    +0.030 C 
ATOM     12  C   UNL     1     -10.261 -14.265  18.768  0.00  0.00    +0.017 C 
ATOM     13  C   UNL     1     -11.105 -13.042  19.060  0.00  0.00    +0.085 C 
BRANCH   5  14
ATOM     14  C   UNL     1     -10.622 -10.720  19.557  0.00  0.00    +0.120 C 
BRANCH  14  16
ATOM     16  C   UNL     1     -10.681  -9.629  18.522  0.00  0.00    -0.033 A 
ATOM     18  C   UNL     1     -11.915  -9.190  18.042  0.00  0.00    +0.006 A 
ATOM     19  C   UNL     1      -9.502  -9.057  18.044  0.00  0.00    +0.006 A 
ATOM     27  C   UNL     1     -11.970  -8.177  17.084  0.00  0.00    +0.015 A 
ATOM     28  C   UNL     1      -9.557  -8.046  17.084  0.00  0.00    +0.015 A 
ATOM     29  C   UNL     1     -10.791  -7.606  16.604  0.00  0.00    +0.059 A 
BRANCH  29  32
ATOM      4  O   UNL     1     -11.805  -6.322  14.858  0.00  0.00    -0.245 OA
ATOM     32  C   UNL     1     -10.847  -6.551  15.605  0.00  0.00    +0.337 C 
BRANCH  32   3
ATOM      3  O   UNL     1      -9.707  -5.808  15.566  0.00  0.00    -0.477 OA
ATOM     33  H   UNL     1      -8.996  -6.256  15.060  0.00  0.00    +0.295 HD
ENDBRANCH  32   3
ENDBRANCH  29  32
ENDBRANCH  14  16
ENDBRANCH   5  14
ENDBRANCH  15  10
TORSDOF 6
ENDMDL
MODEL 9
REMARK VINA RESULT:      -7.1     19.979     23.882
REMARK  Name = 45783285
REMARK  6 active torsions:
REMARK  status: ('A' for Active; 'I' for Inactive)
REMARK    1  A    between atoms: O_3  and  C_32
REMARK    2  A    between atoms: N_5  and  C_14
REMARK    3  A    between atoms: C_10  and  C_15
REMARK    4  A    between atoms: C_14  and  C_16
REMARK    5  A    between atoms: C_17  and  C_22
REMARK    6  A    between atoms: C_29  and  C_32
REMARK                            x       y       z     vdW  Elec       q    Type
REMARK                         _______ _______ _______ _____ _____    ______ ____
ROOT
ATOM      1  O   UNL     1      -2.657 -10.967  14.576  0.00  0.00    -0.336 OA
ATOM      6  N   UNL     1      -4.764 -10.401  14.071  0.00  0.00    -0.190 NA
ATOM      8  N   UNL     1      -3.329 -10.837  15.798  0.00  0.00    -0.056 NA
ATOM     15  C   UNL     1      -3.574 -10.693  13.612  0.00  0.00    +0.245 A 
ATOM     17  C   UNL     1      -4.566 -10.502  15.417  0.00  0.00    +0.202 A 
ENDROOT
BRANCH  17  22
ATOM      2  O   UNL     1     -11.497  -7.809  15.745  0.00  0.00    -0.377 OA
ATOM      7  N   UNL     1      -8.983  -8.854  16.443  0.00  0.00    -0.311 N 
ATOM      9  N   UNL     1      -7.686  -9.795  18.184  0.00  0.00    -0.240 NA
ATOM     20  C   UNL     1      -9.791  -9.500  15.403  0.00  0.00    +0.134 C 
ATOM     21  C   UNL     1      -9.736  -8.029  17.399  0.00  0.00    +0.134 C 
ATOM     22  C   UNL     1      -5.624 -10.262  16.356  0.00  0.00    +0.027 A 
ATOM     23  C   UNL     1      -7.800  -9.456  16.880  0.00  0.00    +0.122 A 
ATOM     24  C   UNL     1     -10.714  -8.474  14.755  0.00  0.00    +0.178 C 
ATOM     25  C   UNL     1     -10.661  -7.081  16.642  0.00  0.00    +0.178 C 
ATOM     26  C   UNL     1      -6.807  -9.665  15.936  0.00  0.00    +0.055 A 
ATOM     30  C   UNL     1      -5.469 -10.624  17.689  0.00  0.00    +0.031 A 
ATOM     31  C   UNL     1      -6.521 -10.371  18.556  0.00  0.00    +0.113 A 
ENDBRANCH  17  22
BRANCH  15  10
ATOM      5  N   UNL     1      -3.931  -9.980  11.254  0.00  0.00    -0.287 NA
ATOM     10  C   UNL     1      -3.089 -10.766  12.179  0.00  0.00    +0.146 C 
ATOM     11  C   UNL     1      -1.672 -10.193  12.000  0.00  0.00    +0.030 C 
ATOM     12  C   UNL     1      -1.805  -9.135  10.914  0.00  0.00    +0.017 C 
ATOM     13  C   UNL     1      -3.055  -9.548  10.165  0.00  0.00    +0.085 C 
BRANCH   5  14
ATOM     14  C   UNL     1      -5.091 -10.716  10.767  0.00  0.00    +0.120 C 
BRANCH  14  16
ATOM     16  C   UNL     1      -5.872  -9.926   9.752  0.00  0.00    -0.033 A 
ATOM     18  C   UNL     1      -6.675  -8.863  10.164  0.00  0.00    +0.006 A 
ATOM     19  C   UNL     1      -5.791 -10.256   8.399  0.00  0.00    +0.006 A 
ATOM     27  C   UNL     1      -7.398  -8.130   9.223  0.00  0.00    +0.015 A 
ATOM     28  C   UNL     1      -6.515  -9.524   7.458  0.00  0.00    +0.015 A 
ATOM     29  C   UNL     1      -7.319  -8.460   7.870  0.00  0.00    +0.059 A 
BRANCH  29  32
ATOM      4  O   UNL     1      -9.202  -7.227   7.060  0.00  0.00    -0.245 OA
ATOM     32  C   UNL     1      -8.072  -7.696   6.889  0.00  0.00    +0.337 C 
BRANCH  32   3
ATOM      3  O   UNL     1      -7.393  -7.538   5.719  0.00  0.00    -0.477 OA
ATOM     33  H   UNL     1      -8.000  -7.472   4.951  0.00  0.00    +0.295 HD
ENDBRANCH  32   3
ENDBRANCH  29  32
ENDBRANCH  14  16
ENDBRANCH   5  14
ENDBRANCH  15  10
TORSDOF 6
ENDMDL
MODEL 10
REMARK VINA RESULT:      -7.0     19.310     22.378
REMARK  Name = 45783285
REMARK  6 active torsions:
REMARK  status: ('A' for Active; 'I' for Inactive)
REMARK    1  A    between atoms: O_3  and  C_32
REMARK    2  A    between atoms: N_5  and  C_14
REMARK    3  A    between atoms: C_10  and  C_15
REMARK    4  A    between atoms: C_14  and  C_16
REMARK    5  A    between atoms: C_17  and  C_22
REMARK    6  A    between atoms: C_29  and  C_32
REMARK                            x       y       z     vdW  Elec       q    Type
REMARK                         _______ _______ _______ _____ _____    ______ ____
ROOT
ATOM      1  O   UNL     1      -4.933 -12.194  16.375  0.00  0.00    -0.336 OA
ATOM      6  N   UNL     1      -5.340 -10.286  15.275  0.00  0.00    -0.190 NA
ATOM      8  N   UNL     1      -4.174 -12.253  15.199  0.00  0.00    -0.056 NA
ATOM     15  C   UNL     1      -5.588 -11.005  16.341  0.00  0.00    +0.245 A 
ATOM     17  C   UNL     1      -4.468 -11.092  14.604  0.00  0.00    +0.202 A 
ENDROOT
BRANCH  17  22
ATOM      2  O   UNL     1      -6.525  -8.850   7.811  0.00  0.00    -0.377 OA
ATOM      7  N   UNL     1      -5.002  -9.695  10.017  0.00  0.00    -0.311 N 
ATOM      9  N   UNL     1      -2.814  -9.962  10.879  0.00  0.00    -0.240 NA
ATOM     20  C   UNL     1      -5.948  -8.582  10.152  0.00  0.00    +0.134 C 
ATOM     21  C   UNL     1      -4.535  -9.956   8.647  0.00  0.00    +0.134 C 
ATOM     22  C   UNL     1      -3.907 -10.709  13.340  0.00  0.00    +0.027 A 
ATOM     23  C   UNL     1      -4.150 -10.018  11.077  0.00  0.00    +0.122 A 
ATOM     24  C   UNL     1      -7.066  -8.728   9.126  0.00  0.00    +0.178 C 
ATOM     25  C   UNL     1      -5.729 -10.029   7.702  0.00  0.00    +0.178 C 
ATOM     26  C   UNL     1      -4.740 -10.383  12.277  0.00  0.00    +0.055 A 
ATOM     30  C   UNL     1      -2.527 -10.663  13.175  0.00  0.00    +0.031 A 
ATOM     31  C   UNL     1      -2.035 -10.286  11.935  0.00  0.00    +0.113 A 
ENDBRANCH  17  22
BRANCH  15  10
ATOM      5  N   UNL     1      -7.382 -11.823  17.861  0.00  0.00    -0.287 NA
ATOM     10  C   UNL     1      -6.490 -10.697  17.518  0.00  0.00    +0.146 C 
ATOM     11  C   UNL     1      -5.705 -10.412  18.810  0.00  0.00    +0.030 C 
ATOM     12  C   UNL     1      -6.265 -11.384  19.839  0.00  0.00    +0.017 C 
ATOM     13  C   UNL     1      -7.639 -11.723  19.297  0.00  0.00    +0.085 C 
BRANCH   5  14
ATOM     14  C   UNL     1      -8.614 -11.837  17.082  0.00  0.00    +0.120 C 
BRANCH  14  16
ATOM     16  C   UNL     1      -9.131 -10.448  16.822  0.00  0.00    -0.033 A 
ATOM     18  C   UNL     1      -9.763  -9.738  17.843  0.00  0.00    +0.006 A 
ATOM     19  C   UNL     1      -8.978  -9.871  15.562  0.00  0.00    +0.006 A 
ATOM     27  C   UNL     1     -10.241  -8.450  17.604  0.00  0.00    +0.015 A 
ATOM     28  C   UNL     1      -9.457  -8.583  15.323  0.00  0.00    +0.015 A 
ATOM     29  C   UNL     1     -10.089  -7.872  16.343  0.00  0.00    +0.059 A 
BRANCH  29  32
ATOM      4  O   UNL     1     -11.660  -6.074  16.505  0.00  0.00    -0.245 OA
ATOM     32  C   UNL     1     -10.587  -6.529  16.093  0.00  0.00    +0.337 C 
BRANCH  32   3
ATOM      3  O   UNL     1      -9.732  -5.789  15.335  0.00  0.00    -0.477 OA
ATOM     33  H   UNL     1     -10.207  -5.260  14.660  0.00  0.00    +0.295 HD
ENDBRANCH  32   3
ENDBRANCH  29  32
ENDBRANCH  14  16
ENDBRANCH   5  14
ENDBRANCH  15  10
TORSDOF 6
ENDMDL
