MODEL 1
REMARK VINA RESULT:      -6.9      0.000      0.000
REMARK  Name = 75536897
REMARK  5 active torsions:
REMARK  status: ('A' for Active; 'I' for Inactive)
REMARK    1  A    between atoms: O_5  and  C_12
REMARK    2  A    between atoms: O_5  and  C_21
REMARK    3  A    between atoms: C_16  and  C_17
REMARK    4  A    between atoms: C_18  and  C_22
REMARK    5  A    between atoms: C_20  and  C_23
REMARK                            x       y       z     vdW  Elec       q    Type
REMARK                         _______ _______ _______ _____ _____    ______ ____
ROOT
ATOM      4  O   UNL     1      10.947   7.455  22.430  0.00  0.00    -0.375 OA
ATOM      7  O   UNL     1      14.305   7.012  18.989  0.00  0.00    -0.270 OA
ATOM      8  N   UNL     1      13.248   8.422  20.535  0.00  0.00    -0.292 N 
ATOM     11  C   UNL     1      12.634   9.722  20.828  0.00  0.00    +0.155 C 
ATOM     12  C   UNL     1      11.607   9.757  21.962  0.00  0.00    +0.218 C 
ATOM     13  C   UNL     1      13.243   7.398  21.581  0.00  0.00    +0.136 C 
ATOM     14  C   UNL     1      10.532   8.679  21.833  0.00  0.00    +0.206 C 
ATOM     15  C   UNL     1      11.889   6.708  21.665  0.00  0.00    +0.179 C 
ATOM     16  C   UNL     1      13.809   8.097  19.288  0.00  0.00    +0.250 C 
ENDROOT
BRANCH  16  17
ATOM      6  O   UNL     1      13.117  10.385  16.509  0.00  0.00    -0.455 OA
ATOM     17  C   UNL     1      13.814   9.127  18.236  0.00  0.00    +0.087 A 
ATOM     18  C   UNL     1      12.790   9.367  17.349  0.00  0.00    +0.220 A 
ATOM     19  C   UNL     1      14.835  10.054  17.920  0.00  0.00    +0.058 A 
ATOM     20  C   UNL     1      14.362  10.797  16.863  0.00  0.00    +0.103 A 
ATOM     23  C   UNL     1      14.926  11.907  16.081  0.00  0.00    +0.086 C 
BRANCH  18  22
ATOM      1  F   UNL     1      11.493   7.418  16.860  0.00  0.00    -0.163 F 
ATOM      2  F   UNL     1      10.624   8.862  18.224  0.00  0.00    -0.163 F 
ATOM      3  F   UNL     1      10.765   9.323  16.105  0.00  0.00    -0.163 F 
ATOM     22  C   UNL     1      11.466   8.762  17.144  0.00  0.00    +0.451 C 
ENDBRANCH  18  22
ENDBRANCH  16  17
BRANCH  12   5
ATOM      5  O   UNL     1      10.985  11.042  21.915  0.00  0.00    -0.468 OA
BRANCH   5  21
ATOM      9  N   UNL     1      10.680  13.052  23.043  0.00  0.00    -0.219 NA
ATOM     10  N   UNL     1      10.939  11.688  25.481  0.00  0.00    -0.256 NA
ATOM     21  C   UNL     1      10.895  11.722  23.098  0.00  0.00    +0.234 A 
ATOM     24  C   UNL     1      11.021  11.052  24.295  0.00  0.00    +0.177 A 
ATOM     25  C   UNL     1      10.598  13.688  24.229  0.00  0.00    +0.134 A 
ATOM     26  C   UNL     1      10.725  13.018  25.426  0.00  0.00    +0.130 A 
ENDBRANCH   5  21
ENDBRANCH  12   5
TORSDOF 4
ENDMDL
MODEL 2
REMARK VINA RESULT:      -6.4      2.901      3.822
REMARK  Name = 75536897
REMARK  5 active torsions:
REMARK  status: ('A' for Active; 'I' for Inactive)
REMARK    1  A    between atoms: O_5  and  C_12
REMARK    2  A    between atoms: O_5  and  C_21
REMARK    3  A    between atoms: C_16  and  C_17
REMARK    4  A    between atoms: C_18  and  C_22
REMARK    5  A    between atoms: C_20  and  C_23
REMARK                            x       y       z     vdW  Elec       q    Type
REMARK                         _______ _______ _______ _____ _____    ______ ____
ROOT
ATOM      4  O   UNL     1      10.874  10.760  22.432  0.00  0.00    -0.375 OA
ATOM      7  O   UNL     1      11.782   6.414  20.534  0.00  0.00    -0.270 OA
ATOM      8  N   UNL     1      12.578   8.200  21.827  0.00  0.00    -0.292 N 
ATOM     11  C   UNL     1      13.669   9.130  22.140  0.00  0.00    +0.155 C 
ATOM     12  C   UNL     1      13.272  10.467  22.771  0.00  0.00    +0.218 C 
ATOM     13  C   UNL     1      11.308   8.353  22.538  0.00  0.00    +0.136 C 
ATOM     14  C   UNL     1      12.163  11.188  22.006  0.00  0.00    +0.206 C 
ATOM     15  C   UNL     1      10.478   9.482  21.942  0.00  0.00    +0.179 C 
ATOM     16  C   UNL     1      12.679   7.194  20.851  0.00  0.00    +0.250 C 
ENDROOT
BRANCH  16  17
ATOM      6  O   UNL     1      15.515   7.244  18.530  0.00  0.00    -0.455 OA
ATOM     17  C   UNL     1      13.957   7.040  20.137  0.00  0.00    +0.087 A 
ATOM     18  C   UNL     1      14.251   7.574  18.904  0.00  0.00    +0.220 A 
ATOM     19  C   UNL     1      15.114   6.336  20.547  0.00  0.00    +0.058 A 
ATOM     20  C   UNL     1      16.033   6.490  19.536  0.00  0.00    +0.103 A 
ATOM     23  C   UNL     1      17.412   6.016  19.348  0.00  0.00    +0.086 C 
BRANCH  18  22
ATOM      1  F   UNL     1      14.248   8.932  16.934  0.00  0.00    -0.163 F 
ATOM      2  F   UNL     1      12.479   7.734  17.306  0.00  0.00    -0.163 F 
ATOM      3  F   UNL     1      12.882   9.483  18.534  0.00  0.00    -0.163 F 
ATOM     22  C   UNL     1      13.493   8.400  17.952  0.00  0.00    +0.451 C 
ENDBRANCH  18  22
ENDBRANCH  16  17
BRANCH  12   5
ATOM      5  O   UNL     1      14.443  11.285  22.774  0.00  0.00    -0.468 OA
BRANCH   5  21
ATOM      9  N   UNL     1      16.193  12.138  24.046  0.00  0.00    -0.219 NA
ATOM     10  N   UNL     1      14.632  11.811  26.355  0.00  0.00    -0.256 NA
ATOM     21  C   UNL     1      14.942  11.636  23.998  0.00  0.00    +0.234 A 
ATOM     24  C   UNL     1      14.176  11.477  25.131  0.00  0.00    +0.177 A 
ATOM     25  C   UNL     1      16.649  12.472  25.269  0.00  0.00    +0.134 A 
ATOM     26  C   UNL     1      15.883  12.312  26.403  0.00  0.00    +0.130 A 
ENDBRANCH   5  21
ENDBRANCH  12   5
TORSDOF 4
ENDMDL
MODEL 3
REMARK VINA RESULT:      -6.1      9.832     12.745
REMARK  Name = 75536897
REMARK  5 active torsions:
REMARK  status: ('A' for Active; 'I' for Inactive)
REMARK    1  A    between atoms: O_5  and  C_12
REMARK    2  A    between atoms: O_5  and  C_21
REMARK    3  A    between atoms: C_16  and  C_17
REMARK    4  A    between atoms: C_18  and  C_22
REMARK    5  A    between atoms: C_20  and  C_23
REMARK                            x       y       z     vdW  Elec       q    Type
REMARK                         _______ _______ _______ _____ _____    ______ ____
ROOT
ATOM      4  O   UNL     1      11.104  12.176   6.419  0.00  0.00    -0.375 OA
ATOM      7  O   UNL     1       9.147   7.889   5.366  0.00  0.00    -0.270 OA
ATOM      8  N   UNL     1       9.561   9.512   7.006  0.00  0.00    -0.292 N 
ATOM     11  C   UNL     1       9.992   9.830   8.372  0.00  0.00    +0.155 C 
ATOM     12  C   UNL     1      10.567  11.230   8.603  0.00  0.00    +0.218 C 
ATOM     13  C   UNL     1       9.241  10.618   6.102  0.00  0.00    +0.136 C 
ATOM     14  C   UNL     1      11.657  11.606   7.600  0.00  0.00    +0.206 C 
ATOM     15  C   UNL     1      10.508  11.238   5.527  0.00  0.00    +0.179 C 
ATOM     16  C   UNL     1       9.473   8.200   6.511  0.00  0.00    +0.250 C 
ENDROOT
BRANCH  16  17
ATOM      6  O   UNL     1      10.993   5.534   8.515  0.00  0.00    -0.455 OA
ATOM     17  C   UNL     1       9.794   7.088   7.420  0.00  0.00    +0.087 A 
ATOM     18  C   UNL     1      11.044   6.546   7.609  0.00  0.00    +0.220 A 
ATOM     19  C   UNL     1       8.919   6.363   8.264  0.00  0.00    +0.058 A 
ATOM     20  C   UNL     1       9.696   5.430   8.909  0.00  0.00    +0.103 A 
ATOM     23  C   UNL     1       9.402   4.388   9.903  0.00  0.00    +0.086 C 
BRANCH  18  22
ATOM      1  F   UNL     1      12.760   8.150   7.157  0.00  0.00    -0.163 F 
ATOM      2  F   UNL     1      13.398   6.128   7.614  0.00  0.00    -0.163 F 
ATOM      3  F   UNL     1      12.462   6.563   5.701  0.00  0.00    -0.163 F 
ATOM     22  C   UNL     1      12.369   6.837   7.043  0.00  0.00    +0.451 C 
ENDBRANCH  18  22
ENDBRANCH  16  17
BRANCH  12   5
ATOM      5  O   UNL     1      11.123  11.235   9.919  0.00  0.00    -0.468 OA
BRANCH   5  21
ATOM      9  N   UNL     1       9.051  11.996  10.648  0.00  0.00    -0.219 NA
ATOM     10  N   UNL     1      10.211  12.713  13.100  0.00  0.00    -0.256 NA
ATOM     21  C   UNL     1      10.361  11.802  10.902  0.00  0.00    +0.234 A 
ATOM     24  C   UNL     1      10.930  12.153  12.106  0.00  0.00    +0.177 A 
ATOM     25  C   UNL     1       8.332  12.556  11.641  0.00  0.00    +0.134 A 
ATOM     26  C   UNL     1       8.902  12.908  12.845  0.00  0.00    +0.130 A 
ENDBRANCH   5  21
ENDBRANCH  12   5
TORSDOF 4
ENDMDL
MODEL 4
REMARK VINA RESULT:      -6.1     13.204     15.358
REMARK  Name = 75536897
REMARK  5 active torsions:
REMARK  status: ('A' for Active; 'I' for Inactive)
REMARK    1  A    between atoms: O_5  and  C_12
REMARK    2  A    between atoms: O_5  and  C_21
REMARK    3  A    between atoms: C_16  and  C_17
REMARK    4  A    between atoms: C_18  and  C_22
REMARK    5  A    between atoms: C_20  and  C_23
REMARK                            x       y       z     vdW  Elec       q    Type
REMARK                         _______ _______ _______ _____ _____    ______ ____
ROOT
ATOM      4  O   UNL     1      11.657   9.734   3.809  0.00  0.00    -0.375 OA
ATOM      7  O   UNL     1       7.839   8.131   6.293  0.00  0.00    -0.270 OA
ATOM      8  N   UNL     1      10.118   8.682   6.328  0.00  0.00    -0.292 N 
ATOM     11  C   UNL     1      11.484   8.334   6.736  0.00  0.00    +0.155 C 
ATOM     12  C   UNL     1      12.622   8.924   5.899  0.00  0.00    +0.218 C 
ATOM     13  C   UNL     1       9.917   9.889   5.525  0.00  0.00    +0.136 C 
ATOM     14  C   UNL     1      12.442   8.703   4.398  0.00  0.00    +0.206 C 
ATOM     15  C   UNL     1      10.259   9.636   4.062  0.00  0.00    +0.179 C 
ATOM     16  C   UNL     1       8.996   7.895   6.640  0.00  0.00    +0.250 C 
ENDROOT
BRANCH  16  17
ATOM      6  O   UNL     1       9.691   4.553   7.976  0.00  0.00    -0.455 OA
ATOM     17  C   UNL     1       9.198   6.682   7.449  0.00  0.00    +0.087 A 
ATOM     18  C   UNL     1       9.604   5.460   6.966  0.00  0.00    +0.220 A 
ATOM     19  C   UNL     1       9.022   6.517   8.843  0.00  0.00    +0.058 A 
ATOM     20  C   UNL     1       9.335   5.205   9.114  0.00  0.00    +0.103 A 
ATOM     23  C   UNL     1       9.359   4.411  10.351  0.00  0.00    +0.086 C 
BRANCH  18  22
ATOM      1  F   UNL     1      10.096   3.601   5.543  0.00  0.00    -0.163 F 
ATOM      2  F   UNL     1       9.023   5.264   4.655  0.00  0.00    -0.163 F 
ATOM      3  F   UNL     1      11.132   5.471   5.144  0.00  0.00    -0.163 F 
ATOM     22  C   UNL     1       9.949   4.965   5.625  0.00  0.00    +0.451 C 
ENDBRANCH  18  22
ENDBRANCH  16  17
BRANCH  12   5
ATOM      5  O   UNL     1      13.823   8.279   6.324  0.00  0.00    -0.468 OA
BRANCH   5  21
ATOM      9  N   UNL     1      14.871  10.332   6.633  0.00  0.00    -0.219 NA
ATOM     10  N   UNL     1      17.308   9.167   5.878  0.00  0.00    -0.256 NA
ATOM     21  C   UNL     1      14.965   9.031   6.292  0.00  0.00    +0.234 A 
ATOM     24  C   UNL     1      16.162   8.459   5.922  0.00  0.00    +0.177 A 
ATOM     25  C   UNL     1      16.017  11.040   6.589  0.00  0.00    +0.134 A 
ATOM     26  C   UNL     1      17.214  10.468   6.218  0.00  0.00    +0.130 A 
ENDBRANCH   5  21
ENDBRANCH  12   5
TORSDOF 4
ENDMDL
MODEL 5
REMARK VINA RESULT:      -6.1     13.626     17.359
REMARK  Name = 75536897
REMARK  5 active torsions:
REMARK  status: ('A' for Active; 'I' for Inactive)
REMARK    1  A    between atoms: O_5  and  C_12
REMARK    2  A    between atoms: O_5  and  C_21
REMARK    3  A    between atoms: C_16  and  C_17
REMARK    4  A    between atoms: C_18  and  C_22
REMARK    5  A    between atoms: C_20  and  C_23
REMARK                            x       y       z     vdW  Elec       q    Type
REMARK                         _______ _______ _______ _____ _____    ______ ____
ROOT
ATOM      4  O   UNL     1       8.762   9.104   2.366  0.00  0.00    -0.375 OA
ATOM      7  O   UNL     1      10.344   9.650   6.895  0.00  0.00    -0.270 OA
ATOM      8  N   UNL     1      10.499   8.445   4.890  0.00  0.00    -0.292 N 
ATOM     11  C   UNL     1      10.579   7.145   4.214  0.00  0.00    +0.155 C 
ATOM     12  C   UNL     1      10.081   7.091   2.767  0.00  0.00    +0.218 C 
ATOM     13  C   UNL     1      10.434   9.654   4.068  0.00  0.00    +0.136 C 
ATOM     14  C   UNL     1       8.692   7.700   2.586  0.00  0.00    +0.206 C 
ATOM     15  C   UNL     1       9.026   9.878   3.533  0.00  0.00    +0.179 C 
ATOM     16  C   UNL     1      10.443   8.585   6.287  0.00  0.00    +0.250 C 
ENDROOT
BRANCH  16  17
ATOM      6  O   UNL     1      11.368   5.599   8.202  0.00  0.00    -0.455 OA
ATOM     17  C   UNL     1      10.509   7.368   7.114  0.00  0.00    +0.087 A 
ATOM     18  C   UNL     1      11.656   6.674   7.421  0.00  0.00    +0.220 A 
ATOM     19  C   UNL     1       9.449   6.677   7.745  0.00  0.00    +0.058 A 
ATOM     20  C   UNL     1      10.023   5.608   8.394  0.00  0.00    +0.103 A 
ATOM     23  C   UNL     1       9.478   4.524   9.223  0.00  0.00    +0.086 C 
BRANCH  18  22
ATOM      1  F   UNL     1      13.928   5.974   7.694  0.00  0.00    -0.163 F 
ATOM      2  F   UNL     1      13.360   6.736   5.744  0.00  0.00    -0.163 F 
ATOM      3  F   UNL     1      13.558   8.100   7.424  0.00  0.00    -0.163 F 
ATOM     22  C   UNL     1      13.075   6.862   7.082  0.00  0.00    +0.451 C 
ENDBRANCH  18  22
ENDBRANCH  16  17
BRANCH  12   5
ATOM      5  O   UNL     1      10.038   5.712   2.397  0.00  0.00    -0.468 OA
BRANCH   5  21
ATOM      9  N   UNL     1      11.866   5.895   0.972  0.00  0.00    -0.219 NA
ATOM     10  N   UNL     1      12.766   3.388   1.854  0.00  0.00    -0.256 NA
ATOM     21  C   UNL     1      11.192   5.178   1.893  0.00  0.00    +0.234 A 
ATOM     24  C   UNL     1      11.634   3.947   2.327  0.00  0.00    +0.177 A 
ATOM     25  C   UNL     1      12.998   5.336   0.499  0.00  0.00    +0.134 A 
ATOM     26  C   UNL     1      13.440   4.105   0.932  0.00  0.00    +0.130 A 
ENDBRANCH   5  21
ENDBRANCH  12   5
TORSDOF 4
ENDMDL
MODEL 6
REMARK VINA RESULT:      -6.0      3.496      6.492
REMARK  Name = 75536897
REMARK  5 active torsions:
REMARK  status: ('A' for Active; 'I' for Inactive)
REMARK    1  A    between atoms: O_5  and  C_12
REMARK    2  A    between atoms: O_5  and  C_21
REMARK    3  A    between atoms: C_16  and  C_17
REMARK    4  A    between atoms: C_18  and  C_22
REMARK    5  A    between atoms: C_20  and  C_23
REMARK                            x       y       z     vdW  Elec       q    Type
REMARK                         _______ _______ _______ _____ _____    ______ ____
ROOT
ATOM      4  O   UNL     1      15.526   6.695  18.201  0.00  0.00    -0.375 OA
ATOM      7  O   UNL     1      11.534   9.392  18.523  0.00  0.00    -0.270 OA
ATOM      8  N   UNL     1      13.721   9.019  19.280  0.00  0.00    -0.292 N 
ATOM     11  C   UNL     1      14.656   8.915  20.407  0.00  0.00    +0.155 C 
ATOM     12  C   UNL     1      15.907   8.062  20.186  0.00  0.00    +0.218 C 
ATOM     13  C   UNL     1      14.225   8.751  17.932  0.00  0.00    +0.136 C 
ATOM     14  C   UNL     1      15.598   6.676  19.623  0.00  0.00    +0.206 C 
ATOM     15  C   UNL     1      14.327   7.254  17.673  0.00  0.00    +0.179 C 
ATOM     16  C   UNL     1      12.359   9.326  19.434  0.00  0.00    +0.250 C 
ENDROOT
BRANCH  16  17
ATOM      6  O   UNL     1      10.965   9.235  22.823  0.00  0.00    -0.455 OA
ATOM     17  C   UNL     1      11.853   9.596  20.790  0.00  0.00    +0.087 A 
ATOM     18  C   UNL     1      11.344   8.654  21.654  0.00  0.00    +0.220 A 
ATOM     19  C   UNL     1      11.782  10.834  21.471  0.00  0.00    +0.058 A 
ATOM     20  C   UNL     1      11.236  10.561  22.703  0.00  0.00    +0.103 A 
ATOM     23  C   UNL     1      10.906  11.399  23.865  0.00  0.00    +0.086 C 
BRANCH  18  22
ATOM      1  F   UNL     1      12.002   6.455  22.328  0.00  0.00    -0.163 F 
ATOM      2  F   UNL     1       9.890   6.778  21.950  0.00  0.00    -0.163 F 
ATOM      3  F   UNL     1      11.291   6.709  20.288  0.00  0.00    -0.163 F 
ATOM     22  C   UNL     1      11.139   7.201  21.561  0.00  0.00    +0.451 C 
ENDBRANCH  18  22
ENDBRANCH  16  17
BRANCH  12   5
ATOM      5  O   UNL     1      16.537   7.917  21.460  0.00  0.00    -0.468 OA
BRANCH   5  21
ATOM      9  N   UNL     1      18.314   9.417  21.462  0.00  0.00    -0.219 NA
ATOM     10  N   UNL     1      20.097   7.258  21.635  0.00  0.00    -0.256 NA
ATOM     21  C   UNL     1      17.886   8.139  21.503  0.00  0.00    +0.234 A 
ATOM     24  C   UNL     1      18.762   7.079  21.590  0.00  0.00    +0.177 A 
ATOM     25  C   UNL     1      19.649   9.596  21.507  0.00  0.00    +0.134 A 
ATOM     26  C   UNL     1      20.525   8.536  21.592  0.00  0.00    +0.130 A 
ENDBRANCH   5  21
ENDBRANCH  12   5
TORSDOF 4
ENDMDL
MODEL 7
REMARK VINA RESULT:      -5.9     26.555     28.276
REMARK  Name = 75536897
REMARK  5 active torsions:
REMARK  status: ('A' for Active; 'I' for Inactive)
REMARK    1  A    between atoms: O_5  and  C_12
REMARK    2  A    between atoms: O_5  and  C_21
REMARK    3  A    between atoms: C_16  and  C_17
REMARK    4  A    between atoms: C_18  and  C_22
REMARK    5  A    between atoms: C_20  and  C_23
REMARK                            x       y       z     vdW  Elec       q    Type
REMARK                         _______ _______ _______ _____ _____    ______ ____
ROOT
ATOM      4  O   UNL     1      -8.656 -11.537  19.148  0.00  0.00    -0.375 OA
ATOM      7  O   UNL     1      -3.838 -11.822  19.025  0.00  0.00    -0.270 OA
ATOM      8  N   UNL     1      -5.764 -10.745  18.236  0.00  0.00    -0.292 N 
ATOM     11  C   UNL     1      -6.517 -10.198  17.101  0.00  0.00    +0.155 C 
ATOM     12  C   UNL     1      -8.038 -10.122  17.259  0.00  0.00    +0.218 C 
ATOM     13  C   UNL     1      -6.386 -10.718  19.561  0.00  0.00    +0.136 C 
ATOM     14  C   UNL     1      -8.662 -11.435  17.728  0.00  0.00    +0.206 C 
ATOM     15  C   UNL     1      -7.389 -11.853  19.718  0.00  0.00    +0.179 C 
ATOM     16  C   UNL     1      -4.491 -11.325  18.109  0.00  0.00    +0.250 C 
ENDROOT
BRANCH  16  17
ATOM      6  O   UNL     1      -3.346 -12.039  14.701  0.00  0.00    -0.455 OA
ATOM     17  C   UNL     1      -3.866 -11.351  16.777  0.00  0.00    +0.087 A 
ATOM     18  C   UNL     1      -4.076 -12.312  15.815  0.00  0.00    +0.220 A 
ATOM     19  C   UNL     1      -2.948 -10.429  16.219  0.00  0.00    +0.058 A 
ATOM     20  C   UNL     1      -2.663 -10.892  14.955  0.00  0.00    +0.103 A 
ATOM     23  C   UNL     1      -1.797 -10.398  13.874  0.00  0.00    +0.086 C 
BRANCH  18  22
ATOM      1  F   UNL     1      -4.647 -14.341  14.685  0.00  0.00    -0.163 F 
ATOM      2  F   UNL     1      -4.768 -14.352  16.851  0.00  0.00    -0.163 F 
ATOM      3  F   UNL     1      -6.249 -13.266  15.688  0.00  0.00    -0.163 F 
ATOM     22  C   UNL     1      -4.903 -13.526  15.761  0.00  0.00    +0.451 C 
ENDBRANCH  18  22
ENDBRANCH  16  17
BRANCH  12   5
ATOM      5  O   UNL     1      -8.569  -9.786  15.976  0.00  0.00    -0.468 OA
BRANCH   5  21
ATOM      9  N   UNL     1     -10.245  -8.673  14.811  0.00  0.00    -0.219 NA
ATOM     10  N   UNL     1     -10.698  -7.062  17.063  0.00  0.00    -0.256 NA
ATOM     21  C   UNL     1      -9.534  -8.817  15.947  0.00  0.00    +0.234 A 
ATOM     24  C   UNL     1      -9.757  -8.027  17.053  0.00  0.00    +0.177 A 
ATOM     25  C   UNL     1     -11.186  -7.708  14.821  0.00  0.00    +0.134 A 
ATOM     26  C   UNL     1     -11.409  -6.917  15.926  0.00  0.00    +0.130 A 
ENDBRANCH   5  21
ENDBRANCH  12   5
TORSDOF 4
ENDMDL
MODEL 8
REMARK VINA RESULT:      -5.8     25.582     27.483
REMARK  Name = 75536897
REMARK  5 active torsions:
REMARK  status: ('A' for Active; 'I' for Inactive)
REMARK    1  A    between atoms: O_5  and  C_12
REMARK    2  A    between atoms: O_5  and  C_21
REMARK    3  A    between atoms: C_16  and  C_17
REMARK    4  A    between atoms: C_18  and  C_22
REMARK    5  A    between atoms: C_20  and  C_23
REMARK                            x       y       z     vdW  Elec       q    Type
REMARK                         _______ _______ _______ _____ _____    ______ ____
ROOT
ATOM      4  O   UNL     1      -2.437 -11.226  16.550  0.00  0.00    -0.375 OA
ATOM      7  O   UNL     1      -0.992 -10.774  11.965  0.00  0.00    -0.270 OA
ATOM      8  N   UNL     1      -2.729 -10.500  13.515  0.00  0.00    -0.292 N 
ATOM     11  C   UNL     1      -4.149 -10.665  13.846  0.00  0.00    +0.155 C 
ATOM     12  C   UNL     1      -4.501 -10.764  15.333  0.00  0.00    +0.218 C 
ATOM     13  C   UNL     1      -1.833  -9.964  14.541  0.00  0.00    +0.136 C 
ATOM     14  C   UNL     1      -3.656 -11.792  16.084  0.00  0.00    +0.206 C 
ATOM     15  C   UNL     1      -1.444 -11.040  15.545  0.00  0.00    +0.179 C 
ATOM     16  C   UNL     1      -2.179 -10.866  12.275  0.00  0.00    +0.250 C 
ENDROOT
BRANCH  16  17
ATOM      6  O   UNL     1      -4.462 -11.470   9.471  0.00  0.00    -0.455 OA
ATOM     17  C   UNL     1      -3.081 -11.405  11.243  0.00  0.00    +0.087 A 
ATOM     18  C   UNL     1      -3.697 -10.668  10.258  0.00  0.00    +0.220 A 
ATOM     19  C   UNL     1      -3.494 -12.744  11.050  0.00  0.00    +0.058 A 
ATOM     20  C   UNL     1      -4.333 -12.731   9.960  0.00  0.00    +0.103 A 
ATOM     23  C   UNL     1      -5.081 -13.781   9.254  0.00  0.00    +0.086 C 
BRANCH  18  22
ATOM      1  F   UNL     1      -4.151  -8.963   8.642  0.00  0.00    -0.163 F 
ATOM      2  F   UNL     1      -4.453  -8.449  10.728  0.00  0.00    -0.163 F 
ATOM      3  F   UNL     1      -2.436  -8.676   9.948  0.00  0.00    -0.163 F 
ATOM     22  C   UNL     1      -3.687  -9.240   9.906  0.00  0.00    +0.451 C 
ENDBRANCH  18  22
ENDBRANCH  16  17
BRANCH  12   5
ATOM      5  O   UNL     1      -5.875 -11.147  15.407  0.00  0.00    -0.468 OA
BRANCH   5  21
ATOM      9  N   UNL     1      -6.416 -10.123  17.423  0.00  0.00    -0.219 NA
ATOM     10  N   UNL     1      -7.495 -12.549  18.330  0.00  0.00    -0.256 NA
ATOM     21  C   UNL     1      -6.419 -11.234  16.658  0.00  0.00    +0.234 A 
ATOM     24  C   UNL     1      -6.950 -12.424  17.104  0.00  0.00    +0.177 A 
ATOM     25  C   UNL     1      -6.961 -10.248  18.650  0.00  0.00    +0.134 A 
ATOM     26  C   UNL     1      -7.491 -11.439  19.095  0.00  0.00    +0.130 A 
ENDBRANCH   5  21
ENDBRANCH  12   5
TORSDOF 4
ENDMDL
MODEL 9
REMARK VINA RESULT:      -5.7     27.946     29.744
REMARK  Name = 75536897
REMARK  5 active torsions:
REMARK  status: ('A' for Active; 'I' for Inactive)
REMARK    1  A    between atoms: O_5  and  C_12
REMARK    2  A    between atoms: O_5  and  C_21
REMARK    3  A    between atoms: C_16  and  C_17
REMARK    4  A    between atoms: C_18  and  C_22
REMARK    5  A    between atoms: C_20  and  C_23
REMARK                            x       y       z     vdW  Elec       q    Type
REMARK                         _______ _______ _______ _____ _____    ______ ____
ROOT
ATOM      4  O   UNL     1     -12.003 -10.544  18.662  0.00  0.00    -0.375 OA
ATOM      7  O   UNL     1      -8.368 -13.223  20.373  0.00  0.00    -0.270 OA
ATOM      8  N   UNL     1      -9.009 -11.357  19.108  0.00  0.00    -0.292 N 
ATOM     11  C   UNL     1      -8.848 -10.555  17.889  0.00  0.00    +0.155 C 
ATOM     12  C   UNL     1     -10.052  -9.716  17.454  0.00  0.00    +0.218 C 
ATOM     13  C   UNL     1     -10.042 -10.964  20.067  0.00  0.00    +0.136 C 
ATOM     14  C   UNL     1     -11.353 -10.515  17.397  0.00  0.00    +0.206 C 
ATOM     15  C   UNL     1     -11.418 -11.431  19.612  0.00  0.00    +0.179 C 
ATOM     16  C   UNL     1      -8.246 -12.505  19.382  0.00  0.00    +0.250 C 
ENDROOT
BRANCH  16  17
ATOM      6  O   UNL     1      -5.208 -13.012  17.395  0.00  0.00    -0.455 OA
ATOM     17  C   UNL     1      -7.207 -12.899  18.417  0.00  0.00    +0.087 A 
ATOM     18  C   UNL     1      -5.905 -12.455  18.421  0.00  0.00    +0.220 A 
ATOM     19  C   UNL     1      -7.318 -13.784  17.319  0.00  0.00    +0.058 A 
ATOM     20  C   UNL     1      -6.075 -13.819  16.730  0.00  0.00    +0.103 A 
ATOM     23  C   UNL     1      -5.533 -14.537  15.567  0.00  0.00    +0.086 C 
BRANCH  18  22
ATOM      1  F   UNL     1      -3.830 -11.868  19.457  0.00  0.00    -0.163 F 
ATOM      2  F   UNL     1      -5.117 -10.236  18.834  0.00  0.00    -0.163 F 
ATOM      3  F   UNL     1      -5.657 -11.445  20.559  0.00  0.00    -0.163 F 
ATOM     22  C   UNL     1      -5.152 -11.534  19.285  0.00  0.00    +0.451 C 
ENDBRANCH  18  22
ENDBRANCH  16  17
BRANCH  12   5
ATOM      5  O   UNL     1      -9.755  -9.214  16.150  0.00  0.00    -0.468 OA
BRANCH   5  21
ATOM      9  N   UNL     1     -10.507  -7.045  16.517  0.00  0.00    -0.219 NA
ATOM     10  N   UNL     1     -11.898  -7.148  14.084  0.00  0.00    -0.256 NA
ATOM     21  C   UNL     1     -10.486  -8.138  15.728  0.00  0.00    +0.234 A 
ATOM     24  C   UNL     1     -11.168  -8.188  14.533  0.00  0.00    +0.177 A 
ATOM     25  C   UNL     1     -11.237  -6.005  16.068  0.00  0.00    +0.134 A 
ATOM     26  C   UNL     1     -11.920  -6.055  14.873  0.00  0.00    +0.130 A 
ENDBRANCH   5  21
ENDBRANCH  12   5
TORSDOF 4
ENDMDL
MODEL 10
REMARK VINA RESULT:      -5.6     25.958     27.806
REMARK  Name = 75536897
REMARK  5 active torsions:
REMARK  status: ('A' for Active; 'I' for Inactive)
REMARK    1  A    between atoms: O_5  and  C_12
REMARK    2  A    between atoms: O_5  and  C_21
REMARK    3  A    between atoms: C_16  and  C_17
REMARK    4  A    between atoms: C_18  and  C_22
REMARK    5  A    between atoms: C_20  and  C_23
REMARK                            x       y       z     vdW  Elec       q    Type
REMARK                         _______ _______ _______ _____ _____    ______ ____
ROOT
ATOM      4  O   UNL     1      -7.367 -13.617  16.316  0.00  0.00    -0.375 OA
ATOM      7  O   UNL     1      -2.876 -13.860  14.559  0.00  0.00    -0.270 OA
ATOM      8  N   UNL     1      -4.533 -12.525  15.542  0.00  0.00    -0.292 N 
ATOM     11  C   UNL     1      -5.267 -11.255  15.565  0.00  0.00    +0.155 C 
ATOM     12  C   UNL     1      -6.670 -11.283  16.176  0.00  0.00    +0.218 C 
ATOM     13  C   UNL     1      -4.925 -13.573  16.487  0.00  0.00    +0.136 C 
ATOM     14  C   UNL     1      -7.551 -12.396  15.609  0.00  0.00    +0.206 C 
ATOM     15  C   UNL     1      -6.164 -14.312  16.001  0.00  0.00    +0.179 C 
ATOM     16  C   UNL     1      -3.496 -12.801  14.634  0.00  0.00    +0.250 C 
ENDROOT
BRANCH  16  17
ATOM      6  O   UNL     1      -2.088  -9.917  12.863  0.00  0.00    -0.455 OA
ATOM     17  C   UNL     1      -3.102 -11.747  13.685  0.00  0.00    +0.087 A 
ATOM     18  C   UNL     1      -2.235 -10.713  13.955  0.00  0.00    +0.220 A 
ATOM     19  C   UNL     1      -3.513 -11.575  12.342  0.00  0.00    +0.058 A 
ATOM     20  C   UNL     1      -2.868 -10.449  11.886  0.00  0.00    +0.103 A 
ATOM     23  C   UNL     1      -2.864  -9.744  10.596  0.00  0.00    +0.086 C 
BRANCH  18  22
ATOM      1  F   UNL     1      -2.234 -10.109  16.270  0.00  0.00    -0.163 F 
ATOM      2  F   UNL     1      -0.530 -11.240  15.546  0.00  0.00    -0.163 F 
ATOM      3  F   UNL     1      -0.765  -9.153  14.983  0.00  0.00    -0.163 F 
ATOM     22  C   UNL     1      -1.469 -10.320  15.148  0.00  0.00    +0.451 C 
ENDBRANCH  18  22
ENDBRANCH  16  17
BRANCH  12   5
ATOM      5  O   UNL     1      -7.271 -10.020  15.886  0.00  0.00    -0.468 OA
BRANCH   5  21
ATOM      9  N   UNL     1      -8.591 -10.225  17.789  0.00  0.00    -0.219 NA
ATOM     10  N   UNL     1     -10.559  -8.651  16.556  0.00  0.00    -0.256 NA
ATOM     21  C   UNL     1      -8.435  -9.731  16.544  0.00  0.00    +0.234 A 
ATOM     24  C   UNL     1      -9.401  -8.957  15.939  0.00  0.00    +0.177 A 
ATOM     25  C   UNL     1      -9.750  -9.919  18.406  0.00  0.00    +0.134 A 
ATOM     26  C   UNL     1     -10.717  -9.146  17.800  0.00  0.00    +0.130 A 
ENDBRANCH   5  21
ENDBRANCH  12   5
TORSDOF 4
ENDMDL
