MODEL 1
REMARK VINA RESULT:      -6.5      0.000      0.000
REMARK  Name = 51138126
REMARK  11 active torsions:
REMARK  status: ('A' for Active; 'I' for Inactive)
REMARK    1  A    between atoms: O_2  and  C_25
REMARK    2  A    between atoms: O_2  and  C_27
REMARK    3  A    between atoms: N_4  and  C_22
REMARK    4  A    between atoms: N_5  and  C_24
REMARK    5  A    between atoms: C_6  and  C_10
REMARK    6  A    between atoms: C_8  and  C_17
REMARK    7  A    between atoms: C_10  and  C_14
REMARK    8  A    between atoms: C_14  and  C_20
REMARK    9  A    between atoms: C_14  and  C_21
REMARK   10  A    between atoms: C_22  and  C_23
REMARK   11  A    between atoms: C_24  and  C_25
REMARK                            x       y       z     vdW  Elec       q    Type
REMARK                         _______ _______ _______ _____ _____    ______ ____
ROOT
ATOM      3  N   UNL     1      -6.783 -10.937  16.475  0.00  0.00    -0.299 NA
ATOM      4  N   UNL     1      -3.719 -10.388  12.500  0.00  0.00    -0.343 N 
ATOM      6  C   UNL     1      -5.429 -10.804  17.031  0.00  0.00    +0.085 C 
ATOM      7  C   UNL     1      -4.285 -10.808  16.013  0.00  0.00    -0.021 A 
ATOM      8  C   UNL     1      -7.200  -9.836  15.619  0.00  0.00    +0.145 C 
ATOM      9  C   UNL     1      -4.432 -10.590  14.614  0.00  0.00    +0.008 A 
ATOM     11  C   UNL     1      -6.986 -10.163  14.142  0.00  0.00    +0.065 C 
ATOM     12  C   UNL     1      -5.552 -10.311  13.756  0.00  0.00    -0.020 A 
ATOM     13  C   UNL     1      -3.299 -10.606  13.790  0.00  0.00    +0.050 A 
ATOM     15  C   UNL     1      -5.069 -10.204  12.468  0.00  0.00    +0.090 A 
ATOM     16  C   UNL     1      -2.957 -10.962  16.487  0.00  0.00    +0.006 A 
ATOM     18  C   UNL     1      -2.004 -10.804  14.270  0.00  0.00    +0.026 A 
ATOM     19  C   UNL     1      -1.849 -10.971  15.640  0.00  0.00    +0.002 A 
ATOM     28  H   UNL     1      -6.897 -11.834  16.005  0.00  0.00    +0.123 HD
ENDROOT
BRANCH   8  17
ATOM      1  O   UNL     1      -9.324 -10.528  16.460  0.00  0.00    -0.274 OA
ATOM      5  N   UNL     1      -9.154  -8.476  15.372  0.00  0.00    -0.312 N 
ATOM     17  C   UNL     1      -8.666  -9.669  15.878  0.00  0.00    +0.230 C 
ATOM     29  H   UNL     1      -8.516  -7.827  14.921  0.00  0.00    +0.149 HD
BRANCH   5  24
ATOM     24  C   UNL     1     -10.541  -8.085  15.470  0.00  0.00    +0.132 C 
BRANCH  24  25
ATOM     25  C   UNL     1     -10.782  -7.174  16.661  0.00  0.00    +0.178 C 
BRANCH  25   2
ATOM      2  O   UNL     1     -11.069  -5.860  16.199  0.00  0.00    -0.381 OA
ATOM     27  C   UNL     1     -11.894  -5.882  15.043  0.00  0.00    +0.194 C 
ENDBRANCH  25   2
ENDBRANCH  24  25
ENDBRANCH   5  24
ENDBRANCH   8  17
BRANCH   6  10
ATOM     10  C   UNL     1      -5.315 -11.950  18.053  0.00  0.00    +0.026 C 
BRANCH  10  14
ATOM     14  C   UNL     1      -5.935 -11.606  19.411  0.00  0.00    -0.015 C 
ATOM     20  C   UNL     1      -6.203 -10.109  19.573  0.00  0.00    +0.007 C 
ATOM     21  C   UNL     1      -7.238 -12.388  19.584  0.00  0.00    +0.007 C 
ENDBRANCH  10  14
ENDBRANCH   6  10
BRANCH   4  22
ATOM     22  C   UNL     1      -2.864 -10.338  11.333  0.00  0.00    +0.148 C 
BRANCH  22  23
ATOM     23  C   UNL     1      -3.152  -9.151  10.462  0.00  0.00    -0.013 C 
ATOM     26  C   UNL     1      -3.902  -9.200   9.355  0.00  0.00    +0.005 C 
ENDBRANCH  22  23
ENDBRANCH   4  22
TORSDOF 8
ENDMDL
MODEL 2
REMARK VINA RESULT:      -6.4     27.383     29.381
REMARK  Name = 51138126
REMARK  11 active torsions:
REMARK  status: ('A' for Active; 'I' for Inactive)
REMARK    1  A    between atoms: O_2  and  C_25
REMARK    2  A    between atoms: O_2  and  C_27
REMARK    3  A    between atoms: N_4  and  C_22
REMARK    4  A    between atoms: N_5  and  C_24
REMARK    5  A    between atoms: C_6  and  C_10
REMARK    6  A    between atoms: C_8  and  C_17
REMARK    7  A    between atoms: C_10  and  C_14
REMARK    8  A    between atoms: C_14  and  C_20
REMARK    9  A    between atoms: C_14  and  C_21
REMARK   10  A    between atoms: C_22  and  C_23
REMARK   11  A    between atoms: C_24  and  C_25
REMARK                            x       y       z     vdW  Elec       q    Type
REMARK                         _______ _______ _______ _____ _____    ______ ____
ROOT
ATOM      3  N   UNL     1      14.661   8.307  21.562  0.00  0.00    -0.299 NA
ATOM      4  N   UNL     1      19.406   6.774  20.770  0.00  0.00    -0.343 N 
ATOM      6  C   UNL     1      15.483   9.524  21.598  0.00  0.00    +0.085 C 
ATOM      7  C   UNL     1      16.999   9.307  21.565  0.00  0.00    -0.021 A 
ATOM      8  C   UNL     1      14.781   7.529  20.337  0.00  0.00    +0.145 C 
ATOM      9  C   UNL     1      17.647   8.102  21.170  0.00  0.00    +0.008 A 
ATOM     11  C   UNL     1      15.774   6.378  20.499  0.00  0.00    +0.065 C 
ATOM     12  C   UNL     1      17.183   6.822  20.706  0.00  0.00    -0.020 A 
ATOM     13  C   UNL     1      19.046   8.039  21.171  0.00  0.00    +0.050 A 
ATOM     15  C   UNL     1      18.296   6.037  20.482  0.00  0.00    +0.090 A 
ATOM     16  C   UNL     1      17.847  10.402  21.874  0.00  0.00    +0.006 A 
ATOM     18  C   UNL     1      19.864   9.114  21.523  0.00  0.00    +0.026 A 
ATOM     19  C   UNL     1      19.238  10.306  21.864  0.00  0.00    +0.002 A 
ATOM     28  H   UNL     1      14.828   7.729  22.384  0.00  0.00    +0.123 HD
ENDROOT
BRANCH   8  17
ATOM      1  O   UNL     1      12.925   6.913  18.967  0.00  0.00    -0.274 OA
ATOM      5  N   UNL     1      12.802   6.551  21.264  0.00  0.00    -0.312 N 
ATOM     17  C   UNL     1      13.414   6.965  20.093  0.00  0.00    +0.230 C 
ATOM     29  H   UNL     1      13.306   6.624  22.143  0.00  0.00    +0.149 HD
BRANCH   5  24
ATOM     24  C   UNL     1      11.471   5.991  21.304  0.00  0.00    +0.132 C 
BRANCH  24  25
ATOM     25  C   UNL     1      10.481   6.950  21.941  0.00  0.00    +0.178 C 
BRANCH  25   2
ATOM      2  O   UNL     1      10.593   8.224  21.321  0.00  0.00    -0.381 OA
ATOM     27  C   UNL     1      10.677   9.267  22.283  0.00  0.00    +0.194 C 
ENDBRANCH  25   2
ENDBRANCH  24  25
ENDBRANCH   5  24
ENDBRANCH   8  17
BRANCH   6  10
ATOM     10  C   UNL     1      15.020  10.268  22.864  0.00  0.00    +0.026 C 
BRANCH  10  14
ATOM     14  C   UNL     1      13.827  11.195  22.611  0.00  0.00    -0.015 C 
ATOM     20  C   UNL     1      13.462  12.032  23.837  0.00  0.00    +0.007 C 
ATOM     21  C   UNL     1      14.145  12.117  21.432  0.00  0.00    +0.007 C 
ENDBRANCH  10  14
ENDBRANCH   6  10
BRANCH   4  22
ATOM     22  C   UNL     1      20.762   6.285  20.643  0.00  0.00    +0.148 C 
BRANCH  22  23
ATOM     23  C   UNL     1      21.172   5.424  21.801  0.00  0.00    -0.013 C 
ATOM     26  C   UNL     1      21.690   4.197  21.675  0.00  0.00    +0.005 C 
ENDBRANCH  22  23
ENDBRANCH   4  22
TORSDOF 8
ENDMDL
MODEL 3
REMARK VINA RESULT:      -6.4     26.570     28.619
REMARK  Name = 51138126
REMARK  11 active torsions:
REMARK  status: ('A' for Active; 'I' for Inactive)
REMARK    1  A    between atoms: O_2  and  C_25
REMARK    2  A    between atoms: O_2  and  C_27
REMARK    3  A    between atoms: N_4  and  C_22
REMARK    4  A    between atoms: N_5  and  C_24
REMARK    5  A    between atoms: C_6  and  C_10
REMARK    6  A    between atoms: C_8  and  C_17
REMARK    7  A    between atoms: C_10  and  C_14
REMARK    8  A    between atoms: C_14  and  C_20
REMARK    9  A    between atoms: C_14  and  C_21
REMARK   10  A    between atoms: C_22  and  C_23
REMARK   11  A    between atoms: C_24  and  C_25
REMARK                            x       y       z     vdW  Elec       q    Type
REMARK                         _______ _______ _______ _____ _____    ______ ____
ROOT
ATOM      3  N   UNL     1      13.926   9.350  18.676  0.00  0.00    -0.299 NA
ATOM      4  N   UNL     1      11.189  11.016  22.578  0.00  0.00    -0.343 N 
ATOM      6  C   UNL     1      13.010   8.253  19.017  0.00  0.00    +0.085 C 
ATOM      7  C   UNL     1      12.190   8.440  20.297  0.00  0.00    -0.021 A 
ATOM      8  C   UNL     1      13.272  10.617  18.376  0.00  0.00    +0.145 C 
ATOM      9  C   UNL     1      11.990   9.680  20.969  0.00  0.00    +0.008 A 
ATOM     11  C   UNL     1      13.252  11.538  19.595  0.00  0.00    +0.065 C 
ATOM     12  C   UNL     1      12.414  11.032  20.722  0.00  0.00    -0.020 A 
ATOM     13  C   UNL     1      11.204   9.718  22.127  0.00  0.00    +0.050 A 
ATOM     15  C   UNL     1      11.907  11.816  21.739  0.00  0.00    +0.090 A 
ATOM     16  C   UNL     1      11.503   7.320  20.832  0.00  0.00    +0.006 A 
ATOM     18  C   UNL     1      10.573   8.595  22.664  0.00  0.00    +0.026 A 
ATOM     19  C   UNL     1      10.726   7.392  21.987  0.00  0.00    +0.002 A 
ATOM     28  H   UNL     1      14.641   9.464  19.392  0.00  0.00    +0.123 HD
ENDROOT
BRANCH   8  17
ATOM      1  O   UNL     1      15.026  12.015  17.560  0.00  0.00    -0.274 OA
ATOM      5  N   UNL     1      13.692  10.869  16.033  0.00  0.00    -0.312 N 
ATOM     17  C   UNL     1      14.104  11.245  17.301  0.00  0.00    +0.230 C 
ATOM     29  H   UNL     1      12.926  10.210  15.933  0.00  0.00    +0.149 HD
BRANCH   5  24
ATOM     24  C   UNL     1      14.316  11.354  14.824  0.00  0.00    +0.132 C 
BRANCH  24  25
ATOM     25  C   UNL     1      13.453  12.393  14.130  0.00  0.00    +0.178 C 
BRANCH  25   2
ATOM      2  O   UNL     1      12.884  11.827  12.956  0.00  0.00    -0.381 OA
ATOM     27  C   UNL     1      11.529  12.222  12.791  0.00  0.00    +0.194 C 
ENDBRANCH  25   2
ENDBRANCH  24  25
ENDBRANCH   5  24
ENDBRANCH   8  17
BRANCH   6  10
ATOM     10  C   UNL     1      13.905   7.002  19.067  0.00  0.00    +0.026 C 
BRANCH  10  14
ATOM     14  C   UNL     1      15.272   7.268  19.705  0.00  0.00    -0.015 C 
ATOM     20  C   UNL     1      15.258   7.088  21.223  0.00  0.00    +0.007 C 
ATOM     21  C   UNL     1      16.311   6.332  19.083  0.00  0.00    +0.007 C 
ENDBRANCH  10  14
ENDBRANCH   6  10
BRANCH   4  22
ATOM     22  C   UNL     1      10.499  11.490  23.759  0.00  0.00    +0.148 C 
BRANCH  22  23
ATOM     23  C   UNL     1      10.638  12.971  23.949  0.00  0.00    -0.013 C 
ATOM     26  C   UNL     1      10.799  13.561  25.139  0.00  0.00    +0.005 C 
ENDBRANCH  22  23
ENDBRANCH   4  22
TORSDOF 8
ENDMDL
MODEL 4
REMARK VINA RESULT:      -6.3      1.573      2.302
REMARK  Name = 51138126
REMARK  11 active torsions:
REMARK  status: ('A' for Active; 'I' for Inactive)
REMARK    1  A    between atoms: O_2  and  C_25
REMARK    2  A    between atoms: O_2  and  C_27
REMARK    3  A    between atoms: N_4  and  C_22
REMARK    4  A    between atoms: N_5  and  C_24
REMARK    5  A    between atoms: C_6  and  C_10
REMARK    6  A    between atoms: C_8  and  C_17
REMARK    7  A    between atoms: C_10  and  C_14
REMARK    8  A    between atoms: C_14  and  C_20
REMARK    9  A    between atoms: C_14  and  C_21
REMARK   10  A    between atoms: C_22  and  C_23
REMARK   11  A    between atoms: C_24  and  C_25
REMARK                            x       y       z     vdW  Elec       q    Type
REMARK                         _______ _______ _______ _____ _____    ______ ____
ROOT
ATOM      3  N   UNL     1      -6.732 -10.861  16.091  0.00  0.00    -0.299 NA
ATOM      4  N   UNL     1      -3.600 -10.449  12.153  0.00  0.00    -0.343 N 
ATOM      6  C   UNL     1      -5.387 -10.725  16.665  0.00  0.00    +0.085 C 
ATOM      7  C   UNL     1      -4.226 -10.767  15.667  0.00  0.00    -0.021 A 
ATOM      8  C   UNL     1      -7.124  -9.779  15.199  0.00  0.00    +0.145 C 
ATOM      9  C   UNL     1      -4.348 -10.586  14.259  0.00  0.00    +0.008 A 
ATOM     11  C   UNL     1      -6.891 -10.148  13.735  0.00  0.00    +0.065 C 
ATOM     12  C   UNL     1      -5.452 -10.320  13.377  0.00  0.00    -0.020 A 
ATOM     13  C   UNL     1      -3.202 -10.635  13.455  0.00  0.00    +0.050 A 
ATOM     15  C   UNL     1      -4.947 -10.252  12.093  0.00  0.00    +0.090 A 
ATOM     16  C   UNL     1      -2.907 -10.921  16.166  0.00  0.00    +0.006 A 
ATOM     18  C   UNL     1      -1.917 -10.833  13.961  0.00  0.00    +0.026 A 
ATOM     19  C   UNL     1      -1.786 -10.963  15.338  0.00  0.00    +0.002 A 
ATOM     28  H   UNL     1      -6.847 -11.769  15.643  0.00  0.00    +0.123 HD
ENDROOT
BRANCH   8  17
ATOM      1  O   UNL     1      -9.415  -9.750  14.530  0.00  0.00    -0.274 OA
ATOM      5  N   UNL     1      -8.875  -9.212  16.730  0.00  0.00    -0.312 N 
ATOM     17  C   UNL     1      -8.593  -9.591  15.429  0.00  0.00    +0.230 C 
ATOM     29  H   UNL     1      -8.116  -9.125  17.400  0.00  0.00    +0.149 HD
BRANCH   5  24
ATOM     24  C   UNL     1     -10.214  -8.946  17.203  0.00  0.00    +0.132 C 
BRANCH  24  25
ATOM     25  C   UNL     1     -10.476  -9.617  18.540  0.00  0.00    +0.178 C 
BRANCH  25   2
ATOM      2  O   UNL     1      -9.414 -10.514  18.835  0.00  0.00    -0.381 OA
ATOM     27  C   UNL     1      -9.747 -11.381  19.910  0.00  0.00    +0.194 C 
ENDBRANCH  25   2
ENDBRANCH  24  25
ENDBRANCH   5  24
ENDBRANCH   8  17
BRANCH   6  10
ATOM     10  C   UNL     1      -5.300 -11.844  17.719  0.00  0.00    +0.026 C 
BRANCH  10  14
ATOM     14  C   UNL     1      -4.818 -11.344  19.085  0.00  0.00    -0.015 C 
ATOM     20  C   UNL     1      -5.934 -11.320  20.130  0.00  0.00    +0.007 C 
ATOM     21  C   UNL     1      -3.671 -12.232  19.572  0.00  0.00    +0.007 C 
ENDBRANCH  10  14
ENDBRANCH   6  10
BRANCH   4  22
ATOM     22  C   UNL     1      -2.725 -10.438  10.999  0.00  0.00    +0.148 C 
BRANCH  22  23
ATOM     23  C   UNL     1      -2.011  -9.130  10.834  0.00  0.00    -0.013 C 
ATOM     26  C   UNL     1      -0.711  -8.949  11.096  0.00  0.00    +0.005 C 
ENDBRANCH  22  23
ENDBRANCH   4  22
TORSDOF 8
ENDMDL
MODEL 5
REMARK VINA RESULT:      -6.3     27.680     29.634
REMARK  Name = 51138126
REMARK  11 active torsions:
REMARK  status: ('A' for Active; 'I' for Inactive)
REMARK    1  A    between atoms: O_2  and  C_25
REMARK    2  A    between atoms: O_2  and  C_27
REMARK    3  A    between atoms: N_4  and  C_22
REMARK    4  A    between atoms: N_5  and  C_24
REMARK    5  A    between atoms: C_6  and  C_10
REMARK    6  A    between atoms: C_8  and  C_17
REMARK    7  A    between atoms: C_10  and  C_14
REMARK    8  A    between atoms: C_14  and  C_20
REMARK    9  A    between atoms: C_14  and  C_21
REMARK   10  A    between atoms: C_22  and  C_23
REMARK   11  A    between atoms: C_24  and  C_25
REMARK                            x       y       z     vdW  Elec       q    Type
REMARK                         _______ _______ _______ _____ _____    ______ ____
ROOT
ATOM      3  N   UNL     1      14.516  10.101  20.715  0.00  0.00    -0.299 NA
ATOM      4  N   UNL     1      19.020   7.860  21.145  0.00  0.00    -0.343 N 
ATOM      6  C   UNL     1      14.337   8.743  20.183  0.00  0.00    +0.085 C 
ATOM      7  C   UNL     1      15.614   7.911  20.032  0.00  0.00    -0.021 A 
ATOM      8  C   UNL     1      15.020  10.157  22.080  0.00  0.00    +0.145 C 
ATOM      9  C   UNL     1      16.860   8.200  20.658  0.00  0.00    +0.008 A 
ATOM     11  C   UNL     1      16.533  10.372  22.110  0.00  0.00    +0.065 C 
ATOM     12  C   UNL     1      17.316   9.230  21.552  0.00  0.00    -0.020 A 
ATOM     13  C   UNL     1      17.952   7.348  20.448  0.00  0.00    +0.050 A 
ATOM     15  C   UNL     1      18.649   8.987  21.817  0.00  0.00    +0.090 A 
ATOM     16  C   UNL     1      15.557   6.712  19.276  0.00  0.00    +0.006 A 
ATOM     18  C   UNL     1      17.888   6.196  19.663  0.00  0.00    +0.026 A 
ATOM     19  C   UNL     1      16.662   5.884  19.087  0.00  0.00    +0.002 A 
ATOM     28  H   UNL     1      15.085  10.666  20.088  0.00  0.00    +0.123 HD
ENDROOT
BRANCH   8  17
ATOM      1  O   UNL     1      14.725  12.491  22.487  0.00  0.00    -0.274 OA
ATOM      5  N   UNL     1      13.296  10.975  23.526  0.00  0.00    -0.312 N 
ATOM     17  C   UNL     1      14.345  11.342  22.701  0.00  0.00    +0.230 C 
ATOM     29  H   UNL     1      13.055   9.992  23.619  0.00  0.00    +0.149 HD
BRANCH   5  24
ATOM     24  C   UNL     1      12.497  11.928  24.261  0.00  0.00    +0.132 C 
BRANCH  24  25
ATOM     25  C   UNL     1      11.224  11.295  24.794  0.00  0.00    +0.178 C 
BRANCH  25   2
ATOM      2  O   UNL     1      10.128  12.168  24.558  0.00  0.00    -0.381 OA
ATOM     27  C   UNL     1      10.562  13.505  24.350  0.00  0.00    +0.194 C 
ENDBRANCH  25   2
ENDBRANCH  24  25
ENDBRANCH   5  24
ENDBRANCH   8  17
BRANCH   6  10
ATOM     10  C   UNL     1      13.601   8.943  18.846  0.00  0.00    +0.026 C 
BRANCH  10  14
ATOM     14  C   UNL     1      12.243   8.235  18.798  0.00  0.00    -0.015 C 
ATOM     20  C   UNL     1      11.316   8.663  19.935  0.00  0.00    +0.007 C 
ATOM     21  C   UNL     1      11.575   8.517  17.451  0.00  0.00    +0.007 C 
ENDBRANCH  10  14
ENDBRANCH   6  10
BRANCH   4  22
ATOM     22  C   UNL     1      20.349   7.289  21.189  0.00  0.00    +0.148 C 
BRANCH  22  23
ATOM     23  C   UNL     1      20.501   6.275  22.284  0.00  0.00    -0.013 C 
ATOM     26  C   UNL     1      21.362   5.252  22.241  0.00  0.00    +0.005 C 
ENDBRANCH  22  23
ENDBRANCH   4  22
TORSDOF 8
ENDMDL
MODEL 6
REMARK VINA RESULT:      -6.1     27.489     29.421
REMARK  Name = 51138126
REMARK  11 active torsions:
REMARK  status: ('A' for Active; 'I' for Inactive)
REMARK    1  A    between atoms: O_2  and  C_25
REMARK    2  A    between atoms: O_2  and  C_27
REMARK    3  A    between atoms: N_4  and  C_22
REMARK    4  A    between atoms: N_5  and  C_24
REMARK    5  A    between atoms: C_6  and  C_10
REMARK    6  A    between atoms: C_8  and  C_17
REMARK    7  A    between atoms: C_10  and  C_14
REMARK    8  A    between atoms: C_14  and  C_20
REMARK    9  A    between atoms: C_14  and  C_21
REMARK   10  A    between atoms: C_22  and  C_23
REMARK   11  A    between atoms: C_24  and  C_25
REMARK                            x       y       z     vdW  Elec       q    Type
REMARK                         _______ _______ _______ _____ _____    ______ ____
ROOT
ATOM      3  N   UNL     1      13.707   9.039  19.933  0.00  0.00    -0.299 NA
ATOM      4  N   UNL     1      18.441   8.589  21.630  0.00  0.00    -0.343 N 
ATOM      6  C   UNL     1      14.163   7.714  19.492  0.00  0.00    +0.085 C 
ATOM      7  C   UNL     1      15.645   7.405  19.727  0.00  0.00    -0.021 A 
ATOM      8  C   UNL     1      13.790   9.265  21.369  0.00  0.00    +0.145 C 
ATOM      9  C   UNL     1      16.503   8.122  20.608  0.00  0.00    +0.008 A 
ATOM     11  C   UNL     1      15.068  10.015  21.745  0.00  0.00    +0.065 C 
ATOM     12  C   UNL     1      16.319   9.241  21.494  0.00  0.00    -0.020 A 
ATOM     13  C   UNL     1      17.840   7.728  20.742  0.00  0.00    +0.050 A 
ATOM     15  C   UNL     1      17.536   9.497  22.093  0.00  0.00    +0.090 A 
ATOM     16  C   UNL     1      16.211   6.273  19.085  0.00  0.00    +0.006 A 
ATOM     18  C   UNL     1      18.391   6.638  20.067  0.00  0.00    +0.026 A 
ATOM     19  C   UNL     1      17.547   5.906  19.242  0.00  0.00    +0.002 A 
ATOM     28  H   UNL     1      14.180   9.778  19.415  0.00  0.00    +0.123 HD
ENDROOT
BRANCH   8  17
ATOM      1  O   UNL     1      12.042  10.807  20.856  0.00  0.00    -0.274 OA
ATOM      5  N   UNL     1      12.265  10.040  23.043  0.00  0.00    -0.312 N 
ATOM     17  C   UNL     1      12.605  10.118  21.703  0.00  0.00    +0.230 C 
ATOM     29  H   UNL     1      12.790   9.423  23.656  0.00  0.00    +0.149 HD
BRANCH   5  24
ATOM     24  C   UNL     1      11.173  10.784  23.626  0.00  0.00    +0.132 C 
BRANCH  24  25
ATOM     25  C   UNL     1      11.668  11.806  24.633  0.00  0.00    +0.178 C 
BRANCH  25   2
ATOM      2  O   UNL     1      10.599  12.181  25.491  0.00  0.00    -0.381 OA
ATOM     27  C   UNL     1      10.530  13.590  25.654  0.00  0.00    +0.194 C 
ENDBRANCH  25   2
ENDBRANCH  24  25
ENDBRANCH   5  24
ENDBRANCH   8  17
BRANCH   6  10
ATOM     10  C   UNL     1      13.773   7.643  18.005  0.00  0.00    +0.026 C 
BRANCH  10  14
ATOM     14  C   UNL     1      13.278   8.983  17.451  0.00  0.00    -0.015 C 
ATOM     20  C   UNL     1      14.154   9.509  16.314  0.00  0.00    +0.007 C 
ATOM     21  C   UNL     1      11.836   8.826  16.964  0.00  0.00    +0.007 C 
ENDBRANCH  10  14
ENDBRANCH   6  10
BRANCH   4  22
ATOM     22  C   UNL     1      19.827   8.540  22.043  0.00  0.00    +0.148 C 
BRANCH  22  23
ATOM     23  C   UNL     1      20.708   9.410  21.198  0.00  0.00    -0.013 C 
ATOM     26  C   UNL     1      20.383  10.648  20.808  0.00  0.00    +0.005 C 
ENDBRANCH  22  23
ENDBRANCH   4  22
TORSDOF 8
ENDMDL
MODEL 7
REMARK VINA RESULT:      -6.1      2.154      3.358
REMARK  Name = 51138126
REMARK  11 active torsions:
REMARK  status: ('A' for Active; 'I' for Inactive)
REMARK    1  A    between atoms: O_2  and  C_25
REMARK    2  A    between atoms: O_2  and  C_27
REMARK    3  A    between atoms: N_4  and  C_22
REMARK    4  A    between atoms: N_5  and  C_24
REMARK    5  A    between atoms: C_6  and  C_10
REMARK    6  A    between atoms: C_8  and  C_17
REMARK    7  A    between atoms: C_10  and  C_14
REMARK    8  A    between atoms: C_14  and  C_20
REMARK    9  A    between atoms: C_14  and  C_21
REMARK   10  A    between atoms: C_22  and  C_23
REMARK   11  A    between atoms: C_24  and  C_25
REMARK                            x       y       z     vdW  Elec       q    Type
REMARK                         _______ _______ _______ _____ _____    ______ ____
ROOT
ATOM      3  N   UNL     1      -8.763 -10.214  17.347  0.00  0.00    -0.299 NA
ATOM      4  N   UNL     1      -4.160 -11.301  15.581  0.00  0.00    -0.343 N 
ATOM      6  C   UNL     1      -7.902 -10.339  18.531  0.00  0.00    +0.085 C 
ATOM      7  C   UNL     1      -6.481 -10.849  18.273  0.00  0.00    -0.021 A 
ATOM      8  C   UNL     1      -8.314  -9.233  16.369  0.00  0.00    +0.145 C 
ATOM      9  C   UNL     1      -5.840 -10.882  17.002  0.00  0.00    +0.008 A 
ATOM     11  C   UNL     1      -7.524  -9.892  15.238  0.00  0.00    +0.065 C 
ATOM     12  C   UNL     1      -6.229 -10.490  15.674  0.00  0.00    -0.020 A 
ATOM     13  C   UNL     1      -4.528 -11.362  16.904  0.00  0.00    +0.050 A 
ATOM     15  C   UNL     1      -5.171 -10.774  14.834  0.00  0.00    +0.090 A 
ATOM     16  C   UNL     1      -5.695 -11.255  19.382  0.00  0.00    +0.006 A 
ATOM     18  C   UNL     1      -3.786 -11.800  18.002  0.00  0.00    +0.026 A 
ATOM     19  C   UNL     1      -4.390 -11.726  19.251  0.00  0.00    +0.002 A 
ATOM     28  H   UNL     1      -8.921 -11.122  16.914  0.00  0.00    +0.123 HD
ENDROOT
BRANCH   8  17
ATOM      1  O   UNL     1     -10.503  -9.330  15.421  0.00  0.00    -0.274 OA
ATOM      5  N   UNL     1      -9.514  -7.251  15.768  0.00  0.00    -0.312 N 
ATOM     17  C   UNL     1      -9.567  -8.634  15.807  0.00  0.00    +0.230 C 
ATOM     29  H   UNL     1      -8.694  -6.773  16.131  0.00  0.00    +0.149 HD
BRANCH   5  24
ATOM     24  C   UNL     1     -10.586  -6.433  15.250  0.00  0.00    +0.132 C 
BRANCH  24  25
ATOM     25  C   UNL     1     -11.571  -6.049  16.339  0.00  0.00    +0.178 C 
BRANCH  25   2
ATOM      2  O   UNL     1     -12.897  -6.177  15.843  0.00  0.00    -0.381 OA
ATOM     27  C   UNL     1     -12.994  -5.743  14.494  0.00  0.00    +0.194 C 
ENDBRANCH  25   2
ENDBRANCH  24  25
ENDBRANCH   5  24
ENDBRANCH   8  17
BRANCH   6  10
ATOM     10  C   UNL     1      -8.691 -11.247  19.491  0.00  0.00    +0.026 C 
BRANCH  10  14
ATOM     14  C   UNL     1     -10.199 -11.243  19.217  0.00  0.00    -0.015 C 
ATOM     20  C   UNL     1     -10.823 -12.633  19.340  0.00  0.00    +0.007 C 
ATOM     21  C   UNL     1     -10.885 -10.280  20.188  0.00  0.00    +0.007 C 
ENDBRANCH  10  14
ENDBRANCH   6  10
BRANCH   4  22
ATOM     22  C   UNL     1      -2.881 -11.713  15.043  0.00  0.00    +0.148 C 
BRANCH  22  23
ATOM     23  C   UNL     1      -1.958 -10.554  14.809  0.00  0.00    -0.013 C 
ATOM     26  C   UNL     1      -1.084 -10.100  15.715  0.00  0.00    +0.005 C 
ENDBRANCH  22  23
ENDBRANCH   4  22
TORSDOF 8
ENDMDL
MODEL 8
REMARK VINA RESULT:      -5.9      2.448      6.795
REMARK  Name = 51138126
REMARK  11 active torsions:
REMARK  status: ('A' for Active; 'I' for Inactive)
REMARK    1  A    between atoms: O_2  and  C_25
REMARK    2  A    between atoms: O_2  and  C_27
REMARK    3  A    between atoms: N_4  and  C_22
REMARK    4  A    between atoms: N_5  and  C_24
REMARK    5  A    between atoms: C_6  and  C_10
REMARK    6  A    between atoms: C_8  and  C_17
REMARK    7  A    between atoms: C_10  and  C_14
REMARK    8  A    between atoms: C_14  and  C_20
REMARK    9  A    between atoms: C_14  and  C_21
REMARK   10  A    between atoms: C_22  and  C_23
REMARK   11  A    between atoms: C_24  and  C_25
REMARK                            x       y       z     vdW  Elec       q    Type
REMARK                         _______ _______ _______ _____ _____    ______ ____
ROOT
ATOM      3  N   UNL     1      -4.426 -10.259  14.836  0.00  0.00    -0.299 NA
ATOM      4  N   UNL     1      -8.451 -10.346  17.883  0.00  0.00    -0.343 N 
ATOM      6  C   UNL     1      -4.018 -11.040  16.011  0.00  0.00    +0.085 C 
ATOM      7  C   UNL     1      -5.011 -11.061  17.177  0.00  0.00    -0.021 A 
ATOM      8  C   UNL     1      -5.611 -10.761  14.153  0.00  0.00    +0.145 C 
ATOM      9  C   UNL     1      -6.384 -10.692  17.092  0.00  0.00    +0.008 A 
ATOM     11  C   UNL     1      -6.870 -10.015  14.595  0.00  0.00    +0.065 C 
ATOM     12  C   UNL     1      -7.235 -10.239  16.024  0.00  0.00    -0.020 A 
ATOM     13  C   UNL     1      -7.191 -10.769  18.234  0.00  0.00    +0.050 A 
ATOM     15  C   UNL     1      -8.491 -10.031  16.558  0.00  0.00    +0.090 A 
ATOM     16  C   UNL     1      -4.572 -11.554  18.433  0.00  0.00    +0.006 A 
ATOM     18  C   UNL     1      -6.729 -11.215  19.473  0.00  0.00    +0.026 A 
ATOM     19  C   UNL     1      -5.402 -11.620  19.551  0.00  0.00    +0.002 A 
ATOM     28  H   UNL     1      -4.526  -9.272  15.070  0.00  0.00    +0.123 HD
ENDROOT
BRANCH   8  17
ATOM      1  O   UNL     1      -6.169  -9.862  12.013  0.00  0.00    -0.274 OA
ATOM      5  N   UNL     1      -4.185 -11.058  12.253  0.00  0.00    -0.312 N 
ATOM     17  C   UNL     1      -5.370 -10.495  12.698  0.00  0.00    +0.230 C 
ATOM     29  H   UNL     1      -3.588 -11.550  12.912  0.00  0.00    +0.149 HD
BRANCH   5  24
ATOM     24  C   UNL     1      -3.732 -10.966  10.885  0.00  0.00    +0.132 C 
BRANCH  24  25
ATOM     25  C   UNL     1      -2.878  -9.730  10.662  0.00  0.00    +0.178 C 
BRANCH  25   2
ATOM      2  O   UNL     1      -3.670  -8.710  10.067  0.00  0.00    -0.381 OA
ATOM     27  C   UNL     1      -4.408  -9.203   8.958  0.00  0.00    +0.194 C 
ENDBRANCH  25   2
ENDBRANCH  24  25
ENDBRANCH   5  24
ENDBRANCH   8  17
BRANCH   6  10
ATOM     10  C   UNL     1      -2.651 -10.456  16.410  0.00  0.00    +0.026 C 
BRANCH  10  14
ATOM     14  C   UNL     1      -1.515 -10.908  15.487  0.00  0.00    -0.015 C 
ATOM     20  C   UNL     1      -1.869 -12.163  14.688  0.00  0.00    +0.007 C 
ATOM     21  C   UNL     1      -1.157  -9.769  14.531  0.00  0.00    +0.007 C 
ENDBRANCH  10  14
ENDBRANCH   6  10
BRANCH   4  22
ATOM     22  C   UNL     1      -9.589 -10.260  18.773  0.00  0.00    +0.148 C 
BRANCH  22  23
ATOM     23  C   UNL     1     -10.697  -9.422  18.209  0.00  0.00    -0.013 C 
ATOM     26  C   UNL     1     -11.980  -9.536  18.570  0.00  0.00    +0.005 C 
ENDBRANCH  22  23
ENDBRANCH   4  22
TORSDOF 8
ENDMDL
MODEL 9
REMARK VINA RESULT:      -5.8     20.010     22.840
REMARK  Name = 51138126
REMARK  11 active torsions:
REMARK  status: ('A' for Active; 'I' for Inactive)
REMARK    1  A    between atoms: O_2  and  C_25
REMARK    2  A    between atoms: O_2  and  C_27
REMARK    3  A    between atoms: N_4  and  C_22
REMARK    4  A    between atoms: N_5  and  C_24
REMARK    5  A    between atoms: C_6  and  C_10
REMARK    6  A    between atoms: C_8  and  C_17
REMARK    7  A    between atoms: C_10  and  C_14
REMARK    8  A    between atoms: C_14  and  C_20
REMARK    9  A    between atoms: C_14  and  C_21
REMARK   10  A    between atoms: C_22  and  C_23
REMARK   11  A    between atoms: C_24  and  C_25
REMARK                            x       y       z     vdW  Elec       q    Type
REMARK                         _______ _______ _______ _____ _____    ______ ____
ROOT
ATOM      3  N   UNL     1       5.970  -8.334  34.823  0.00  0.00    -0.299 NA
ATOM      4  N   UNL     1       6.394 -12.577  32.119  0.00  0.00    -0.343 N 
ATOM      6  C   UNL     1       6.047  -7.906  33.420  0.00  0.00    +0.085 C 
ATOM      7  C   UNL     1       6.365  -9.005  32.402  0.00  0.00    -0.021 A 
ATOM      8  C   UNL     1       4.894  -9.271  35.115  0.00  0.00    +0.145 C 
ATOM      9  C   UNL     1       6.256 -10.404  32.644  0.00  0.00    +0.008 A 
ATOM     11  C   UNL     1       5.394 -10.716  35.112  0.00  0.00    +0.065 C 
ATOM     12  C   UNL     1       5.849 -11.195  33.774  0.00  0.00    -0.020 A 
ATOM     13  C   UNL     1       6.565 -11.308  31.620  0.00  0.00    +0.050 A 
ATOM     15  C   UNL     1       5.958 -12.522  33.409  0.00  0.00    +0.090 A 
ATOM     16  C   UNL     1       6.725  -8.624  31.084  0.00  0.00    +0.006 A 
ATOM     18  C   UNL     1       6.962 -10.913  30.342  0.00  0.00    +0.026 A 
ATOM     19  C   UNL     1       7.025  -9.549  30.085  0.00  0.00    +0.002 A 
ATOM     28  H   UNL     1       6.868  -8.692  35.145  0.00  0.00    +0.123 HD
ENDROOT
BRANCH   8  17
ATOM      1  O   UNL     1       3.674  -9.650  37.131  0.00  0.00    -0.274 OA
ATOM      5  N   UNL     1       4.923  -7.697  36.918  0.00  0.00    -0.312 N 
ATOM     17  C   UNL     1       4.427  -8.918  36.494  0.00  0.00    +0.230 C 
ATOM     29  H   UNL     1       5.555  -7.179  36.315  0.00  0.00    +0.149 HD
BRANCH   5  24
ATOM     24  C   UNL     1       4.605  -7.117  38.202  0.00  0.00    +0.132 C 
BRANCH  24  25
ATOM     25  C   UNL     1       5.065  -5.673  38.292  0.00  0.00    +0.178 C 
BRANCH  25   2
ATOM      2  O   UNL     1       6.208  -5.490  37.466  0.00  0.00    -0.381 OA
ATOM     27  C   UNL     1       6.464  -4.113  37.229  0.00  0.00    +0.194 C 
ENDBRANCH  25   2
ENDBRANCH  24  25
ENDBRANCH   5  24
ENDBRANCH   8  17
BRANCH   6  10
ATOM     10  C   UNL     1       7.092  -6.776  33.416  0.00  0.00    +0.026 C 
BRANCH  10  14
ATOM     14  C   UNL     1       8.348  -7.118  34.223  0.00  0.00    -0.015 C 
ATOM     20  C   UNL     1       9.485  -7.643  33.346  0.00  0.00    +0.007 C 
ATOM     21  C   UNL     1       8.813  -5.875  34.984  0.00  0.00    +0.007 C 
ENDBRANCH  10  14
ENDBRANCH   6  10
BRANCH   4  22
ATOM     22  C   UNL     1       6.618 -13.806  31.388  0.00  0.00    +0.148 C 
BRANCH  22  23
ATOM     23  C   UNL     1       5.349 -14.384  30.835  0.00  0.00    -0.013 C 
ATOM     26  C   UNL     1       4.679 -13.862  29.801  0.00  0.00    +0.005 C 
ENDBRANCH  22  23
ENDBRANCH   4  22
TORSDOF 8
ENDMDL
MODEL 10
REMARK VINA RESULT:      -5.8     24.159     27.825
REMARK  Name = 51138126
REMARK  11 active torsions:
REMARK  status: ('A' for Active; 'I' for Inactive)
REMARK    1  A    between atoms: O_2  and  C_25
REMARK    2  A    between atoms: O_2  and  C_27
REMARK    3  A    between atoms: N_4  and  C_22
REMARK    4  A    between atoms: N_5  and  C_24
REMARK    5  A    between atoms: C_6  and  C_10
REMARK    6  A    between atoms: C_8  and  C_17
REMARK    7  A    between atoms: C_10  and  C_14
REMARK    8  A    between atoms: C_14  and  C_20
REMARK    9  A    between atoms: C_14  and  C_21
REMARK   10  A    between atoms: C_22  and  C_23
REMARK   11  A    between atoms: C_24  and  C_25
REMARK                            x       y       z     vdW  Elec       q    Type
REMARK                         _______ _______ _______ _____ _____    ______ ____
ROOT
ATOM      3  N   UNL     1      13.145   6.626   4.691  0.00  0.00    -0.299 NA
ATOM      4  N   UNL     1      13.267   4.424   0.149  0.00  0.00    -0.343 N 
ATOM      6  C   UNL     1      14.160   7.357   3.922  0.00  0.00    +0.085 C 
ATOM      7  C   UNL     1      14.521   6.763   2.557  0.00  0.00    -0.021 A 
ATOM      8  C   UNL     1      11.826   6.585   4.074  0.00  0.00    +0.145 C 
ATOM      9  C   UNL     1      13.744   5.801   1.850  0.00  0.00    +0.008 A 
ATOM     11  C   UNL     1      11.609   5.285   3.301  0.00  0.00    +0.065 C 
ATOM     12  C   UNL     1      12.498   5.133   2.112  0.00  0.00    -0.020 A 
ATOM     13  C   UNL     1      14.181   5.347   0.599  0.00  0.00    +0.050 A 
ATOM     15  C   UNL     1      12.249   4.291   1.046  0.00  0.00    +0.090 A 
ATOM     16  C   UNL     1      15.675   7.248   1.890  0.00  0.00    +0.006 A 
ATOM     18  C   UNL     1      15.344   5.804  -0.021  0.00  0.00    +0.026 A 
ATOM     19  C   UNL     1      16.082   6.776   0.642  0.00  0.00    +0.002 A 
ATOM     28  H   UNL     1      13.470   5.690   4.927  0.00  0.00    +0.123 HD
ENDROOT
BRANCH   8  17
ATOM      1  O   UNL     1       9.746   7.160   5.094  0.00  0.00    -0.274 OA
ATOM      5  N   UNL     1      11.371   6.086   6.370  0.00  0.00    -0.312 N 
ATOM     17  C   UNL     1      10.856   6.646   5.213  0.00  0.00    +0.230 C 
ATOM     29  H   UNL     1      12.298   5.671   6.354  0.00  0.00    +0.149 HD
BRANCH   5  24
ATOM     24  C   UNL     1      10.643   6.038   7.617  0.00  0.00    +0.132 C 
BRANCH  24  25
ATOM     25  C   UNL     1       9.869   4.739   7.762  0.00  0.00    +0.178 C 
BRANCH  25   2
ATOM      2  O   UNL     1      10.135   4.171   9.038  0.00  0.00    -0.381 OA
ATOM     27  C   UNL     1       9.185   4.594  10.006  0.00  0.00    +0.194 C 
ENDBRANCH  25   2
ENDBRANCH  24  25
ENDBRANCH   5  24
ENDBRANCH   8  17
BRANCH   6  10
ATOM     10  C   UNL     1      15.372   7.448   4.866  0.00  0.00    +0.026 C 
BRANCH  10  14
ATOM     14  C   UNL     1      15.515   8.822   5.528  0.00  0.00    -0.015 C 
ATOM     20  C   UNL     1      16.958   9.141   5.917  0.00  0.00    +0.007 C 
ATOM     21  C   UNL     1      14.984   9.898   4.579  0.00  0.00    +0.007 C 
ENDBRANCH  10  14
ENDBRANCH   6  10
BRANCH   4  22
ATOM     22  C   UNL     1      13.346   3.701  -1.103  0.00  0.00    +0.148 C 
BRANCH  22  23
ATOM     23  C   UNL     1      12.027   3.116  -1.511  0.00  0.00    -0.013 C 
ATOM     26  C   UNL     1      11.890   2.140  -2.417  0.00  0.00    +0.005 C 
ENDBRANCH  22  23
ENDBRANCH   4  22
TORSDOF 8
ENDMDL
