MODEL 1
REMARK VINA RESULT:      -6.1      0.000      0.000
REMARK  Name = 7687250
REMARK  6 active torsions:
REMARK  status: ('A' for Active; 'I' for Inactive)
REMARK    1  A    between atoms: S_2  and  N_6
REMARK    2  A    between atoms: S_2  and  C_17
REMARK    3  A    between atoms: C_15  and  C_20
REMARK    4  A    between atoms: C_17  and  C_21
REMARK    5  A    between atoms: C_21  and  C_22
REMARK    6  A    between atoms: C_23  and  C_24
REMARK                            x       y       z     vdW  Elec       q    Type
REMARK                         _______ _______ _______ _____ _____    ______ ____
ROOT
ATOM      5  O   UNL     1      19.438  -5.411  21.411  0.00  0.00    -0.268 OA
ATOM      6  N   UNL     1      18.711  -2.153  25.105  0.00  0.00    -0.180 NA
ATOM      7  N   UNL     1      18.059  -4.467  23.052  0.00  0.00    -0.311 N 
ATOM      8  C   UNL     1      17.407  -1.989  22.985  0.00  0.00    +0.025 C 
ATOM      9  C   UNL     1      16.594  -3.420  24.805  0.00  0.00    +0.052 C 
ATOM     10  C   UNL     1      16.155  -2.451  23.709  0.00  0.00    +0.017 C 
ATOM     11  C   UNL     1      18.366  -1.275  23.951  0.00  0.00    +0.114 C 
ATOM     12  C   UNL     1      17.503  -2.681  25.805  0.00  0.00    +0.118 C 
ATOM     13  C   UNL     1      18.049  -3.200  22.309  0.00  0.00    +0.130 C 
ATOM     14  C   UNL     1      17.313  -4.648  24.236  0.00  0.00    +0.033 A 
ATOM     15  C   UNL     1      17.265  -5.867  24.838  0.00  0.00    -0.005 A 
ATOM     16  C   UNL     1      18.783  -5.510  22.449  0.00  0.00    +0.252 A 
ATOM     18  C   UNL     1      18.005  -6.964  24.233  0.00  0.00    +0.015 A 
ATOM     19  C   UNL     1      18.730  -6.823  23.124  0.00  0.00    +0.071 A 
ENDROOT
BRANCH   6   2
ATOM      2  S   UNL     1      19.964  -1.582  26.121  0.00  0.00    +0.032 S 
ATOM      3  O   UNL     1      19.648  -1.928  27.491  0.00  0.00    -0.158 OA
ATOM      4  O   UNL     1      20.296  -0.228  25.737  0.00  0.00    -0.158 OA
BRANCH   2  17
ATOM     17  C   UNL     1      21.278  -2.643  25.578  0.00  0.00    +0.185 C 
BRANCH  17  21
ATOM     21  C   UNL     1      20.741  -3.962  25.046  0.00  0.00    +0.021 C 
ATOM     22  C   UNL     1      20.684  -5.019  26.135  0.00  0.00    +0.005 C 
ENDBRANCH  17  21
ENDBRANCH   2  17
ENDBRANCH   6   2
BRANCH  15  20
ATOM     20  C   UNL     1      16.534  -6.110  26.070  0.00  0.00    +0.010 C 
ATOM     23  C   UNL     1      16.348  -7.334  26.562  0.00  0.00    +0.008 C 
BRANCH  23  24
ATOM      1 CL   UNL     1      13.344  -8.536  31.573  0.00  0.00    -0.084 Cl
ATOM     24  C   UNL     1      15.607  -7.630  27.800  0.00  0.00    -0.025 A 
ATOM     25  C   UNL     1      15.501  -8.944  28.230  0.00  0.00    +0.009 A 
ATOM     26  C   UNL     1      15.029  -6.590  28.510  0.00  0.00    +0.009 A 
ATOM     27  C   UNL     1      14.799  -9.224  29.402  0.00  0.00    +0.020 A 
ATOM     28  C   UNL     1      14.326  -6.872  29.682  0.00  0.00    +0.020 A 
ATOM     29  C   UNL     1      14.211  -8.189  30.128  0.00  0.00    +0.041 A 
ENDBRANCH  23  24
ENDBRANCH  15  20
TORSDOF 5
ENDMDL
MODEL 2
REMARK VINA RESULT:      -6.1     23.299     26.281
REMARK  Name = 7687250
REMARK  6 active torsions:
REMARK  status: ('A' for Active; 'I' for Inactive)
REMARK    1  A    between atoms: S_2  and  N_6
REMARK    2  A    between atoms: S_2  and  C_17
REMARK    3  A    between atoms: C_15  and  C_20
REMARK    4  A    between atoms: C_17  and  C_21
REMARK    5  A    between atoms: C_21  and  C_22
REMARK    6  A    between atoms: C_23  and  C_24
REMARK                            x       y       z     vdW  Elec       q    Type
REMARK                         _______ _______ _______ _____ _____    ______ ____
ROOT
ATOM      5  O   UNL     1      10.484   5.919   8.520  0.00  0.00    -0.268 OA
ATOM      6  N   UNL     1      11.598   9.360   5.098  0.00  0.00    -0.180 NA
ATOM      7  N   UNL     1      11.557   6.543   6.534  0.00  0.00    -0.311 N 
ATOM      8  C   UNL     1      13.383   8.343   6.512  0.00  0.00    +0.025 C 
ATOM      9  C   UNL     1      12.719   7.248   4.419  0.00  0.00    +0.052 C 
ATOM     10  C   UNL     1      13.913   7.580   5.311  0.00  0.00    +0.017 C 
ATOM     11  C   UNL     1      12.688   9.642   6.074  0.00  0.00    +0.114 C 
ATOM     12  C   UNL     1      12.065   8.555   3.931  0.00  0.00    +0.118 C 
ATOM     13  C   UNL     1      12.456   7.419   7.299  0.00  0.00    +0.130 C 
ATOM     14  C   UNL     1      11.687   6.372   5.140  0.00  0.00    +0.033 A 
ATOM     15  C   UNL     1      10.904   5.474   4.482  0.00  0.00    -0.005 A 
ATOM     16  C   UNL     1      10.629   5.819   7.301  0.00  0.00    +0.252 A 
ATOM     18  C   UNL     1       9.935   4.711   5.254  0.00  0.00    +0.015 A 
ATOM     19  C   UNL     1       9.778   4.858   6.569  0.00  0.00    +0.071 A 
ENDROOT
BRANCH   6   2
ATOM      2  S   UNL     1      10.580  10.683   4.723  0.00  0.00    +0.032 S 
ATOM      3  O   UNL     1      11.053  11.305   3.505  0.00  0.00    -0.158 OA
ATOM      4  O   UNL     1      10.348  11.450   5.927  0.00  0.00    -0.158 OA
BRANCH   2  17
ATOM     17  C   UNL     1       9.090   9.798   4.341  0.00  0.00    +0.185 C 
BRANCH  17  21
ATOM     21  C   UNL     1       8.787   8.743   5.393  0.00  0.00    +0.021 C 
ATOM     22  C   UNL     1       7.942   7.617   4.824  0.00  0.00    +0.005 C 
ENDBRANCH  17  21
ENDBRANCH   2  17
ENDBRANCH   6   2
BRANCH  15  20
ATOM     20  C   UNL     1      10.974   5.270   3.045  0.00  0.00    +0.010 C 
ATOM     23  C   UNL     1      11.646   4.259   2.499  0.00  0.00    +0.008 C 
BRANCH  23  24
ATOM      1 CL   UNL     1      12.085   3.282  -3.370  0.00  0.00    -0.084 Cl
ATOM     24  C   UNL     1      11.754   4.017   1.049  0.00  0.00    -0.025 A 
ATOM     25  C   UNL     1      12.865   3.354   0.553  0.00  0.00    +0.009 A 
ATOM     26  C   UNL     1      10.743   4.458   0.211  0.00  0.00    +0.009 A 
ATOM     27  C   UNL     1      12.967   3.125  -0.819  0.00  0.00    +0.020 A 
ATOM     28  C   UNL     1      10.846   4.230  -1.162  0.00  0.00    +0.020 A 
ATOM     29  C   UNL     1      11.958   3.563  -1.677  0.00  0.00    +0.041 A 
ENDBRANCH  23  24
ENDBRANCH  15  20
TORSDOF 5
ENDMDL
MODEL 3
REMARK VINA RESULT:      -6.1     23.682     26.921
REMARK  Name = 7687250
REMARK  6 active torsions:
REMARK  status: ('A' for Active; 'I' for Inactive)
REMARK    1  A    between atoms: S_2  and  N_6
REMARK    2  A    between atoms: S_2  and  C_17
REMARK    3  A    between atoms: C_15  and  C_20
REMARK    4  A    between atoms: C_17  and  C_21
REMARK    5  A    between atoms: C_21  and  C_22
REMARK    6  A    between atoms: C_23  and  C_24
REMARK                            x       y       z     vdW  Elec       q    Type
REMARK                         _______ _______ _______ _____ _____    ______ ____
ROOT
ATOM      5  O   UNL     1       7.369  10.114   5.104  0.00  0.00    -0.268 OA
ATOM      6  N   UNL     1      11.341   7.374   6.332  0.00  0.00    -0.180 NA
ATOM      7  N   UNL     1       8.529   8.080   5.071  0.00  0.00    -0.311 N 
ATOM      8  C   UNL     1       9.082   6.822   7.235  0.00  0.00    +0.025 C 
ATOM      9  C   UNL     1       9.784   5.902   5.071  0.00  0.00    +0.052 C 
ATOM     10  C   UNL     1       9.023   5.585   6.356  0.00  0.00    +0.017 C 
ATOM     11  C   UNL     1      10.536   7.186   7.573  0.00  0.00    +0.114 C 
ATOM     12  C   UNL     1      11.257   6.203   5.411  0.00  0.00    +0.118 C 
ATOM     13  C   UNL     1       8.344   7.955   6.523  0.00  0.00    +0.130 C 
ATOM     14  C   UNL     1       9.162   7.077   4.307  0.00  0.00    +0.033 A 
ATOM     15  C   UNL     1       9.221   7.180   2.952  0.00  0.00    -0.005 A 
ATOM     16  C   UNL     1       7.946   9.218   4.488  0.00  0.00    +0.252 A 
ATOM     18  C   UNL     1       8.624   8.348   2.323  0.00  0.00    +0.015 A 
ATOM     19  C   UNL     1       8.031   9.320   3.016  0.00  0.00    +0.071 A 
ENDROOT
BRANCH   6   2
ATOM      2  S   UNL     1      12.906   8.027   6.557  0.00  0.00    +0.032 S 
ATOM      3  O   UNL     1      13.808   6.959   6.932  0.00  0.00    -0.158 OA
ATOM      4  O   UNL     1      12.798   9.240   7.339  0.00  0.00    -0.158 OA
BRANCH   2  17
ATOM     17  C   UNL     1      13.267   8.486   4.882  0.00  0.00    +0.185 C 
BRANCH  17  21
ATOM     21  C   UNL     1      12.212   9.427   4.325  0.00  0.00    +0.021 C 
ATOM     22  C   UNL     1      12.164   9.374   2.807  0.00  0.00    +0.005 C 
ENDBRANCH  17  21
ENDBRANCH   2  17
ENDBRANCH   6   2
BRANCH  15  20
ATOM     20  C   UNL     1       9.880   6.193   2.113  0.00  0.00    +0.010 C 
ATOM     23  C   UNL     1       9.819   6.229   0.783  0.00  0.00    +0.008 C 
BRANCH  23  24
ATOM      1 CL   UNL     1      12.419   2.251  -2.822  0.00  0.00    -0.084 Cl
ATOM     24  C   UNL     1      10.461   5.246  -0.107  0.00  0.00    -0.025 A 
ATOM     25  C   UNL     1      11.537   4.509   0.360  0.00  0.00    +0.009 A 
ATOM     26  C   UNL     1       9.976   5.078  -1.394  0.00  0.00    +0.009 A 
ATOM     27  C   UNL     1      12.145   3.579  -0.484  0.00  0.00    +0.020 A 
ATOM     28  C   UNL     1      10.584   4.148  -2.237  0.00  0.00    +0.020 A 
ATOM     29  C   UNL     1      11.669   3.399  -1.782  0.00  0.00    +0.041 A 
ENDBRANCH  23  24
ENDBRANCH  15  20
TORSDOF 5
ENDMDL
MODEL 4
REMARK VINA RESULT:      -6.0     26.421     28.195
REMARK  Name = 7687250
REMARK  6 active torsions:
REMARK  status: ('A' for Active; 'I' for Inactive)
REMARK    1  A    between atoms: S_2  and  N_6
REMARK    2  A    between atoms: S_2  and  C_17
REMARK    3  A    between atoms: C_15  and  C_20
REMARK    4  A    between atoms: C_17  and  C_21
REMARK    5  A    between atoms: C_21  and  C_22
REMARK    6  A    between atoms: C_23  and  C_24
REMARK                            x       y       z     vdW  Elec       q    Type
REMARK                         _______ _______ _______ _____ _____    ______ ____
ROOT
ATOM      5  O   UNL     1      -6.345 -11.637  20.668  0.00  0.00    -0.268 OA
ATOM      6  N   UNL     1      -9.354 -12.150  16.735  0.00  0.00    -0.180 NA
ATOM      7  N   UNL     1      -7.296 -10.781  18.707  0.00  0.00    -0.311 N 
ATOM      8  C   UNL     1      -9.828 -10.440  18.488  0.00  0.00    +0.025 C 
ATOM      9  C   UNL     1      -8.351  -9.879  16.612  0.00  0.00    +0.052 C 
ATOM     10  C   UNL     1      -9.446  -9.331  17.524  0.00  0.00    +0.017 C 
ATOM     11  C   UNL     1     -10.354 -11.669  17.731  0.00  0.00    +0.114 C 
ATOM     12  C   UNL     1      -8.904 -11.071  15.807  0.00  0.00    +0.118 C 
ATOM     13  C   UNL     1      -8.613 -10.763  19.358  0.00  0.00    +0.130 C 
ATOM     14  C   UNL     1      -7.102 -10.299  17.396  0.00  0.00    +0.033 A 
ATOM     15  C   UNL     1      -5.851 -10.235  16.865  0.00  0.00    -0.005 A 
ATOM     16  C   UNL     1      -6.234 -11.221  19.515  0.00  0.00    +0.252 A 
ATOM     18  C   UNL     1      -4.733 -10.683  17.682  0.00  0.00    +0.015 A 
ATOM     19  C   UNL     1      -4.884 -11.157  18.918  0.00  0.00    +0.071 A 
ENDROOT
BRANCH   6   2
ATOM      2  S   UNL     1      -9.704 -13.656  16.003  0.00  0.00    +0.032 S 
ATOM      3  O   UNL     1     -10.260 -13.418  14.688  0.00  0.00    -0.158 OA
ATOM      4  O   UNL     1     -10.373 -14.500  16.969  0.00  0.00    -0.158 OA
BRANCH   2  17
ATOM     17  C   UNL     1      -8.050 -14.264  15.797  0.00  0.00    +0.185 C 
BRANCH  17  21
ATOM     21  C   UNL     1      -7.215 -14.035  17.045  0.00  0.00    +0.021 C 
ATOM     22  C   UNL     1      -5.728 -14.070  16.736  0.00  0.00    +0.005 C 
ENDBRANCH  17  21
ENDBRANCH   2  17
ENDBRANCH   6   2
BRANCH  15  20
ATOM     20  C   UNL     1      -5.589  -9.771  15.513  0.00  0.00    +0.010 C 
ATOM     23  C   UNL     1      -5.293 -10.602  14.516  0.00  0.00    +0.008 C 
BRANCH  23  24
ATOM      1 CL   UNL     1      -4.150  -8.887   8.918  0.00  0.00    -0.084 Cl
ATOM     24  C   UNL     1      -5.010 -10.178  13.134  0.00  0.00    -0.025 A 
ATOM     25  C   UNL     1      -5.965  -9.454  12.438  0.00  0.00    +0.009 A 
ATOM     26  C   UNL     1      -3.796 -10.513  12.556  0.00  0.00    +0.009 A 
ATOM     27  C   UNL     1      -5.697  -9.053  11.129  0.00  0.00    +0.020 A 
ATOM     28  C   UNL     1      -3.529 -10.112  11.247  0.00  0.00    +0.020 A 
ATOM     29  C   UNL     1      -4.480  -9.382  10.533  0.00  0.00    +0.041 A 
ENDBRANCH  23  24
ENDBRANCH  15  20
TORSDOF 5
ENDMDL
MODEL 5
REMARK VINA RESULT:      -6.0     23.912     26.940
REMARK  Name = 7687250
REMARK  6 active torsions:
REMARK  status: ('A' for Active; 'I' for Inactive)
REMARK    1  A    between atoms: S_2  and  N_6
REMARK    2  A    between atoms: S_2  and  C_17
REMARK    3  A    between atoms: C_15  and  C_20
REMARK    4  A    between atoms: C_17  and  C_21
REMARK    5  A    between atoms: C_21  and  C_22
REMARK    6  A    between atoms: C_23  and  C_24
REMARK                            x       y       z     vdW  Elec       q    Type
REMARK                         _______ _______ _______ _____ _____    ______ ____
ROOT
ATOM      5  O   UNL     1       8.408   9.644  -0.840  0.00  0.00    -0.268 OA
ATOM      6  N   UNL     1      11.487   6.005   0.599  0.00  0.00    -0.180 NA
ATOM      7  N   UNL     1       9.963   8.774   0.681  0.00  0.00    -0.311 N 
ATOM      8  C   UNL     1      12.372   8.252  -0.024  0.00  0.00    +0.025 C 
ATOM      9  C   UNL     1      11.652   7.826   2.282  0.00  0.00    +0.052 C 
ATOM     10  C   UNL     1      12.702   8.535   1.430  0.00  0.00    +0.017 C 
ATOM     11  C   UNL     1      12.408   6.743  -0.311  0.00  0.00    +0.114 C 
ATOM     12  C   UNL     1      11.737   6.307   2.039  0.00  0.00    +0.118 C 
ATOM     13  C   UNL     1      11.013   8.876  -0.341  0.00  0.00    +0.130 C 
ATOM     14  C   UNL     1      10.235   8.334   1.993  0.00  0.00    +0.033 A 
ATOM     15  C   UNL     1       9.257   8.352   2.940  0.00  0.00    -0.005 A 
ATOM     16  C   UNL     1       8.695   9.236   0.286  0.00  0.00    +0.252 A 
ATOM     18  C   UNL     1       7.937   8.827   2.557  0.00  0.00    +0.015 A 
ATOM     19  C   UNL     1       7.643   9.236   1.323  0.00  0.00    +0.071 A 
ENDROOT
BRANCH   6   2
ATOM      2  S   UNL     1      11.239   4.354   0.222  0.00  0.00    +0.032 S 
ATOM      3  O   UNL     1      11.681   4.114  -1.135  0.00  0.00    -0.158 OA
ATOM      4  O   UNL     1       9.920   3.965   0.671  0.00  0.00    -0.158 OA
BRANCH   2  17
ATOM     17  C   UNL     1      12.428   3.629   1.320  0.00  0.00    +0.185 C 
BRANCH  17  21
ATOM     21  C   UNL     1      13.790   3.503   0.658  0.00  0.00    +0.021 C 
ATOM     22  C   UNL     1      14.912   3.540   1.681  0.00  0.00    +0.005 C 
ENDBRANCH  17  21
ENDBRANCH   2  17
ENDBRANCH   6   2
BRANCH  15  20
ATOM     20  C   UNL     1       9.469   7.889   4.301  0.00  0.00    +0.010 C 
ATOM     23  C   UNL     1       8.956   6.748   4.756  0.00  0.00    +0.008 C 
BRANCH  23  24
ATOM      1 CL   UNL     1       9.679   4.706  10.314  0.00  0.00    -0.084 Cl
ATOM     24  C   UNL     1       9.134   6.243   6.129  0.00  0.00    -0.025 A 
ATOM     25  C   UNL     1       8.734   7.029   7.198  0.00  0.00    +0.009 A 
ATOM     26  C   UNL     1       9.699   4.992   6.324  0.00  0.00    +0.009 A 
ATOM     27  C   UNL     1       8.904   6.551   8.497  0.00  0.00    +0.020 A 
ATOM     28  C   UNL     1       9.868   4.516   7.624  0.00  0.00    +0.020 A 
ATOM     29  C   UNL     1       9.470   5.295   8.711  0.00  0.00    +0.041 A 
ENDBRANCH  23  24
ENDBRANCH  15  20
TORSDOF 5
ENDMDL
MODEL 6
REMARK VINA RESULT:      -5.8     25.714     27.214
REMARK  Name = 7687250
REMARK  6 active torsions:
REMARK  status: ('A' for Active; 'I' for Inactive)
REMARK    1  A    between atoms: S_2  and  N_6
REMARK    2  A    between atoms: S_2  and  C_17
REMARK    3  A    between atoms: C_15  and  C_20
REMARK    4  A    between atoms: C_17  and  C_21
REMARK    5  A    between atoms: C_21  and  C_22
REMARK    6  A    between atoms: C_23  and  C_24
REMARK                            x       y       z     vdW  Elec       q    Type
REMARK                         _______ _______ _______ _____ _____    ______ ____
ROOT
ATOM      5  O   UNL     1      -1.458 -15.083  13.833  0.00  0.00    -0.268 OA
ATOM      6  N   UNL     1      -4.115 -11.025  14.959  0.00  0.00    -0.180 NA
ATOM      7  N   UNL     1      -2.194 -12.921  13.312  0.00  0.00    -0.311 N 
ATOM      8  C   UNL     1      -1.627 -10.920  14.812  0.00  0.00    +0.025 C 
ATOM      9  C   UNL     1      -2.979 -10.591  12.791  0.00  0.00    +0.052 C 
ATOM     10  C   UNL     1      -1.727 -10.118  13.527  0.00  0.00    +0.017 C 
ATOM     11  C   UNL     1      -2.863 -10.695  15.697  0.00  0.00    +0.114 C 
ATOM     12  C   UNL     1      -4.221 -10.303  13.657  0.00  0.00    +0.118 C 
ATOM     13  C   UNL     1      -1.427 -12.390  14.448  0.00  0.00    +0.130 C 
ATOM     14  C   UNL     1      -2.910 -12.080  12.435  0.00  0.00    +0.033 A 
ATOM     15  C   UNL     1      -3.522 -12.598  11.335  0.00  0.00    -0.005 A 
ATOM     16  C   UNL     1      -2.082 -14.307  13.108  0.00  0.00    +0.252 A 
ATOM     18  C   UNL     1      -3.420 -14.030  11.100  0.00  0.00    +0.015 A 
ATOM     19  C   UNL     1      -2.763 -14.853  11.916  0.00  0.00    +0.071 A 
ENDROOT
BRANCH   6   2
ATOM      2  S   UNL     1      -5.542 -11.062  15.902  0.00  0.00    +0.032 S 
ATOM      3  O   UNL     1      -6.406 -12.109  15.399  0.00  0.00    -0.158 OA
ATOM      4  O   UNL     1      -6.017  -9.708  16.084  0.00  0.00    -0.158 OA
BRANCH   2  17
ATOM     17  C   UNL     1      -4.853 -11.613  17.441  0.00  0.00    +0.185 C 
BRANCH  17  21
ATOM     21  C   UNL     1      -5.221 -10.678  18.580  0.00  0.00    +0.021 C 
ATOM     22  C   UNL     1      -5.907 -11.422  19.712  0.00  0.00    +0.005 C 
ENDBRANCH  17  21
ENDBRANCH   2  17
ENDBRANCH   6   2
BRANCH  15  20
ATOM     20  C   UNL     1      -4.294 -11.788  10.408  0.00  0.00    +0.010 C 
ATOM     23  C   UNL     1      -4.159 -11.889   9.087  0.00  0.00    +0.008 C 
BRANCH  23  24
ATOM      1 CL   UNL     1      -7.201  -8.628   5.125  0.00  0.00    -0.084 Cl
ATOM     24  C   UNL     1      -4.911 -11.084   8.108  0.00  0.00    -0.025 A 
ATOM     25  C   UNL     1      -4.872 -11.434   6.768  0.00  0.00    +0.009 A 
ATOM     26  C   UNL     1      -5.642  -9.991   8.547  0.00  0.00    +0.009 A 
ATOM     27  C   UNL     1      -5.584 -10.671   5.842  0.00  0.00    +0.020 A 
ATOM     28  C   UNL     1      -6.353  -9.229   7.621  0.00  0.00    +0.020 A 
ATOM     29  C   UNL     1      -6.324  -9.569   6.268  0.00  0.00    +0.041 A 
ENDBRANCH  23  24
ENDBRANCH  15  20
TORSDOF 5
ENDMDL
MODEL 7
REMARK VINA RESULT:      -5.7     25.747     27.379
REMARK  Name = 7687250
REMARK  6 active torsions:
REMARK  status: ('A' for Active; 'I' for Inactive)
REMARK    1  A    between atoms: S_2  and  N_6
REMARK    2  A    between atoms: S_2  and  C_17
REMARK    3  A    between atoms: C_15  and  C_20
REMARK    4  A    between atoms: C_17  and  C_21
REMARK    5  A    between atoms: C_21  and  C_22
REMARK    6  A    between atoms: C_23  and  C_24
REMARK                            x       y       z     vdW  Elec       q    Type
REMARK                         _______ _______ _______ _____ _____    ______ ____
ROOT
ATOM      5  O   UNL     1      -1.217 -10.675  16.142  0.00  0.00    -0.268 OA
ATOM      6  N   UNL     1      -5.679 -12.801  15.539  0.00  0.00    -0.180 NA
ATOM      7  N   UNL     1      -3.412 -10.608  15.327  0.00  0.00    -0.311 N 
ATOM      8  C   UNL     1      -5.428 -10.730  16.906  0.00  0.00    +0.025 C 
ATOM      9  C   UNL     1      -5.779 -10.552  14.484  0.00  0.00    +0.052 C 
ATOM     10  C   UNL     1      -6.132  -9.923  15.830  0.00  0.00    +0.017 C 
ATOM     11  C   UNL     1      -5.890 -12.195  16.884  0.00  0.00    +0.114 C 
ATOM     12  C   UNL     1      -6.303 -12.001  14.444  0.00  0.00    +0.118 C 
ATOM     13  C   UNL     1      -3.919 -10.589  16.705  0.00  0.00    +0.130 C 
ATOM     14  C   UNL     1      -4.271 -10.523  14.211  0.00  0.00    +0.033 A 
ATOM     15  C   UNL     1      -3.758 -10.438  12.954  0.00  0.00    -0.005 A 
ATOM     16  C   UNL     1      -2.012 -10.617  15.203  0.00  0.00    +0.252 A 
ATOM     18  C   UNL     1      -2.311 -10.445  12.799  0.00  0.00    +0.015 A 
ATOM     19  C   UNL     1      -1.472 -10.537  13.830  0.00  0.00    +0.071 A 
ENDROOT
BRANCH   6   2
ATOM      2  S   UNL     1      -5.914 -14.493  15.444  0.00  0.00    +0.032 S 
ATOM      3  O   UNL     1      -6.716 -14.788  14.275  0.00  0.00    -0.158 OA
ATOM      4  O   UNL     1      -6.271 -14.989  16.754  0.00  0.00    -0.158 OA
BRANCH   2  17
ATOM     17  C   UNL     1      -4.246 -14.994  15.103  0.00  0.00    +0.185 C 
BRANCH  17  21
ATOM     21  C   UNL     1      -3.619 -14.134  14.019  0.00  0.00    +0.021 C 
ATOM     22  C   UNL     1      -2.105 -14.246  14.025  0.00  0.00    +0.005 C 
ENDBRANCH  17  21
ENDBRANCH   2  17
ENDBRANCH   6   2
BRANCH  15  20
ATOM     20  C   UNL     1      -4.590 -10.372  11.764  0.00  0.00    +0.010 C 
ATOM     23  C   UNL     1      -4.346  -9.525  10.767  0.00  0.00    +0.008 C 
BRANCH  23  24
ATOM      1 CL   UNL     1      -7.665  -9.077   5.830  0.00  0.00    -0.084 Cl
ATOM     24  C   UNL     1      -5.167  -9.415   9.548  0.00  0.00    -0.025 A 
ATOM     25  C   UNL     1      -4.791 -10.113   8.412  0.00  0.00    +0.009 A 
ATOM     26  C   UNL     1      -6.297  -8.614   9.561  0.00  0.00    +0.009 A 
ATOM     27  C   UNL     1      -5.567 -10.008   7.257  0.00  0.00    +0.020 A 
ATOM     28  C   UNL     1      -7.073  -8.509   8.406  0.00  0.00    +0.020 A 
ATOM     29  C   UNL     1      -6.708  -9.207   7.254  0.00  0.00    +0.041 A 
ENDBRANCH  23  24
ENDBRANCH  15  20
TORSDOF 5
ENDMDL
MODEL 8
REMARK VINA RESULT:      -5.6      3.523      5.965
REMARK  Name = 7687250
REMARK  6 active torsions:
REMARK  status: ('A' for Active; 'I' for Inactive)
REMARK    1  A    between atoms: S_2  and  N_6
REMARK    2  A    between atoms: S_2  and  C_17
REMARK    3  A    between atoms: C_15  and  C_20
REMARK    4  A    between atoms: C_17  and  C_21
REMARK    5  A    between atoms: C_21  and  C_22
REMARK    6  A    between atoms: C_23  and  C_24
REMARK                            x       y       z     vdW  Elec       q    Type
REMARK                         _______ _______ _______ _____ _____    ______ ____
ROOT
ATOM      5  O   UNL     1      19.532   0.128  30.958  0.00  0.00    -0.268 OA
ATOM      6  N   UNL     1      18.278  -2.676  27.040  0.00  0.00    -0.180 NA
ATOM      7  N   UNL     1      18.842  -1.921  30.058  0.00  0.00    -0.311 N 
ATOM      8  C   UNL     1      20.305  -3.208  28.391  0.00  0.00    +0.025 C 
ATOM      9  C   UNL     1      18.126  -4.114  29.061  0.00  0.00    +0.052 C 
ATOM     10  C   UNL     1      19.615  -4.435  28.961  0.00  0.00    +0.017 C 
ATOM     11  C   UNL     1      19.755  -2.866  26.998  0.00  0.00    +0.114 C 
ATOM     12  C   UNL     1      17.566  -3.836  27.653  0.00  0.00    +0.118 C 
ATOM     13  C   UNL     1      20.141  -2.058  29.384  0.00  0.00    +0.130 C 
ATOM     14  C   UNL     1      17.853  -2.924  29.988  0.00  0.00    +0.033 A 
ATOM     15  C   UNL     1      16.705  -2.808  30.709  0.00  0.00    -0.005 A 
ATOM     16  C   UNL     1      18.696  -0.769  30.850  0.00  0.00    +0.252 A 
ATOM     18  C   UNL     1      16.530  -1.626  31.539  0.00  0.00    +0.015 A 
ATOM     19  C   UNL     1      17.438  -0.653  31.616  0.00  0.00    +0.071 A 
ENDROOT
BRANCH   6   2
ATOM      2  S   UNL     1      17.572  -2.045  25.614  0.00  0.00    +0.032 S 
ATOM      3  O   UNL     1      18.615  -1.470  24.793  0.00  0.00    -0.158 OA
ATOM      4  O   UNL     1      16.387  -1.297  25.971  0.00  0.00    -0.158 OA
BRANCH   2  17
ATOM     17  C   UNL     1      17.054  -3.563  24.857  0.00  0.00    +0.185 C 
BRANCH  17  21
ATOM     21  C   UNL     1      16.923  -3.415  23.350  0.00  0.00    +0.021 C 
ATOM     22  C   UNL     1      15.590  -2.798  22.965  0.00  0.00    +0.005 C 
ENDBRANCH  17  21
ENDBRANCH   2  17
ENDBRANCH   6   2
BRANCH  15  20
ATOM     20  C   UNL     1      15.640  -3.795  30.661  0.00  0.00    +0.010 C 
ATOM     23  C   UNL     1      14.866  -4.063  31.712  0.00  0.00    +0.008 C 
BRANCH  23  24
ATOM      1 CL   UNL     1      10.478  -8.104  31.724  0.00  0.00    -0.084 Cl
ATOM     24  C   UNL     1      13.782  -5.061  31.714  0.00  0.00    -0.025 A 
ATOM     25  C   UNL     1      12.916  -5.119  32.795  0.00  0.00    +0.009 A 
ATOM     26  C   UNL     1      13.650  -5.922  30.637  0.00  0.00    +0.009 A 
ATOM     27  C   UNL     1      11.890  -6.064  32.797  0.00  0.00    +0.020 A 
ATOM     28  C   UNL     1      12.624  -6.867  30.640  0.00  0.00    +0.020 A 
ATOM     29  C   UNL     1      11.744  -6.938  31.720  0.00  0.00    +0.041 A 
ENDBRANCH  23  24
ENDBRANCH  15  20
TORSDOF 5
ENDMDL
MODEL 9
REMARK VINA RESULT:      -5.6     25.742     28.922
REMARK  Name = 7687250
REMARK  6 active torsions:
REMARK  status: ('A' for Active; 'I' for Inactive)
REMARK    1  A    between atoms: S_2  and  N_6
REMARK    2  A    between atoms: S_2  and  C_17
REMARK    3  A    between atoms: C_15  and  C_20
REMARK    4  A    between atoms: C_17  and  C_21
REMARK    5  A    between atoms: C_21  and  C_22
REMARK    6  A    between atoms: C_23  and  C_24
REMARK                            x       y       z     vdW  Elec       q    Type
REMARK                         _______ _______ _______ _____ _____    ______ ____
ROOT
ATOM      5  O   UNL     1      16.543  -2.715  -5.683  0.00  0.00    -0.268 OA
ATOM      6  N   UNL     1      16.153  -7.482  -4.300  0.00  0.00    -0.180 NA
ATOM      7  N   UNL     1      17.469  -4.638  -4.720  0.00  0.00    -0.311 N 
ATOM      8  C   UNL     1      17.769  -6.796  -6.071  0.00  0.00    +0.025 C 
ATOM      9  C   UNL     1      18.446  -6.724  -3.714  0.00  0.00    +0.052 C 
ATOM     10  C   UNL     1      18.929  -7.052  -5.126  0.00  0.00    +0.017 C 
ATOM     11  C   UNL     1      16.566  -7.684  -5.717  0.00  0.00    +0.114 C 
ATOM     12  C   UNL     1      17.282  -7.662  -3.341  0.00  0.00    +0.118 C 
ATOM     13  C   UNL     1      17.431  -5.307  -6.028  0.00  0.00    +0.130 C 
ATOM     14  C   UNL     1      18.016  -5.259  -3.578  0.00  0.00    +0.033 A 
ATOM     15  C   UNL     1      18.129  -4.570  -2.409  0.00  0.00    -0.005 A 
ATOM     16  C   UNL     1      17.014  -3.309  -4.713  0.00  0.00    +0.252 A 
ATOM     18  C   UNL     1      17.667  -3.191  -2.376  0.00  0.00    +0.015 A 
ATOM     19  C   UNL     1      17.133  -2.580  -3.433  0.00  0.00    +0.071 A 
ENDROOT
BRANCH   6   2
ATOM      2  S   UNL     1      14.675  -8.216  -3.848  0.00  0.00    +0.032 S 
ATOM      3  O   UNL     1      14.908  -9.064  -2.698  0.00  0.00    -0.158 OA
ATOM      4  O   UNL     1      14.016  -8.712  -5.036  0.00  0.00    -0.158 OA
BRANCH   2  17
ATOM     17  C   UNL     1      13.798  -6.776  -3.296  0.00  0.00    +0.185 C 
BRANCH  17  21
ATOM     21  C   UNL     1      14.264  -5.528  -4.027  0.00  0.00    +0.021 C 
ATOM     22  C   UNL     1      13.543  -5.357  -5.352  0.00  0.00    +0.005 C 
ENDBRANCH  17  21
ENDBRANCH   2  17
ENDBRANCH   6   2
BRANCH  15  20
ATOM     20  C   UNL     1      18.661  -5.161  -1.193  0.00  0.00    +0.010 C 
ATOM     23  C   UNL     1      19.899  -4.921  -0.764  0.00  0.00    +0.008 C 
BRANCH  23  24
ATOM      1 CL   UNL     1      22.276  -7.283   4.172  0.00  0.00    -0.084 Cl
ATOM     24  C   UNL     1      20.485  -5.505   0.456  0.00  0.00    -0.025 A 
ATOM     25  C   UNL     1      21.218  -4.696   1.310  0.00  0.00    +0.009 A 
ATOM     26  C   UNL     1      20.293  -6.850   0.724  0.00  0.00    +0.009 A 
ATOM     27  C   UNL     1      21.774  -5.249   2.464  0.00  0.00    +0.020 A 
ATOM     28  C   UNL     1      20.849  -7.402   1.878  0.00  0.00    +0.020 A 
ATOM     29  C   UNL     1      21.590  -6.601   2.748  0.00  0.00    +0.041 A 
ENDBRANCH  23  24
ENDBRANCH  15  20
TORSDOF 5
ENDMDL
MODEL 10
REMARK VINA RESULT:      -5.6      2.210      3.174
REMARK  Name = 7687250
REMARK  6 active torsions:
REMARK  status: ('A' for Active; 'I' for Inactive)
REMARK    1  A    between atoms: S_2  and  N_6
REMARK    2  A    between atoms: S_2  and  C_17
REMARK    3  A    between atoms: C_15  and  C_20
REMARK    4  A    between atoms: C_17  and  C_21
REMARK    5  A    between atoms: C_21  and  C_22
REMARK    6  A    between atoms: C_23  and  C_24
REMARK                            x       y       z     vdW  Elec       q    Type
REMARK                         _______ _______ _______ _____ _____    ______ ____
ROOT
ATOM      5  O   UNL     1      22.079  -4.893  25.287  0.00  0.00    -0.268 OA
ATOM      6  N   UNL     1      17.598  -3.042  24.152  0.00  0.00    -0.180 NA
ATOM      7  N   UNL     1      19.759  -5.151  25.090  0.00  0.00    -0.311 N 
ATOM      8  C   UNL     1      18.576  -4.915  22.827  0.00  0.00    +0.025 C 
ATOM      9  C   UNL     1      17.271  -5.407  24.845  0.00  0.00    +0.052 C 
ATOM     10  C   UNL     1      17.565  -5.878  23.423  0.00  0.00    +0.017 C 
ATOM     11  C   UNL     1      18.018  -3.484  22.792  0.00  0.00    +0.114 C 
ATOM     12  C   UNL     1      16.650  -3.997  24.799  0.00  0.00    +0.118 C 
ATOM     13  C   UNL     1      19.872  -5.019  23.631  0.00  0.00    +0.130 C 
ATOM     14  C   UNL     1      18.527  -5.409  25.725  0.00  0.00    +0.033 A 
ATOM     15  C   UNL     1      18.478  -5.628  27.067  0.00  0.00    -0.005 A 
ATOM     16  C   UNL     1      20.975  -5.099  25.792  0.00  0.00    +0.252 A 
ATOM     18  C   UNL     1      19.723  -5.582  27.818  0.00  0.00    +0.015 A 
ATOM     19  C   UNL     1      20.902  -5.327  27.251  0.00  0.00    +0.071 A 
ENDROOT
BRANCH   6   2
ATOM      2  S   UNL     1      17.195  -1.386  24.301  0.00  0.00    +0.032 S 
ATOM      3  O   UNL     1      16.340  -1.216  25.457  0.00  0.00    -0.158 OA
ATOM      4  O   UNL     1      16.822  -0.878  23.000  0.00  0.00    -0.158 OA
BRANCH   2  17
ATOM     17  C   UNL     1      18.796  -0.738  24.704  0.00  0.00    +0.185 C 
BRANCH  17  21
ATOM     21  C   UNL     1      19.530  -1.642  25.681  0.00  0.00    +0.021 C 
ATOM     22  C   UNL     1      21.037  -1.504  25.542  0.00  0.00    +0.005 C 
ENDBRANCH  17  21
ENDBRANCH   2  17
ENDBRANCH   6   2
BRANCH  15  20
ATOM     20  C   UNL     1      17.237  -5.875  27.782  0.00  0.00    +0.010 C 
ATOM     23  C   UNL     1      16.955  -5.293  28.946  0.00  0.00    +0.008 C 
BRANCH  23  24
ATOM      1 CL   UNL     1      11.941  -6.208  32.045  0.00  0.00    -0.084 Cl
ATOM     24  C   UNL     1      15.717  -5.519  29.712  0.00  0.00    -0.025 A 
ATOM     25  C   UNL     1      14.877  -6.561  29.352  0.00  0.00    +0.009 A 
ATOM     26  C   UNL     1      15.416  -4.685  30.777  0.00  0.00    +0.009 A 
ATOM     27  C   UNL     1      13.705  -6.775  30.077  0.00  0.00    +0.020 A 
ATOM     28  C   UNL     1      14.243  -4.899  31.501  0.00  0.00    +0.020 A 
ATOM     29  C   UNL     1      13.387  -5.944  31.151  0.00  0.00    +0.041 A 
ENDBRANCH  23  24
ENDBRANCH  15  20
TORSDOF 5
ENDMDL
