MODEL 1
REMARK VINA RESULT:      -6.9      0.000      0.000
REMARK  Name = 51137933
REMARK  5 active torsions:
REMARK  status: ('A' for Active; 'I' for Inactive)
REMARK    1  A    between atoms: O_5  and  C_22
REMARK    2  A    between atoms: O_5  and  C_28
REMARK    3  A    between atoms: C_11  and  C_15
REMARK    4  A    between atoms: C_17  and  C_19
REMARK    5  A    between atoms: C_18  and  C_23
REMARK                            x       y       z     vdW  Elec       q    Type
REMARK                         _______ _______ _______ _____ _____    ______ ____
ROOT
ATOM      6  N   UNL     1      -3.630 -12.446  12.073  0.00  0.00    -0.299 N 
ATOM      8  N   UNL     1      -4.257 -10.909  10.456  0.00  0.00    -0.210 NA
ATOM      9  N   UNL     1      -5.764 -12.640  11.190  0.00  0.00    -0.223 NA
ATOM     11  C   UNL     1      -1.720 -12.516  13.485  0.00  0.00    +0.095 C 
ATOM     12  C   UNL     1      -2.413 -13.882  13.487  0.00  0.00    +0.033 C 
ATOM     13  C   UNL     1      -2.297 -11.858  12.217  0.00  0.00    +0.121 C 
ATOM     14  C   UNL     1      -3.817 -13.591  12.958  0.00  0.00    +0.109 C 
ATOM     16  C   UNL     1      -4.591 -11.978  11.203  0.00  0.00    +0.218 A 
ATOM     18  C   UNL     1      -5.221 -10.479   9.615  0.00  0.00    +0.149 A 
ATOM     20  C   UNL     1      -6.682 -12.156  10.328  0.00  0.00    +0.116 A 
ATOM     21  C   UNL     1      -6.464 -11.068   9.507  0.00  0.00    +0.052 A 
ENDROOT
BRANCH  11  15
ATOM      4  O   UNL     1      -3.152 -11.924  15.390  0.00  0.00    -0.420 OA
ATOM      7  N   UNL     1      -1.118 -10.995  15.459  0.00  0.00    -0.112 NA
ATOM     10  N   UNL     1      -1.814 -10.583  16.580  0.00  0.00    -0.107 NA
ATOM     15  C   UNL     1      -1.938 -11.776  14.794  0.00  0.00    +0.222 A 
ATOM     17  C   UNL     1      -2.996 -11.149  16.498  0.00  0.00    +0.252 A 
BRANCH  17  19
ATOM     19  C   UNL     1      -4.126 -11.079  17.379  0.00  0.00    +0.080 A 
ATOM     22  C   UNL     1      -5.247 -10.321  17.044  0.00  0.00    +0.132 A 
ATOM     24  C   UNL     1      -4.091 -11.780  18.584  0.00  0.00    +0.017 A 
ATOM     25  C   UNL     1      -6.336 -10.264  17.914  0.00  0.00    +0.046 A 
ATOM     26  C   UNL     1      -5.180 -11.723  19.455  0.00  0.00    +0.001 A 
ATOM     27  C   UNL     1      -6.302 -10.964  19.121  0.00  0.00    +0.004 A 
BRANCH  22   5
ATOM      5  O   UNL     1      -5.308  -9.625  15.873  0.00  0.00    -0.494 OA
ATOM     28  C   UNL     1      -6.162 -10.144  14.856  0.00  0.00    +0.277 C 
ENDBRANCH  22   5
ENDBRANCH  17  19
ENDBRANCH  11  15
BRANCH  18  23
ATOM      1  F   UNL     1      -3.643  -8.805   9.012  0.00  0.00    -0.164 F 
ATOM      2  F   UNL     1      -4.929  -9.555   7.428  0.00  0.00    -0.164 F 
ATOM      3  F   UNL     1      -5.742  -8.241   8.950  0.00  0.00    -0.164 F 
ATOM     23  C   UNL     1      -4.893  -9.295   8.768  0.00  0.00    +0.434 C 
ENDBRANCH  18  23
TORSDOF 4
ENDMDL
MODEL 2
REMARK VINA RESULT:      -6.8      7.597      9.944
REMARK  Name = 51137933
REMARK  5 active torsions:
REMARK  status: ('A' for Active; 'I' for Inactive)
REMARK    1  A    between atoms: O_5  and  C_22
REMARK    2  A    between atoms: O_5  and  C_28
REMARK    3  A    between atoms: C_11  and  C_15
REMARK    4  A    between atoms: C_17  and  C_19
REMARK    5  A    between atoms: C_18  and  C_23
REMARK                            x       y       z     vdW  Elec       q    Type
REMARK                         _______ _______ _______ _____ _____    ______ ____
ROOT
ATOM      6  N   UNL     1      -8.575  -9.869  15.355  0.00  0.00    -0.299 N 
ATOM      8  N   UNL     1      -7.401 -10.357  17.292  0.00  0.00    -0.210 NA
ATOM      9  N   UNL     1      -6.262  -9.931  15.212  0.00  0.00    -0.223 NA
ATOM     11  C   UNL     1     -10.878  -9.394  15.017  0.00  0.00    +0.095 C 
ATOM     12  C   UNL     1     -10.216  -9.718  13.674  0.00  0.00    +0.033 C 
ATOM     13  C   UNL     1      -9.871  -9.976  16.027  0.00  0.00    +0.121 C 
ATOM     14  C   UNL     1      -8.722  -9.541  13.940  0.00  0.00    +0.109 C 
ATOM     16  C   UNL     1      -7.361 -10.060  15.979  0.00  0.00    +0.218 A 
ATOM     18  C   UNL     1      -6.196 -10.538  17.872  0.00  0.00    +0.149 A 
ATOM     20  C   UNL     1      -5.092 -10.125  15.855  0.00  0.00    +0.116 A 
ATOM     21  C   UNL     1      -4.997 -10.434  17.197  0.00  0.00    +0.052 A 
ENDROOT
BRANCH  11  15
ATOM      4  O   UNL     1     -11.926  -7.351  14.146  0.00  0.00    -0.420 OA
ATOM      7  N   UNL     1     -10.856  -7.067  16.091  0.00  0.00    -0.112 NA
ATOM     10  N   UNL     1     -11.395  -5.850  15.717  0.00  0.00    -0.107 NA
ATOM     15  C   UNL     1     -11.191  -7.914  15.144  0.00  0.00    +0.222 A 
ATOM     17  C   UNL     1     -12.009  -6.063  14.577  0.00  0.00    +0.252 A 
BRANCH  17  19
ATOM     19  C   UNL     1     -12.741  -5.164  13.731  0.00  0.00    +0.080 A 
ATOM     22  C   UNL     1     -14.136  -5.159  13.731  0.00  0.00    +0.132 A 
ATOM     24  C   UNL     1     -12.039  -4.290  12.902  0.00  0.00    +0.017 A 
ATOM     25  C   UNL     1     -14.830  -4.279  12.901  0.00  0.00    +0.046 A 
ATOM     26  C   UNL     1     -12.733  -3.409  12.071  0.00  0.00    +0.001 A 
ATOM     27  C   UNL     1     -14.129  -3.404  12.070  0.00  0.00    +0.004 A 
BRANCH  22   5
ATOM      5  O   UNL     1     -14.847  -6.003  14.531  0.00  0.00    -0.494 OA
ATOM     28  C   UNL     1     -15.738  -6.910  13.885  0.00  0.00    +0.277 C 
ENDBRANCH  22   5
ENDBRANCH  17  19
ENDBRANCH  11  15
BRANCH  18  23
ATOM      1  F   UNL     1      -6.251  -9.756  20.117  0.00  0.00    -0.164 F 
ATOM      2  F   UNL     1      -7.247 -11.646  19.713  0.00  0.00    -0.164 F 
ATOM      3  F   UNL     1      -5.081 -11.548  19.731  0.00  0.00    -0.164 F 
ATOM     23  C   UNL     1      -6.194 -10.868  19.327  0.00  0.00    +0.434 C 
ENDBRANCH  18  23
TORSDOF 4
ENDMDL
MODEL 3
REMARK VINA RESULT:      -6.7      3.521      5.540
REMARK  Name = 51137933
REMARK  5 active torsions:
REMARK  status: ('A' for Active; 'I' for Inactive)
REMARK    1  A    between atoms: O_5  and  C_22
REMARK    2  A    between atoms: O_5  and  C_28
REMARK    3  A    between atoms: C_11  and  C_15
REMARK    4  A    between atoms: C_17  and  C_19
REMARK    5  A    between atoms: C_18  and  C_23
REMARK                            x       y       z     vdW  Elec       q    Type
REMARK                         _______ _______ _______ _____ _____    ______ ____
ROOT
ATOM      6  N   UNL     1      -4.408 -11.963  16.681  0.00  0.00    -0.299 N 
ATOM      8  N   UNL     1      -3.674 -11.344  14.572  0.00  0.00    -0.210 NA
ATOM      9  N   UNL     1      -3.940 -13.662  15.176  0.00  0.00    -0.223 NA
ATOM     11  C   UNL     1      -5.292 -10.657  18.459  0.00  0.00    +0.095 C 
ATOM     12  C   UNL     1      -4.888 -12.037  18.985  0.00  0.00    +0.033 C 
ATOM     13  C   UNL     1      -4.517 -10.574  17.130  0.00  0.00    +0.121 C 
ATOM     14  C   UNL     1      -4.791 -12.904  17.730  0.00  0.00    +0.109 C 
ATOM     16  C   UNL     1      -3.990 -12.339  15.423  0.00  0.00    +0.218 A 
ATOM     18  C   UNL     1      -3.268 -11.748  13.350  0.00  0.00    +0.149 A 
ATOM     20  C   UNL     1      -3.527 -13.995  13.935  0.00  0.00    +0.116 A 
ATOM     21  C   UNL     1      -3.174 -13.072  12.972  0.00  0.00    +0.052 A 
ENDROOT
BRANCH  11  15
ATOM      4  O   UNL     1      -7.283  -9.593  17.492  0.00  0.00    -0.420 OA
ATOM      7  N   UNL     1      -7.741 -11.143  19.040  0.00  0.00    -0.112 NA
ATOM     10  N   UNL     1      -8.940 -10.629  18.582  0.00  0.00    -0.107 NA
ATOM     15  C   UNL     1      -6.802 -10.509  18.376  0.00  0.00    +0.222 A 
ATOM     17  C   UNL     1      -8.624  -9.728  17.680  0.00  0.00    +0.252 A 
BRANCH  17  19
ATOM     19  C   UNL     1      -9.459  -8.880  16.879  0.00  0.00    +0.080 A 
ATOM     22  C   UNL     1      -9.683  -9.164  15.532  0.00  0.00    +0.132 A 
ATOM     24  C   UNL     1     -10.048  -7.760  17.464  0.00  0.00    +0.017 A 
ATOM     25  C   UNL     1     -10.497  -8.327  14.769  0.00  0.00    +0.046 A 
ATOM     26  C   UNL     1     -10.863  -6.922  16.700  0.00  0.00    +0.001 A 
ATOM     27  C   UNL     1     -11.086  -7.206  15.352  0.00  0.00    +0.004 A 
BRANCH  22   5
ATOM      5  O   UNL     1      -9.119 -10.252  14.934  0.00  0.00    -0.494 OA
ATOM     28  C   UNL     1      -8.143 -10.003  13.926  0.00  0.00    +0.277 C 
ENDBRANCH  22   5
ENDBRANCH  17  19
ENDBRANCH  11  15
BRANCH  18  23
ATOM      1  F   UNL     1      -2.580 -11.176  11.147  0.00  0.00    -0.164 F 
ATOM      2  F   UNL     1      -3.914  -9.783  12.150  0.00  0.00    -0.164 F 
ATOM      3  F   UNL     1      -1.838  -9.923  12.762  0.00  0.00    -0.164 F 
ATOM     23  C   UNL     1      -2.908 -10.678  12.375  0.00  0.00    +0.434 C 
ENDBRANCH  18  23
TORSDOF 4
ENDMDL
MODEL 4
REMARK VINA RESULT:      -6.7     23.148     26.132
REMARK  Name = 51137933
REMARK  5 active torsions:
REMARK  status: ('A' for Active; 'I' for Inactive)
REMARK    1  A    between atoms: O_5  and  C_22
REMARK    2  A    between atoms: O_5  and  C_28
REMARK    3  A    between atoms: C_11  and  C_15
REMARK    4  A    between atoms: C_17  and  C_19
REMARK    5  A    between atoms: C_18  and  C_23
REMARK                            x       y       z     vdW  Elec       q    Type
REMARK                         _______ _______ _______ _____ _____    ______ ____
ROOT
ATOM      6  N   UNL     1      10.872   7.075   4.344  0.00  0.00    -0.299 N 
ATOM      8  N   UNL     1      10.278   6.289   6.441  0.00  0.00    -0.210 NA
ATOM      9  N   UNL     1       9.262   8.266   5.511  0.00  0.00    -0.223 NA
ATOM     11  C   UNL     1      12.212   6.094   2.644  0.00  0.00    +0.095 C 
ATOM     12  C   UNL     1      12.025   7.587   2.355  0.00  0.00    +0.033 C 
ATOM     13  C   UNL     1      11.845   6.001   4.137  0.00  0.00    +0.121 C 
ATOM     14  C   UNL     1      10.816   7.984   3.203  0.00  0.00    +0.109 C 
ATOM     16  C   UNL     1      10.104   7.216   5.479  0.00  0.00    +0.218 A 
ATOM     18  C   UNL     1       9.511   6.457   7.539  0.00  0.00    +0.149 A 
ATOM     20  C   UNL     1       8.526   8.373   6.636  0.00  0.00    +0.116 A 
ATOM     21  C   UNL     1       8.609   7.490   7.694  0.00  0.00    +0.052 A 
ENDROOT
BRANCH  11  15
ATOM      4  O   UNL     1      11.900   5.070   0.434  0.00  0.00    -0.420 OA
ATOM      7  N   UNL     1      10.266   4.606   1.890  0.00  0.00    -0.112 NA
ATOM     10  N   UNL     1       9.969   3.972   0.698  0.00  0.00    -0.107 NA
ATOM     15  C   UNL     1      11.402   5.234   1.690  0.00  0.00    +0.222 A 
ATOM     17  C   UNL     1      10.949   4.272  -0.123  0.00  0.00    +0.252 A 
BRANCH  17  19
ATOM     19  C   UNL     1      11.167   3.894  -1.490  0.00  0.00    +0.080 A 
ATOM     22  C   UNL     1      10.442   4.490  -2.521  0.00  0.00    +0.132 A 
ATOM     24  C   UNL     1      12.119   2.917  -1.779  0.00  0.00    +0.017 A 
ATOM     25  C   UNL     1      10.668   4.109  -3.843  0.00  0.00    +0.046 A 
ATOM     26  C   UNL     1      12.346   2.535  -3.102  0.00  0.00    +0.001 A 
ATOM     27  C   UNL     1      11.619   3.131  -4.134  0.00  0.00    +0.004 A 
BRANCH  22   5
ATOM      5  O   UNL     1       9.505   5.448  -2.266  0.00  0.00    -0.494 OA
ATOM     28  C   UNL     1       8.502   5.651  -3.258  0.00  0.00    +0.277 C 
ENDBRANCH  22   5
ENDBRANCH  17  19
ENDBRANCH  11  15
BRANCH  18  23
ATOM      1  F   UNL     1       9.721   4.171   8.158  0.00  0.00    -0.164 F 
ATOM      2  F   UNL     1      10.809   5.616   9.363  0.00  0.00    -0.164 F 
ATOM      3  F   UNL     1       8.653   5.467   9.540  0.00  0.00    -0.164 F 
ATOM     23  C   UNL     1       9.670   5.451   8.629  0.00  0.00    +0.434 C 
ENDBRANCH  18  23
TORSDOF 4
ENDMDL
MODEL 5
REMARK VINA RESULT:      -6.6     28.084     30.285
REMARK  Name = 51137933
REMARK  5 active torsions:
REMARK  status: ('A' for Active; 'I' for Inactive)
REMARK    1  A    between atoms: O_5  and  C_22
REMARK    2  A    between atoms: O_5  and  C_28
REMARK    3  A    between atoms: C_11  and  C_15
REMARK    4  A    between atoms: C_17  and  C_19
REMARK    5  A    between atoms: C_18  and  C_23
REMARK                            x       y       z     vdW  Elec       q    Type
REMARK                         _______ _______ _______ _____ _____    ______ ____
ROOT
ATOM      6  N   UNL     1      23.547   1.056  24.491  0.00  0.00    -0.299 N 
ATOM      8  N   UNL     1      22.972   2.565  22.829  0.00  0.00    -0.210 NA
ATOM      9  N   UNL     1      24.584   0.819  22.432  0.00  0.00    -0.223 NA
ATOM     11  C   UNL     1      22.589   0.671  26.631  0.00  0.00    +0.095 C 
ATOM     12  C   UNL     1      23.969   0.009  26.557  0.00  0.00    +0.033 C 
ATOM     13  C   UNL     1      22.645   1.675  25.464  0.00  0.00    +0.121 C 
ATOM     14  C   UNL     1      24.260  -0.083  25.059  0.00  0.00    +0.109 C 
ATOM     16  C   UNL     1      23.708   1.499  23.195  0.00  0.00    +0.218 A 
ATOM     18  C   UNL     1      23.155   2.972  21.555  0.00  0.00    +0.149 A 
ATOM     20  C   UNL     1      24.718   1.279  21.170  0.00  0.00    +0.116 A 
ATOM     21  C   UNL     1      24.022   2.362  20.672  0.00  0.00    +0.052 A 
ENDROOT
BRANCH  11  15
ATOM      4  O   UNL     1      20.755  -0.443  25.437  0.00  0.00    -0.420 OA
ATOM      7  N   UNL     1      21.078  -1.200  27.518  0.00  0.00    -0.112 NA
ATOM     10  N   UNL     1      20.026  -1.906  26.964  0.00  0.00    -0.107 NA
ATOM     15  C   UNL     1      21.472  -0.357  26.591  0.00  0.00    +0.222 A 
ATOM     17  C   UNL     1      19.873  -1.431  25.750  0.00  0.00    +0.252 A 
BRANCH  17  19
ATOM     19  C   UNL     1      18.937  -1.786  24.722  0.00  0.00    +0.080 A 
ATOM     22  C   UNL     1      19.060  -2.989  24.028  0.00  0.00    +0.132 A 
ATOM     24  C   UNL     1      17.896  -0.908  24.421  0.00  0.00    +0.017 A 
ATOM     25  C   UNL     1      18.141  -3.315  23.031  0.00  0.00    +0.046 A 
ATOM     26  C   UNL     1      16.976  -1.235  23.424  0.00  0.00    +0.001 A 
ATOM     27  C   UNL     1      17.099  -2.438  22.728  0.00  0.00    +0.004 A 
BRANCH  22   5
ATOM      5  O   UNL     1      20.068  -3.865  24.301  0.00  0.00    -0.494 OA
ATOM     28  C   UNL     1      20.044  -5.114  23.615  0.00  0.00    +0.277 C 
ENDBRANCH  22   5
ENDBRANCH  17  19
ENDBRANCH  11  15
BRANCH  18  23
ATOM      1  F   UNL     1      22.947   4.818  20.071  0.00  0.00    -0.164 F 
ATOM      2  F   UNL     1      21.105   3.830  20.669  0.00  0.00    -0.164 F 
ATOM      3  F   UNL     1      22.167   5.086  22.083  0.00  0.00    -0.164 F 
ATOM     23  C   UNL     1      22.358   4.151  21.106  0.00  0.00    +0.434 C 
ENDBRANCH  18  23
TORSDOF 4
ENDMDL
MODEL 6
REMARK VINA RESULT:      -6.5      3.213      4.635
REMARK  Name = 51137933
REMARK  5 active torsions:
REMARK  status: ('A' for Active; 'I' for Inactive)
REMARK    1  A    between atoms: O_5  and  C_22
REMARK    2  A    between atoms: O_5  and  C_28
REMARK    3  A    between atoms: C_11  and  C_15
REMARK    4  A    between atoms: C_17  and  C_19
REMARK    5  A    between atoms: C_18  and  C_23
REMARK                            x       y       z     vdW  Elec       q    Type
REMARK                         _______ _______ _______ _____ _____    ______ ____
ROOT
ATOM      6  N   UNL     1      -4.036 -11.501  14.814  0.00  0.00    -0.299 N 
ATOM      8  N   UNL     1      -3.747 -10.576  12.709  0.00  0.00    -0.210 NA
ATOM      9  N   UNL     1      -3.665 -12.960  13.051  0.00  0.00    -0.223 NA
ATOM     11  C   UNL     1      -4.726 -10.509  16.860  0.00  0.00    +0.095 C 
ATOM     12  C   UNL     1      -4.097 -11.879  17.137  0.00  0.00    +0.033 C 
ATOM     13  C   UNL     1      -4.207 -10.191  15.445  0.00  0.00    +0.121 C 
ATOM     14  C   UNL     1      -4.132 -12.588  15.783  0.00  0.00    +0.109 C 
ATOM     16  C   UNL     1      -3.807 -11.687  13.467  0.00  0.00    +0.218 A 
ATOM     18  C   UNL     1      -3.521 -10.795  11.396  0.00  0.00    +0.149 A 
ATOM     20  C   UNL     1      -3.442 -13.106  11.729  0.00  0.00    +0.116 A 
ATOM     21  C   UNL     1      -3.359 -12.049  10.844  0.00  0.00    +0.052 A 
ENDROOT
BRANCH  11  15
ATOM      4  O   UNL     1      -6.944  -9.531  16.463  0.00  0.00    -0.420 OA
ATOM      7  N   UNL     1      -6.982 -11.408  17.681  0.00  0.00    -0.112 NA
ATOM     10  N   UNL     1      -8.284 -10.967  17.534  0.00  0.00    -0.107 NA
ATOM     15  C   UNL     1      -6.234 -10.539  17.040  0.00  0.00    +0.222 A 
ATOM     17  C   UNL     1      -8.214  -9.869  16.817  0.00  0.00    +0.252 A 
BRANCH  17  19
ATOM     19  C   UNL     1      -9.249  -8.988  16.358  0.00  0.00    +0.080 A 
ATOM     22  C   UNL     1      -9.795  -9.130  15.083  0.00  0.00    +0.132 A 
ATOM     24  C   UNL     1      -9.706  -7.980  17.206  0.00  0.00    +0.017 A 
ATOM     25  C   UNL     1     -10.800  -8.263  14.654  0.00  0.00    +0.046 A 
ATOM     26  C   UNL     1     -10.712  -7.112  16.777  0.00  0.00    +0.001 A 
ATOM     27  C   UNL     1     -11.258  -7.253  15.501  0.00  0.00    +0.004 A 
BRANCH  22   5
ATOM      5  O   UNL     1      -9.366 -10.107  14.233  0.00  0.00    -0.494 OA
ATOM     28  C   UNL     1      -8.554  -9.698  13.135  0.00  0.00    +0.277 C 
ENDBRANCH  22   5
ENDBRANCH  17  19
ENDBRANCH  11  15
BRANCH  18  23
ATOM      1  F   UNL     1      -3.706  -9.880   9.210  0.00  0.00    -0.164 F 
ATOM      2  F   UNL     1      -4.336  -8.611  10.859  0.00  0.00    -0.164 F 
ATOM      3  F   UNL     1      -2.226  -8.983  10.525  0.00  0.00    -0.164 F 
ATOM     23  C   UNL     1      -3.448  -9.591  10.518  0.00  0.00    +0.434 C 
ENDBRANCH  18  23
TORSDOF 4
ENDMDL
MODEL 7
REMARK VINA RESULT:      -6.5      1.287      2.176
REMARK  Name = 51137933
REMARK  5 active torsions:
REMARK  status: ('A' for Active; 'I' for Inactive)
REMARK    1  A    between atoms: O_5  and  C_22
REMARK    2  A    between atoms: O_5  and  C_28
REMARK    3  A    between atoms: C_11  and  C_15
REMARK    4  A    between atoms: C_17  and  C_19
REMARK    5  A    between atoms: C_18  and  C_23
REMARK                            x       y       z     vdW  Elec       q    Type
REMARK                         _______ _______ _______ _____ _____    ______ ____
ROOT
ATOM      6  N   UNL     1      -3.723 -11.506  11.574  0.00  0.00    -0.299 N 
ATOM      8  N   UNL     1      -5.170 -10.096  10.439  0.00  0.00    -0.210 NA
ATOM      9  N   UNL     1      -5.592 -12.463  10.594  0.00  0.00    -0.223 NA
ATOM     11  C   UNL     1      -1.869 -11.019  12.979  0.00  0.00    +0.095 C 
ATOM     12  C   UNL     1      -1.829 -12.494  12.565  0.00  0.00    +0.033 C 
ATOM     13  C   UNL     1      -2.819 -10.411  11.929  0.00  0.00    +0.121 C 
ATOM     14  C   UNL     1      -3.252 -12.788  12.089  0.00  0.00    +0.109 C 
ATOM     16  C   UNL     1      -4.878 -11.349  10.838  0.00  0.00    +0.218 A 
ATOM     18  C   UNL     1      -6.306  -9.979   9.720  0.00  0.00    +0.149 A 
ATOM     20  C   UNL     1      -6.716 -12.274   9.871  0.00  0.00    +0.116 A 
ATOM     21  C   UNL     1      -7.126 -11.042   9.402  0.00  0.00    +0.052 A 
ENDROOT
BRANCH  11  15
ATOM      4  O   UNL     1      -3.603 -10.781  14.701  0.00  0.00    -0.420 OA
ATOM      7  N   UNL     1      -1.515 -10.775  15.506  0.00  0.00    -0.112 NA
ATOM     10  N   UNL     1      -2.385 -10.636  16.572  0.00  0.00    -0.107 NA
ATOM     15  C   UNL     1      -2.271 -10.856  14.434  0.00  0.00    +0.222 A 
ATOM     17  C   UNL     1      -3.591 -10.644  16.055  0.00  0.00    +0.252 A 
BRANCH  17  19
ATOM     19  C   UNL     1      -4.875 -10.533  16.686  0.00  0.00    +0.080 A 
ATOM     22  C   UNL     1      -5.236 -11.387  17.728  0.00  0.00    +0.132 A 
ATOM     24  C   UNL     1      -5.767  -9.557  16.243  0.00  0.00    +0.017 A 
ATOM     25  C   UNL     1      -6.489 -11.264  18.328  0.00  0.00    +0.046 A 
ATOM     26  C   UNL     1      -7.021  -9.433  16.843  0.00  0.00    +0.001 A 
ATOM     27  C   UNL     1      -7.382 -10.288  17.885  0.00  0.00    +0.004 A 
BRANCH  22   5
ATOM      5  O   UNL     1      -4.385 -12.351  18.181  0.00  0.00    -0.494 OA
ATOM     28  C   UNL     1      -3.830 -12.164  19.481  0.00  0.00    +0.277 C 
ENDBRANCH  22   5
ENDBRANCH  17  19
ENDBRANCH  11  15
BRANCH  18  23
ATOM      1  F   UNL     1      -6.828  -8.535   7.904  0.00  0.00    -0.164 F 
ATOM      2  F   UNL     1      -7.837  -8.142   9.790  0.00  0.00    -0.164 F 
ATOM      3  F   UNL     1      -5.734  -7.661   9.567  0.00  0.00    -0.164 F 
ATOM     23  C   UNL     1      -6.669  -8.607   9.258  0.00  0.00    +0.434 C 
ENDBRANCH  18  23
TORSDOF 4
ENDMDL
MODEL 8
REMARK VINA RESULT:      -6.5      3.054      4.676
REMARK  Name = 51137933
REMARK  5 active torsions:
REMARK  status: ('A' for Active; 'I' for Inactive)
REMARK    1  A    between atoms: O_5  and  C_22
REMARK    2  A    between atoms: O_5  and  C_28
REMARK    3  A    between atoms: C_11  and  C_15
REMARK    4  A    between atoms: C_17  and  C_19
REMARK    5  A    between atoms: C_18  and  C_23
REMARK                            x       y       z     vdW  Elec       q    Type
REMARK                         _______ _______ _______ _____ _____    ______ ____
ROOT
ATOM      6  N   UNL     1      -5.796  -9.014   8.980  0.00  0.00    -0.299 N 
ATOM      8  N   UNL     1      -7.579  -7.571   8.653  0.00  0.00    -0.210 NA
ATOM      9  N   UNL     1      -7.181  -9.426   7.168  0.00  0.00    -0.223 NA
ATOM     11  C   UNL     1      -4.286  -9.223  10.803  0.00  0.00    +0.095 C 
ATOM     12  C   UNL     1      -3.729  -9.966   9.585  0.00  0.00    +0.033 C 
ATOM     13  C   UNL     1      -5.335  -8.291  10.166  0.00  0.00    +0.121 C 
ATOM     14  C   UNL     1      -4.943 -10.159   8.676  0.00  0.00    +0.109 C 
ATOM     16  C   UNL     1      -6.899  -8.656   8.235  0.00  0.00    +0.218 A 
ATOM     18  C   UNL     1      -8.652  -7.248   7.901  0.00  0.00    +0.149 A 
ATOM     20  C   UNL     1      -8.266  -9.047   6.461  0.00  0.00    +0.116 A 
ATOM     21  C   UNL     1      -9.047  -7.956   6.784  0.00  0.00    +0.052 A 
ENDROOT
BRANCH  11  15
ATOM      4  O   UNL     1      -4.567  -9.842  13.163  0.00  0.00    -0.420 OA
ATOM      7  N   UNL     1      -5.418 -11.330  11.725  0.00  0.00    -0.112 NA
ATOM     10  N   UNL     1      -5.644 -11.797  13.007  0.00  0.00    -0.107 NA
ATOM     15  C   UNL     1      -4.788 -10.186  11.865  0.00  0.00    +0.222 A 
ATOM     17  C   UNL     1      -5.130 -10.897  13.813  0.00  0.00    +0.252 A 
BRANCH  17  19
ATOM     19  C   UNL     1      -5.071 -10.855  15.246  0.00  0.00    +0.080 A 
ATOM     22  C   UNL     1      -3.936 -11.292  15.928  0.00  0.00    +0.132 A 
ATOM     24  C   UNL     1      -6.169 -10.372  15.956  0.00  0.00    +0.017 A 
ATOM     25  C   UNL     1      -3.898 -11.244  17.321  0.00  0.00    +0.046 A 
ATOM     26  C   UNL     1      -6.132 -10.324  17.350  0.00  0.00    +0.001 A 
ATOM     27  C   UNL     1      -4.996 -10.761  18.033  0.00  0.00    +0.004 A 
BRANCH  22   5
ATOM      5  O   UNL     1      -2.848 -11.770  15.259  0.00  0.00    -0.494 OA
ATOM     28  C   UNL     1      -1.615 -11.080  15.452  0.00  0.00    +0.277 C 
ENDBRANCH  22   5
ENDBRANCH  17  19
ENDBRANCH  11  15
BRANCH  18  23
ATOM      1  F   UNL     1      -8.647  -4.966   8.567  0.00  0.00    -0.164 F 
ATOM      2  F   UNL     1     -10.355  -5.643   7.405  0.00  0.00    -0.164 F 
ATOM      3  F   UNL     1     -10.148  -6.249   9.478  0.00  0.00    -0.164 F 
ATOM     23  C   UNL     1      -9.436  -6.053   8.329  0.00  0.00    +0.434 C 
ENDBRANCH  18  23
TORSDOF 4
ENDMDL
MODEL 9
REMARK VINA RESULT:      -6.4     24.248     26.722
REMARK  Name = 51137933
REMARK  5 active torsions:
REMARK  status: ('A' for Active; 'I' for Inactive)
REMARK    1  A    between atoms: O_5  and  C_22
REMARK    2  A    between atoms: O_5  and  C_28
REMARK    3  A    between atoms: C_11  and  C_15
REMARK    4  A    between atoms: C_17  and  C_19
REMARK    5  A    between atoms: C_18  and  C_23
REMARK                            x       y       z     vdW  Elec       q    Type
REMARK                         _______ _______ _______ _____ _____    ______ ____
ROOT
ATOM      6  N   UNL     1      12.333   8.439   6.426  0.00  0.00    -0.299 N 
ATOM      8  N   UNL     1      11.046   6.936   7.632  0.00  0.00    -0.210 NA
ATOM      9  N   UNL     1      10.067   8.888   6.614  0.00  0.00    -0.223 NA
ATOM     11  C   UNL     1      14.588   8.305   5.689  0.00  0.00    +0.095 C 
ATOM     12  C   UNL     1      14.098   9.753   5.587  0.00  0.00    +0.033 C 
ATOM     13  C   UNL     1      13.563   7.680   6.655  0.00  0.00    +0.121 C 
ATOM     14  C   UNL     1      12.574   9.637   5.626  0.00  0.00    +0.109 C 
ATOM     16  C   UNL     1      11.096   8.073   6.910  0.00  0.00    +0.218 A 
ATOM     18  C   UNL     1       9.820   6.608   8.091  0.00  0.00    +0.149 A 
ATOM     20  C   UNL     1       8.871   8.500   7.104  0.00  0.00    +0.116 A 
ATOM     21  C   UNL     1       8.686   7.358   7.857  0.00  0.00    +0.052 A 
ENDROOT
BRANCH  11  15
ATOM      4  O   UNL     1      13.662   6.906   3.895  0.00  0.00    -0.420 OA
ATOM      7  N   UNL     1      15.703   7.714   3.458  0.00  0.00    -0.112 NA
ATOM     10  N   UNL     1      15.304   6.951   2.376  0.00  0.00    -0.107 NA
ATOM     15  C   UNL     1      14.714   7.659   4.320  0.00  0.00    +0.222 A 
ATOM     17  C   UNL     1      14.108   6.500   2.675  0.00  0.00    +0.252 A 
BRANCH  17  19
ATOM     19  C   UNL     1      13.216   5.661   1.928  0.00  0.00    +0.080 A 
ATOM     22  C   UNL     1      13.643   4.433   1.424  0.00  0.00    +0.132 A 
ATOM     24  C   UNL     1      11.907   6.089   1.708  0.00  0.00    +0.017 A 
ATOM     25  C   UNL     1      12.761   3.631   0.700  0.00  0.00    +0.046 A 
ATOM     26  C   UNL     1      11.024   5.287   0.984  0.00  0.00    +0.001 A 
ATOM     27  C   UNL     1      11.451   4.058   0.479  0.00  0.00    +0.004 A 
BRANCH  22   5
ATOM      5  O   UNL     1      14.917   3.990   1.624  0.00  0.00    -0.494 OA
ATOM     28  C   UNL     1      15.742   3.853   0.470  0.00  0.00    +0.277 C 
ENDBRANCH  22   5
ENDBRANCH  17  19
ENDBRANCH  11  15
BRANCH  18  23
ATOM      1  F   UNL     1      10.677   5.274   9.864  0.00  0.00    -0.164 F 
ATOM      2  F   UNL     1       8.526   5.219   9.547  0.00  0.00    -0.164 F 
ATOM      3  F   UNL     1       9.851   4.217   8.152  0.00  0.00    -0.164 F 
ATOM     23  C   UNL     1       9.718   5.355   8.895  0.00  0.00    +0.434 C 
ENDBRANCH  18  23
TORSDOF 4
ENDMDL
MODEL 10
REMARK VINA RESULT:      -6.4      4.701      9.003
REMARK  Name = 51137933
REMARK  5 active torsions:
REMARK  status: ('A' for Active; 'I' for Inactive)
REMARK    1  A    between atoms: O_5  and  C_22
REMARK    2  A    between atoms: O_5  and  C_28
REMARK    3  A    between atoms: C_11  and  C_15
REMARK    4  A    between atoms: C_17  and  C_19
REMARK    5  A    between atoms: C_18  and  C_23
REMARK                            x       y       z     vdW  Elec       q    Type
REMARK                         _______ _______ _______ _____ _____    ______ ____
ROOT
ATOM      6  N   UNL     1      -4.861  -9.971  12.046  0.00  0.00    -0.299 N 
ATOM      8  N   UNL     1      -3.324 -10.370  13.734  0.00  0.00    -0.210 NA
ATOM      9  N   UNL     1      -5.687 -10.684  14.091  0.00  0.00    -0.223 NA
ATOM     11  C   UNL     1      -4.541  -9.529   9.733  0.00  0.00    +0.095 C 
ATOM     12  C   UNL     1      -5.973  -9.161  10.134  0.00  0.00    +0.033 C 
ATOM     13  C   UNL     1      -3.821  -9.576  11.094  0.00  0.00    +0.121 C 
ATOM     14  C   UNL     1      -6.194  -9.901  11.454  0.00  0.00    +0.109 C 
ATOM     16  C   UNL     1      -4.614 -10.359  13.345  0.00  0.00    +0.218 A 
ATOM     18  C   UNL     1      -3.119 -10.753  15.012  0.00  0.00    +0.149 A 
ATOM     20  C   UNL     1      -5.409 -11.057  15.357  0.00  0.00    +0.116 A 
ATOM     21  C   UNL     1      -4.132 -11.111  15.878  0.00  0.00    +0.052 A 
ENDROOT
BRANCH  11  15
ATOM      4  O   UNL     1      -4.454 -10.646   7.547  0.00  0.00    -0.420 OA
ATOM      7  N   UNL     1      -4.508 -12.053   9.286  0.00  0.00    -0.112 NA
ATOM     10  N   UNL     1      -4.460 -12.807   8.128  0.00  0.00    -0.107 NA
ATOM     15  C   UNL     1      -4.502 -10.799   8.899  0.00  0.00    +0.222 A 
ATOM     17  C   UNL     1      -4.430 -11.944   7.139  0.00  0.00    +0.252 A 
BRANCH  17  19
ATOM     19  C   UNL     1      -4.378 -12.155   5.720  0.00  0.00    +0.080 A 
ATOM     22  C   UNL     1      -5.512 -11.978   4.929  0.00  0.00    +0.132 A 
ATOM     24  C   UNL     1      -3.172 -12.543   5.137  0.00  0.00    +0.017 A 
ATOM     25  C   UNL     1      -5.442 -12.188   3.552  0.00  0.00    +0.046 A 
ATOM     26  C   UNL     1      -3.101 -12.754   3.759  0.00  0.00    +0.001 A 
ATOM     27  C   UNL     1      -4.236 -12.577   2.967  0.00  0.00    +0.004 A 
BRANCH  22   5
ATOM      5  O   UNL     1      -6.704 -11.599   5.474  0.00  0.00    -0.494 OA
ATOM     28  C   UNL     1      -7.152 -10.276   5.192  0.00  0.00    +0.277 C 
ENDBRANCH  22   5
ENDBRANCH  17  19
ENDBRANCH  11  15
BRANCH  18  23
ATOM      1  F   UNL     1      -0.991  -9.693  15.070  0.00  0.00    -0.164 F 
ATOM      2  F   UNL     1      -1.582 -10.801  16.844  0.00  0.00    -0.164 F 
ATOM      3  F   UNL     1      -1.003 -11.868  15.047  0.00  0.00    -0.164 F 
ATOM     23  C   UNL     1      -1.704 -10.781  15.485  0.00  0.00    +0.434 C 
ENDBRANCH  18  23
TORSDOF 4
ENDMDL
