MODEL 1
REMARK VINA RESULT:      -5.8      0.000      0.000
REMARK  Name = 56775296
REMARK  5 active torsions:
REMARK  status: ('A' for Active; 'I' for Inactive)
REMARK    1  A    between atoms: N_4  and  C_11
REMARK    2  A    between atoms: N_6  and  C_17
REMARK    3  A    between atoms: C_11  and  C_15
REMARK    4  A    between atoms: C_11  and  C_16
REMARK    5  A    between atoms: C_17  and  C_18
REMARK                            x       y       z     vdW  Elec       q    Type
REMARK                         _______ _______ _______ _____ _____    ______ ____
ROOT
ATOM      1  O   UNL     1      13.319   7.359  21.428  0.00  0.00    -0.364 OA
ATOM      2  O   UNL     1      14.838   7.237  18.213  0.00  0.00    -0.273 OA
ATOM      3  O   UNL     1      10.543  10.390  23.753  0.00  0.00    -0.253 OA
ATOM      4  N   UNL     1      12.696   7.946  18.783  0.00  0.00    -0.290 N 
ATOM      5  N   UNL     1      11.284   9.525  21.748  0.00  0.00    -0.281 N 
ATOM      6  N   UNL     1      11.128  11.840  22.058  0.00  0.00    -0.300 N 
ATOM      7  C   UNL     1      11.720   8.197  19.837  0.00  0.00    +0.124 C 
ATOM      8  C   UNL     1      11.935   7.355  21.092  0.00  0.00    +0.158 C 
ATOM      9  C   UNL     1      11.776   9.629  20.375  0.00  0.00    +0.134 C 
ATOM     10  C   UNL     1      11.174   8.129  22.161  0.00  0.00    +0.142 C 
ATOM     12  C   UNL     1      13.929   7.350  19.036  0.00  0.00    +0.242 C 
ATOM     13  C   UNL     1      14.081   6.737  20.419  0.00  0.00    +0.256 C 
ATOM     14  C   UNL     1      10.953  10.573  22.603  0.00  0.00    +0.302 C 
ATOM     19  H   UNL     1      11.505  11.944  21.123  0.00  0.00    +0.150 HD
ENDROOT
BRANCH   4  11
ATOM     11  C   UNL     1      12.401   8.492  17.466  0.00  0.00    +0.070 C 
ATOM     15  C   UNL     1      12.951   9.907  17.343  0.00  0.00    +0.028 C 
ATOM     16  C   UNL     1      10.902   8.456  17.195  0.00  0.00    +0.028 C 
ENDBRANCH   4  11
BRANCH   6  17
ATOM     17  C   UNL     1      10.840  13.047  22.798  0.00  0.00    +0.102 C 
ATOM     18  C   UNL     1      10.195  14.097  21.917  0.00  0.00    +0.024 C 
ENDBRANCH   6  17
TORSDOF 2
ENDMDL
MODEL 2
REMARK VINA RESULT:      -5.7      2.451      5.529
REMARK  Name = 56775296
REMARK  5 active torsions:
REMARK  status: ('A' for Active; 'I' for Inactive)
REMARK    1  A    between atoms: N_4  and  C_11
REMARK    2  A    between atoms: N_6  and  C_17
REMARK    3  A    between atoms: C_11  and  C_15
REMARK    4  A    between atoms: C_11  and  C_16
REMARK    5  A    between atoms: C_17  and  C_18
REMARK                            x       y       z     vdW  Elec       q    Type
REMARK                         _______ _______ _______ _____ _____    ______ ____
ROOT
ATOM      1  O   UNL     1      11.025   8.055  19.597  0.00  0.00    -0.364 OA
ATOM      2  O   UNL     1      11.346   9.534  22.817  0.00  0.00    -0.273 OA
ATOM      3  O   UNL     1      12.936   8.759  15.337  0.00  0.00    -0.253 OA
ATOM      4  N   UNL     1      13.013   9.039  21.272  0.00  0.00    -0.290 N 
ATOM      5  N   UNL     1      13.105   8.919  17.631  0.00  0.00    -0.281 N 
ATOM      6  N   UNL     1      13.672  10.736  16.268  0.00  0.00    -0.300 N 
ATOM      7  C   UNL     1      13.358   8.524  19.952  0.00  0.00    +0.124 C 
ATOM      8  C   UNL     1      12.338   7.541  19.385  0.00  0.00    +0.158 C 
ATOM      9  C   UNL     1      13.410   9.616  18.880  0.00  0.00    +0.134 C 
ATOM     10  C   UNL     1      12.630   7.563  17.891  0.00  0.00    +0.142 C 
ATOM     12  C   UNL     1      11.715   8.998  21.771  0.00  0.00    +0.242 C 
ATOM     13  C   UNL     1      10.741   8.146  20.974  0.00  0.00    +0.256 C 
ATOM     14  C   UNL     1      13.219   9.424  16.338  0.00  0.00    +0.302 C 
ATOM     19  H   UNL     1      13.854  11.257  17.118  0.00  0.00    +0.150 HD
ENDROOT
BRANCH   4  11
ATOM     11  C   UNL     1      14.057   9.752  21.996  0.00  0.00    +0.070 C 
ATOM     15  C   UNL     1      14.083  11.218  21.581  0.00  0.00    +0.028 C 
ATOM     16  C   UNL     1      15.410   9.090  21.774  0.00  0.00    +0.028 C 
ENDBRANCH   4  11
BRANCH   6  17
ATOM     17  C   UNL     1      13.850  11.427  15.012  0.00  0.00    +0.102 C 
ATOM     18  C   UNL     1      15.276  11.312  14.513  0.00  0.00    +0.024 C 
ENDBRANCH   6  17
TORSDOF 2
ENDMDL
MODEL 3
REMARK VINA RESULT:      -5.5      3.373      5.618
REMARK  Name = 56775296
REMARK  5 active torsions:
REMARK  status: ('A' for Active; 'I' for Inactive)
REMARK    1  A    between atoms: N_4  and  C_11
REMARK    2  A    between atoms: N_6  and  C_17
REMARK    3  A    between atoms: C_11  and  C_15
REMARK    4  A    between atoms: C_11  and  C_16
REMARK    5  A    between atoms: C_17  and  C_18
REMARK                            x       y       z     vdW  Elec       q    Type
REMARK                         _______ _______ _______ _____ _____    ______ ____
ROOT
ATOM      1  O   UNL     1      12.143   8.190  19.787  0.00  0.00    -0.364 OA
ATOM      2  O   UNL     1      14.433   7.756  22.475  0.00  0.00    -0.273 OA
ATOM      3  O   UNL     1      12.413   9.655  15.306  0.00  0.00    -0.253 OA
ATOM      4  N   UNL     1      14.720   7.246  20.223  0.00  0.00    -0.290 N 
ATOM      5  N   UNL     1      13.433   8.696  17.138  0.00  0.00    -0.281 N 
ATOM      6  N   UNL     1      14.504  10.393  15.934  0.00  0.00    -0.300 N 
ATOM      7  C   UNL     1      14.167   7.263  18.874  0.00  0.00    +0.124 C 
ATOM      8  C   UNL     1      12.641   7.258  18.832  0.00  0.00    +0.158 C 
ATOM      9  C   UNL     1      14.524   8.533  18.098  0.00  0.00    +0.134 C 
ATOM     10  C   UNL     1      12.333   7.783  17.436  0.00  0.00    +0.142 C 
ATOM     12  C   UNL     1      13.978   7.626  21.338  0.00  0.00    +0.242 C 
ATOM     13  C   UNL     1      12.488   7.798  21.095  0.00  0.00    +0.256 C 
ATOM     14  C   UNL     1      13.381   9.586  16.069  0.00  0.00    +0.302 C 
ATOM     19  H   UNL     1      15.259  10.330  16.608  0.00  0.00    +0.150 HD
ENDROOT
BRANCH   4  11
ATOM     11  C   UNL     1      16.144   6.967  20.349  0.00  0.00    +0.070 C 
ATOM     15  C   UNL     1      16.933   8.266  20.442  0.00  0.00    +0.028 C 
ATOM     16  C   UNL     1      16.626   6.109  19.186  0.00  0.00    +0.028 C 
ENDBRANCH   4  11
BRANCH   6  17
ATOM     17  C   UNL     1      14.628  11.379  14.885  0.00  0.00    +0.102 C 
ATOM     18  C   UNL     1      16.002  11.341  14.248  0.00  0.00    +0.024 C 
ENDBRANCH   6  17
TORSDOF 2
ENDMDL
MODEL 4
REMARK VINA RESULT:      -5.3      3.080      4.913
REMARK  Name = 56775296
REMARK  5 active torsions:
REMARK  status: ('A' for Active; 'I' for Inactive)
REMARK    1  A    between atoms: N_4  and  C_11
REMARK    2  A    between atoms: N_6  and  C_17
REMARK    3  A    between atoms: C_11  and  C_15
REMARK    4  A    between atoms: C_11  and  C_16
REMARK    5  A    between atoms: C_17  and  C_18
REMARK                            x       y       z     vdW  Elec       q    Type
REMARK                         _______ _______ _______ _____ _____    ______ ____
ROOT
ATOM      1  O   UNL     1      14.342   9.737  21.964  0.00  0.00    -0.364 OA
ATOM      2  O   UNL     1      17.842   9.632  21.336  0.00  0.00    -0.273 OA
ATOM      3  O   UNL     1      10.436   8.508  19.611  0.00  0.00    -0.253 OA
ATOM      4  N   UNL     1      16.228   8.028  20.848  0.00  0.00    -0.290 N 
ATOM      5  N   UNL     1      12.690   8.208  19.997  0.00  0.00    -0.281 N 
ATOM      6  N   UNL     1      11.868   8.357  17.810  0.00  0.00    -0.300 N 
ATOM      7  C   UNL     1      14.820   7.650  20.867  0.00  0.00    +0.124 C 
ATOM      8  C   UNL     1      14.005   8.353  21.950  0.00  0.00    +0.158 C 
ATOM      9  C   UNL     1      14.081   8.034  19.583  0.00  0.00    +0.134 C 
ATOM     10  C   UNL     1      12.573   8.208  21.452  0.00  0.00    +0.142 C 
ATOM     12  C   UNL     1      16.692   9.201  21.437  0.00  0.00    +0.242 C 
ATOM     13  C   UNL     1      15.691   9.921  22.325  0.00  0.00    +0.256 C 
ATOM     14  C   UNL     1      11.581   8.367  19.170  0.00  0.00    +0.302 C 
ATOM     19  H   UNL     1      12.828   8.278  17.494  0.00  0.00    +0.150 HD
ENDROOT
BRANCH   4  11
ATOM     11  C   UNL     1      17.122   7.206  20.045  0.00  0.00    +0.070 C 
ATOM     15  C   UNL     1      16.323   6.217  19.206  0.00  0.00    +0.028 C 
ATOM     16  C   UNL     1      18.132   6.490  20.931  0.00  0.00    +0.028 C 
ENDBRANCH   4  11
BRANCH   6  17
ATOM     17  C   UNL     1      10.845   8.511  16.802  0.00  0.00    +0.102 C 
ATOM     18  C   UNL     1      11.356   9.294  15.609  0.00  0.00    +0.024 C 
ENDBRANCH   6  17
TORSDOF 2
ENDMDL
MODEL 5
REMARK VINA RESULT:      -5.2      2.627      3.385
REMARK  Name = 56775296
REMARK  5 active torsions:
REMARK  status: ('A' for Active; 'I' for Inactive)
REMARK    1  A    between atoms: N_4  and  C_11
REMARK    2  A    between atoms: N_6  and  C_17
REMARK    3  A    between atoms: C_11  and  C_15
REMARK    4  A    between atoms: C_11  and  C_16
REMARK    5  A    between atoms: C_17  and  C_18
REMARK                            x       y       z     vdW  Elec       q    Type
REMARK                         _______ _______ _______ _____ _____    ______ ____
ROOT
ATOM      1  O   UNL     1      10.707   8.348  22.705  0.00  0.00    -0.364 OA
ATOM      2  O   UNL     1      12.018   6.497  19.964  0.00  0.00    -0.273 OA
ATOM      3  O   UNL     1      12.257  11.829  25.495  0.00  0.00    -0.253 OA
ATOM      4  N   UNL     1      12.197   8.776  20.398  0.00  0.00    -0.290 N 
ATOM      5  N   UNL     1      12.328  10.743  23.461  0.00  0.00    -0.281 N 
ATOM      6  N   UNL     1      14.307  11.321  24.571  0.00  0.00    -0.300 N 
ATOM      7  C   UNL     1      11.905   9.887  21.295  0.00  0.00    +0.124 C 
ATOM      8  C   UNL     1      10.673   9.668  22.170  0.00  0.00    +0.158 C 
ATOM      9  C   UNL     1      13.012  10.132  22.323  0.00  0.00    +0.134 C 
ATOM     10  C   UNL     1      10.879  10.658  23.309  0.00  0.00    +0.142 C 
ATOM     12  C   UNL     1      11.696   7.495  20.611  0.00  0.00    +0.242 C 
ATOM     13  C   UNL     1      10.618   7.389  21.677  0.00  0.00    +0.256 C 
ATOM     14  C   UNL     1      12.917  11.335  24.576  0.00  0.00    +0.302 C 
ATOM     19  H   UNL     1      14.808  10.869  23.814  0.00  0.00    +0.150 HD
ENDROOT
BRANCH   4  11
ATOM     11  C   UNL     1      13.172   9.018  19.343  0.00  0.00    +0.070 C 
ATOM     15  C   UNL     1      14.575   8.684  19.833  0.00  0.00    +0.028 C 
ATOM     16  C   UNL     1      13.085  10.457  18.853  0.00  0.00    +0.028 C 
ENDBRANCH   4  11
BRANCH   6  17
ATOM     17  C   UNL     1      15.091  11.886  25.645  0.00  0.00    +0.102 C 
ATOM     18  C   UNL     1      15.614  13.262  25.284  0.00  0.00    +0.024 C 
ENDBRANCH   6  17
TORSDOF 2
ENDMDL
MODEL 6
REMARK VINA RESULT:      -5.1      2.144      5.412
REMARK  Name = 56775296
REMARK  5 active torsions:
REMARK  status: ('A' for Active; 'I' for Inactive)
REMARK    1  A    between atoms: N_4  and  C_11
REMARK    2  A    between atoms: N_6  and  C_17
REMARK    3  A    between atoms: C_11  and  C_15
REMARK    4  A    between atoms: C_11  and  C_16
REMARK    5  A    between atoms: C_17  and  C_18
REMARK                            x       y       z     vdW  Elec       q    Type
REMARK                         _______ _______ _______ _____ _____    ______ ____
ROOT
ATOM      1  O   UNL     1      10.819   8.886  22.022  0.00  0.00    -0.364 OA
ATOM      2  O   UNL     1      11.519  11.869  23.830  0.00  0.00    -0.273 OA
ATOM      3  O   UNL     1      11.936   7.156  17.772  0.00  0.00    -0.253 OA
ATOM      4  N   UNL     1      12.952  10.602  22.505  0.00  0.00    -0.290 N 
ATOM      5  N   UNL     1      12.460   8.531  19.548  0.00  0.00    -0.281 N 
ATOM      6  N   UNL     1      12.624   9.316  17.349  0.00  0.00    -0.300 N 
ATOM      7  C   UNL     1      13.124   9.452  21.626  0.00  0.00    +0.124 C 
ATOM      8  C   UNL     1      12.122   8.328  21.874  0.00  0.00    +0.158 C 
ATOM      9  C   UNL     1      12.898   9.789  20.150  0.00  0.00    +0.134 C 
ATOM     10  C   UNL     1      12.164   7.535  20.574  0.00  0.00    +0.142 C 
ATOM     12  C   UNL     1      11.762  10.849  23.183  0.00  0.00    +0.242 C 
ATOM     13  C   UNL     1      10.755   9.710  23.163  0.00  0.00    +0.256 C 
ATOM     14  C   UNL     1      12.314   8.254  18.191  0.00  0.00    +0.302 C 
ATOM     19  H   UNL     1      12.892  10.212  17.739  0.00  0.00    +0.150 HD
ENDROOT
BRANCH   4  11
ATOM     11  C   UNL     1      14.028  11.584  22.527  0.00  0.00    +0.070 C 
ATOM     15  C   UNL     1      13.843  12.596  21.404  0.00  0.00    +0.028 C 
ATOM     16  C   UNL     1      15.383  10.895  22.433  0.00  0.00    +0.028 C 
ENDBRANCH   4  11
BRANCH   6  17
ATOM     17  C   UNL     1      12.529   9.216  15.911  0.00  0.00    +0.102 C 
ATOM     18  C   UNL     1      11.109   9.443  15.432  0.00  0.00    +0.024 C 
ENDBRANCH   6  17
TORSDOF 2
ENDMDL
MODEL 7
REMARK VINA RESULT:      -4.9     28.694     30.031
REMARK  Name = 56775296
REMARK  5 active torsions:
REMARK  status: ('A' for Active; 'I' for Inactive)
REMARK    1  A    between atoms: N_4  and  C_11
REMARK    2  A    between atoms: N_6  and  C_17
REMARK    3  A    between atoms: C_11  and  C_15
REMARK    4  A    between atoms: C_11  and  C_16
REMARK    5  A    between atoms: C_17  and  C_18
REMARK                            x       y       z     vdW  Elec       q    Type
REMARK                         _______ _______ _______ _____ _____    ______ ____
ROOT
ATOM      1  O   UNL     1     -15.577   4.699  30.875  0.00  0.00    -0.364 OA
ATOM      2  O   UNL     1     -13.304   2.532  32.548  0.00  0.00    -0.273 OA
ATOM      3  O   UNL     1     -17.371   5.020  26.519  0.00  0.00    -0.253 OA
ATOM      4  N   UNL     1     -14.990   1.987  31.039  0.00  0.00    -0.290 N 
ATOM      5  N   UNL     1     -16.466   3.719  28.194  0.00  0.00    -0.281 N 
ATOM      6  N   UNL     1     -15.705   3.517  25.990  0.00  0.00    -0.300 N 
ATOM      7  C   UNL     1     -16.047   2.453  30.151  0.00  0.00    +0.124 C 
ATOM      8  C   UNL     1     -16.636   3.805  30.546  0.00  0.00    +0.158 C 
ATOM      9  C   UNL     1     -15.560   2.699  28.720  0.00  0.00    +0.134 C 
ATOM     10  C   UNL     1     -17.292   4.285  29.257  0.00  0.00    +0.142 C 
ATOM     12  C   UNL     1     -14.290   2.849  31.880  0.00  0.00    +0.242 C 
ATOM     13  C   UNL     1     -14.874   4.245  32.009  0.00  0.00    +0.256 C 
ATOM     14  C   UNL     1     -16.573   4.148  26.874  0.00  0.00    +0.302 C 
ATOM     19  H   UNL     1     -15.038   2.835  26.333  0.00  0.00    +0.150 HD
ENDROOT
BRANCH   4  11
ATOM     11  C   UNL     1     -14.576   0.597  30.901  0.00  0.00    +0.070 C 
ATOM     15  C   UNL     1     -13.493   0.470  29.837  0.00  0.00    +0.028 C 
ATOM     16  C   UNL     1     -15.773  -0.288  30.581  0.00  0.00    +0.028 C 
ENDBRANCH   4  11
BRANCH   6  17
ATOM     17  C   UNL     1     -15.670   3.834  24.581  0.00  0.00    +0.102 C 
ATOM     18  C   UNL     1     -16.574   2.916  23.784  0.00  0.00    +0.024 C 
ENDBRANCH   6  17
TORSDOF 2
ENDMDL
MODEL 8
REMARK VINA RESULT:      -4.8     25.173     26.442
REMARK  Name = 56775296
REMARK  5 active torsions:
REMARK  status: ('A' for Active; 'I' for Inactive)
REMARK    1  A    between atoms: N_4  and  C_11
REMARK    2  A    between atoms: N_6  and  C_17
REMARK    3  A    between atoms: C_11  and  C_15
REMARK    4  A    between atoms: C_11  and  C_16
REMARK    5  A    between atoms: C_17  and  C_18
REMARK                            x       y       z     vdW  Elec       q    Type
REMARK                         _______ _______ _______ _____ _____    ______ ____
ROOT
ATOM      1  O   UNL     1      -2.556 -10.296  16.204  0.00  0.00    -0.364 OA
ATOM      2  O   UNL     1      -1.458  -9.890  12.844  0.00  0.00    -0.273 OA
ATOM      3  O   UNL     1      -6.701 -10.124  18.461  0.00  0.00    -0.253 OA
ATOM      4  N   UNL     1      -3.347 -10.996  13.634  0.00  0.00    -0.290 N 
ATOM      5  N   UNL     1      -5.522 -10.503  16.515  0.00  0.00    -0.281 N 
ATOM      6  N   UNL     1      -7.447  -9.171  16.498  0.00  0.00    -0.300 N 
ATOM      7  C   UNL     1      -4.167 -11.372  14.778  0.00  0.00    +0.124 C 
ATOM      8  C   UNL     1      -3.398 -11.440  16.095  0.00  0.00    +0.158 C 
ATOM      9  C   UNL     1      -5.272 -10.357  15.082  0.00  0.00    +0.134 C 
ATOM     10  C   UNL     1      -4.499 -11.332  17.143  0.00  0.00    +0.142 C 
ATOM     12  C   UNL     1      -2.124 -10.347  13.775  0.00  0.00    +0.242 C 
ATOM     13  C   UNL     1      -1.576 -10.298  15.192  0.00  0.00    +0.256 C 
ATOM     14  C   UNL     1      -6.568  -9.946  17.246  0.00  0.00    +0.302 C 
ATOM     19  H   UNL     1      -7.277  -9.020  15.511  0.00  0.00    +0.150 HD
ENDROOT
BRANCH   4  11
ATOM     11  C   UNL     1      -3.932 -11.182  12.312  0.00  0.00    +0.070 C 
ATOM     15  C   UNL     1      -4.673  -9.924  11.879  0.00  0.00    +0.028 C 
ATOM     16  C   UNL     1      -4.850 -12.397  12.300  0.00  0.00    +0.028 C 
ENDBRANCH   4  11
BRANCH   6  17
ATOM     17  C   UNL     1      -8.591  -8.512  17.087  0.00  0.00    +0.102 C 
ATOM     18  C   UNL     1      -9.710  -8.340  16.080  0.00  0.00    +0.024 C 
ENDBRANCH   6  17
TORSDOF 2
ENDMDL
MODEL 9
REMARK VINA RESULT:      -4.8     29.109     30.464
REMARK  Name = 56775296
REMARK  5 active torsions:
REMARK  status: ('A' for Active; 'I' for Inactive)
REMARK    1  A    between atoms: N_4  and  C_11
REMARK    2  A    between atoms: N_6  and  C_17
REMARK    3  A    between atoms: C_11  and  C_15
REMARK    4  A    between atoms: C_11  and  C_16
REMARK    5  A    between atoms: C_17  and  C_18
REMARK                            x       y       z     vdW  Elec       q    Type
REMARK                         _______ _______ _______ _____ _____    ______ ____
ROOT
ATOM      1  O   UNL     1     -17.743   0.028  25.424  0.00  0.00    -0.364 OA
ATOM      2  O   UNL     1     -17.198   1.962  22.487  0.00  0.00    -0.273 OA
ATOM      3  O   UNL     1     -16.280   0.192  29.911  0.00  0.00    -0.253 OA
ATOM      4  N   UNL     1     -17.534   2.695  24.670  0.00  0.00    -0.290 N 
ATOM      5  N   UNL     1     -16.737   1.295  27.938  0.00  0.00    -0.281 N 
ATOM      6  N   UNL     1     -14.743   1.703  29.094  0.00  0.00    -0.300 N 
ATOM      7  C   UNL     1     -17.743   2.346  26.070  0.00  0.00    +0.124 C 
ATOM      8  C   UNL     1     -18.381   0.975  26.277  0.00  0.00    +0.158 C 
ATOM      9  C   UNL     1     -16.436   2.236  26.859  0.00  0.00    +0.134 C 
ATOM     10  C   UNL     1     -18.025   0.643  27.720  0.00  0.00    +0.142 C 
ATOM     12  C   UNL     1     -17.501   1.738  23.660  0.00  0.00    +0.242 C 
ATOM     13  C   UNL     1     -17.962   0.349  24.069  0.00  0.00    +0.256 C 
ATOM     14  C   UNL     1     -15.944   1.005  29.045  0.00  0.00    +0.302 C 
ATOM     19  H   UNL     1     -14.490   2.333  28.341  0.00  0.00    +0.150 HD
ENDROOT
BRANCH   4  11
ATOM     11  C   UNL     1     -17.198   4.083  24.378  0.00  0.00    +0.070 C 
ATOM     15  C   UNL     1     -15.688   4.280  24.413  0.00  0.00    +0.028 C 
ATOM     16  C   UNL     1     -17.901   5.019  25.352  0.00  0.00    +0.028 C 
ENDBRANCH   4  11
BRANCH   6  17
ATOM     17  C   UNL     1     -13.791   1.532  30.167  0.00  0.00    +0.102 C 
ATOM     18  C   UNL     1     -13.416   2.859  30.794  0.00  0.00    +0.024 C 
ENDBRANCH   6  17
TORSDOF 2
ENDMDL
MODEL 10
REMARK VINA RESULT:      -4.7     27.138     28.342
REMARK  Name = 56775296
REMARK  5 active torsions:
REMARK  status: ('A' for Active; 'I' for Inactive)
REMARK    1  A    between atoms: N_4  and  C_11
REMARK    2  A    between atoms: N_6  and  C_17
REMARK    3  A    between atoms: C_11  and  C_15
REMARK    4  A    between atoms: C_11  and  C_16
REMARK    5  A    between atoms: C_17  and  C_18
REMARK                            x       y       z     vdW  Elec       q    Type
REMARK                         _______ _______ _______ _____ _____    ______ ____
ROOT
ATOM      1  O   UNL     1      -9.122 -11.673  18.786  0.00  0.00    -0.364 OA
ATOM      2  O   UNL     1      -6.078 -11.467  20.616  0.00  0.00    -0.273 OA
ATOM      3  O   UNL     1     -11.202  -9.159  15.372  0.00  0.00    -0.253 OA
ATOM      4  N   UNL     1      -6.438 -11.099  18.347  0.00  0.00    -0.290 N 
ATOM      5  N   UNL     1      -9.268  -9.841  16.428  0.00  0.00    -0.281 N 
ATOM      6  N   UNL     1      -9.601  -7.585  15.899  0.00  0.00    -0.300 N 
ATOM      7  C   UNL     1      -7.390 -11.028  17.245  0.00  0.00    +0.124 C 
ATOM      8  C   UNL     1      -8.646 -11.870  17.458  0.00  0.00    +0.158 C 
ATOM      9  C   UNL     1      -7.955  -9.622  17.033  0.00  0.00    +0.134 C 
ATOM     10  C   UNL     1      -9.644 -11.250  16.488  0.00  0.00    +0.142 C 
ATOM     12  C   UNL     1      -6.806 -11.515  19.623  0.00  0.00    +0.242 C 
ATOM     13  C   UNL     1      -8.186 -12.143  19.728  0.00  0.00    +0.256 C 
ATOM     14  C   UNL     1     -10.104  -8.881  15.862  0.00  0.00    +0.302 C 
ATOM     19  H   UNL     1      -8.712  -7.397  16.347  0.00  0.00    +0.150 HD
ENDROOT
BRANCH   4  11
ATOM     11  C   UNL     1      -5.107 -10.560  18.105  0.00  0.00    +0.070 C 
ATOM     15  C   UNL     1      -4.992 -10.053  16.673  0.00  0.00    +0.028 C 
ATOM     16  C   UNL     1      -4.043 -11.607  18.407  0.00  0.00    +0.028 C 
ENDBRANCH   4  11
BRANCH   6  17
ATOM     17  C   UNL     1     -10.328  -6.458  15.362  0.00  0.00    +0.102 C 
ATOM     18  C   UNL     1     -11.386  -5.969  16.330  0.00  0.00    +0.024 C 
ENDBRANCH   6  17
TORSDOF 2
ENDMDL
