MODEL 1
REMARK VINA RESULT:      -7.1      0.000      0.000
REMARK  Name = 40780656
REMARK  14 active torsions:
REMARK  status: ('A' for Active; 'I' for Inactive)
REMARK    1  A    between atoms: O_2  and  C_10
REMARK    2  A    between atoms: O_3  and  C_11
REMARK    3  A    between atoms: O_6  and  C_30
REMARK    4  A    between atoms: O_6  and  C_33
REMARK    5  A    between atoms: N_7  and  C_15
REMARK    6  A    between atoms: N_8  and  C_18
REMARK    7  A    between atoms: N_9  and  C_27
REMARK    8  A    between atoms: N_9  and  C_31
REMARK    9  A    between atoms: N_9  and  C_32
REMARK   10  A    between atoms: C_12  and  C_14
REMARK   11  A    between atoms: C_13  and  C_15
REMARK   12  A    between atoms: C_14  and  C_16
REMARK   13  A    between atoms: C_17  and  C_19
REMARK   14  A    between atoms: C_18  and  C_20
REMARK                            x       y       z     vdW  Elec       q    Type
REMARK                         _______ _______ _______ _____ _____    ______ ____
ROOT
ATOM      1  O   UNL     1      13.228  10.874  17.847  0.00  0.00    -0.366 OA
ATOM     10  C   UNL     1      14.159  10.693  15.665  0.00  0.00    +0.175 C 
ATOM     11  C   UNL     1      13.976   9.307  16.251  0.00  0.00    +0.176 C 
ATOM     12  C   UNL     1      14.073  11.575  16.906  0.00  0.00    +0.158 C 
ATOM     13  C   UNL     1      12.933   9.566  17.325  0.00  0.00    +0.167 C 
ENDROOT
BRANCH  10   2
ATOM      2  O   UNL     1      13.062  11.018  14.814  0.00  0.00    -0.387 OA
ATOM     34  H   UNL     1      13.374  11.689  14.182  0.00  0.00    +0.210 HD
ENDBRANCH  10   2
BRANCH  11   3
ATOM      3  O   UNL     1      13.539   8.354  15.306  0.00  0.00    -0.387 OA
ATOM     35  H   UNL     1      13.306   7.546  15.794  0.00  0.00    +0.210 HD
ENDBRANCH  11   3
BRANCH  12  14
ATOM     14  C   UNL     1      15.423  11.803  17.571  0.00  0.00    +0.130 C 
BRANCH  14  16
ATOM      4  O   UNL     1      16.020  10.543  19.548  0.00  0.00    -0.276 OA
ATOM      8  N   UNL     1      14.608  12.377  19.757  0.00  0.00    -0.311 N 
ATOM     16  C   UNL     1      15.403  11.483  19.054  0.00  0.00    +0.216 C 
ATOM     37  H   UNL     1      14.155  13.136  19.257  0.00  0.00    +0.149 HD
BRANCH   8  18
ATOM     18  C   UNL     1      14.410  12.303  21.187  0.00  0.00    +0.139 C 
BRANCH  18  20
ATOM     20  C   UNL     1      13.378  11.278  21.558  0.00  0.00    -0.030 A 
ATOM     23  C   UNL     1      13.770   9.979  21.887  0.00  0.00    +0.009 A 
ATOM     24  C   UNL     1      12.027  11.623  21.575  0.00  0.00    +0.009 A 
ATOM     28  C   UNL     1      12.812   9.028  22.232  0.00  0.00    +0.046 A 
ATOM     29  C   UNL     1      11.068  10.671  21.920  0.00  0.00    +0.046 A 
ATOM     30  C   UNL     1      11.460   9.373  22.248  0.00  0.00    +0.120 A 
BRANCH  30   6
ATOM      6  O   UNL     1      10.524   8.444  22.586  0.00  0.00    -0.495 OA
ATOM     33  C   UNL     1      10.541   7.214  21.864  0.00  0.00    +0.277 C 
ENDBRANCH  30   6
ENDBRANCH  18  20
ENDBRANCH   8  18
ENDBRANCH  14  16
ENDBRANCH  12  14
BRANCH  13  15
ATOM     15  C   UNL     1      12.963   8.548  18.451  0.00  0.00    +0.138 C 
BRANCH  15   7
ATOM      5  O   UNL     1      13.769   6.467  20.257  0.00  0.00    -0.270 OA
ATOM      7  N   UNL     1      14.306   8.154  18.759  0.00  0.00    -0.309 N 
ATOM     17  C   UNL     1      14.607   7.130  19.652  0.00  0.00    +0.244 C 
ATOM     36  H   UNL     1      15.047   8.625  18.251  0.00  0.00    +0.149 HD
BRANCH  17  19
ATOM     19  C   UNL     1      16.050   6.862  19.883  0.00  0.00    +0.037 A 
ATOM     21  C   UNL     1      16.739   5.987  19.045  0.00  0.00    +0.015 A 
ATOM     22  C   UNL     1      16.715   7.486  20.938  0.00  0.00    +0.015 A 
ATOM     25  C   UNL     1      18.093   5.734  19.262  0.00  0.00    +0.024 A 
ATOM     26  C   UNL     1      18.069   7.233  21.156  0.00  0.00    +0.024 A 
ATOM     27  C   UNL     1      18.758   6.358  20.318  0.00  0.00    +0.029 A 
BRANCH  27   9
ATOM      9  N   UNL     1      20.128   6.103  20.538  0.00  0.00    -0.336 N 
ATOM     31  C   UNL     1      20.644   4.751  20.468  0.00  0.00    +0.129 C 
ATOM     32  C   UNL     1      21.039   7.192  20.831  0.00  0.00    +0.129 C 
ENDBRANCH  27   9
ENDBRANCH  17  19
ENDBRANCH  15   7
ENDBRANCH  13  15
TORSDOF 11
ENDMDL
MODEL 2
REMARK VINA RESULT:      -6.6      2.196      7.320
REMARK  Name = 40780656
REMARK  14 active torsions:
REMARK  status: ('A' for Active; 'I' for Inactive)
REMARK    1  A    between atoms: O_2  and  C_10
REMARK    2  A    between atoms: O_3  and  C_11
REMARK    3  A    between atoms: O_6  and  C_30
REMARK    4  A    between atoms: O_6  and  C_33
REMARK    5  A    between atoms: N_7  and  C_15
REMARK    6  A    between atoms: N_8  and  C_18
REMARK    7  A    between atoms: N_9  and  C_27
REMARK    8  A    between atoms: N_9  and  C_31
REMARK    9  A    between atoms: N_9  and  C_32
REMARK   10  A    between atoms: C_12  and  C_14
REMARK   11  A    between atoms: C_13  and  C_15
REMARK   12  A    between atoms: C_14  and  C_16
REMARK   13  A    between atoms: C_17  and  C_19
REMARK   14  A    between atoms: C_18  and  C_20
REMARK                            x       y       z     vdW  Elec       q    Type
REMARK                         _______ _______ _______ _____ _____    ______ ____
ROOT
ATOM      1  O   UNL     1      11.626   9.197  20.311  0.00  0.00    -0.366 OA
ATOM     10  C   UNL     1      10.773   8.497  22.419  0.00  0.00    +0.175 C 
ATOM     11  C   UNL     1      11.984   9.382  22.635  0.00  0.00    +0.176 C 
ATOM     12  C   UNL     1      10.923   8.108  20.952  0.00  0.00    +0.158 C 
ATOM     13  C   UNL     1      12.049  10.135  21.317  0.00  0.00    +0.167 C 
ENDROOT
BRANCH  10   2
ATOM      2  O   UNL     1       9.574   9.257  22.556  0.00  0.00    -0.387 OA
ATOM     34  H   UNL     1       8.907   8.854  21.973  0.00  0.00    +0.210 HD
ENDBRANCH  10   2
BRANCH  11   3
ATOM      3  O   UNL     1      11.850  10.254  23.737  0.00  0.00    -0.387 OA
ATOM     35  H   UNL     1      12.441  11.010  23.585  0.00  0.00    +0.210 HD
ENDBRANCH  11   3
BRANCH  12  14
ATOM     14  C   UNL     1      11.743   6.841  20.752  0.00  0.00    +0.130 C 
BRANCH  14  16
ATOM      4  O   UNL     1      12.205   6.818  18.377  0.00  0.00    -0.276 OA
ATOM      8  N   UNL     1      13.965   7.088  19.871  0.00  0.00    -0.311 N 
ATOM     16  C   UNL     1      12.633   6.911  19.525  0.00  0.00    +0.216 C 
ATOM     37  H   UNL     1      14.214   7.176  20.852  0.00  0.00    +0.149 HD
BRANCH   8  18
ATOM     18  C   UNL     1      15.028   7.186  18.897  0.00  0.00    +0.139 C 
BRANCH  18  20
ATOM     20  C   UNL     1      16.364   6.839  19.487  0.00  0.00    -0.030 A 
ATOM     23  C   UNL     1      17.148   5.843  18.905  0.00  0.00    +0.009 A 
ATOM     24  C   UNL     1      16.822   7.514  20.619  0.00  0.00    +0.009 A 
ATOM     28  C   UNL     1      18.389   5.522  19.454  0.00  0.00    +0.046 A 
ATOM     29  C   UNL     1      18.063   7.193  21.168  0.00  0.00    +0.046 A 
ATOM     30  C   UNL     1      18.847   6.197  20.586  0.00  0.00    +0.120 A 
BRANCH  30   6
ATOM      6  O   UNL     1      20.059   5.884  21.121  0.00  0.00    -0.495 OA
ATOM     33  C   UNL     1      20.767   4.796  20.529  0.00  0.00    +0.277 C 
ENDBRANCH  30   6
ENDBRANCH  18  20
ENDBRANCH   8  18
ENDBRANCH  14  16
ENDBRANCH  12  14
BRANCH  13  15
ATOM     15  C   UNL     1      13.439  10.648  20.985  0.00  0.00    +0.138 C 
BRANCH  15   7
ATOM      5  O   UNL     1      15.880  10.652  19.474  0.00  0.00    -0.270 OA
ATOM      7  N   UNL     1      13.577  10.903  19.581  0.00  0.00    -0.309 N 
ATOM     17  C   UNL     1      14.806  10.885  18.927  0.00  0.00    +0.244 C 
ATOM     36  H   UNL     1      12.720  11.048  19.057  0.00  0.00    +0.149 HD
BRANCH  17  19
ATOM     19  C   UNL     1      14.782  11.196  17.474  0.00  0.00    +0.037 A 
ATOM     21  C   UNL     1      15.691  12.110  16.943  0.00  0.00    +0.015 A 
ATOM     22  C   UNL     1      13.850  10.574  16.643  0.00  0.00    +0.015 A 
ATOM     25  C   UNL     1      15.668  12.404  15.580  0.00  0.00    +0.024 A 
ATOM     26  C   UNL     1      13.827  10.868  15.280  0.00  0.00    +0.024 A 
ATOM     27  C   UNL     1      14.735  11.782  14.748  0.00  0.00    +0.029 A 
BRANCH  27   9
ATOM      9  N   UNL     1      14.713  12.078  13.369  0.00  0.00    -0.336 N 
ATOM     31  C   UNL     1      15.865  11.794  12.538  0.00  0.00    +0.129 C 
ATOM     32  C   UNL     1      13.533  12.664  12.764  0.00  0.00    +0.129 C 
ENDBRANCH  27   9
ENDBRANCH  17  19
ENDBRANCH  15   7
ENDBRANCH  13  15
TORSDOF 11
ENDMDL
MODEL 3
REMARK VINA RESULT:      -6.5      1.892      5.716
REMARK  Name = 40780656
REMARK  14 active torsions:
REMARK  status: ('A' for Active; 'I' for Inactive)
REMARK    1  A    between atoms: O_2  and  C_10
REMARK    2  A    between atoms: O_3  and  C_11
REMARK    3  A    between atoms: O_6  and  C_30
REMARK    4  A    between atoms: O_6  and  C_33
REMARK    5  A    between atoms: N_7  and  C_15
REMARK    6  A    between atoms: N_8  and  C_18
REMARK    7  A    between atoms: N_9  and  C_27
REMARK    8  A    between atoms: N_9  and  C_31
REMARK    9  A    between atoms: N_9  and  C_32
REMARK   10  A    between atoms: C_12  and  C_14
REMARK   11  A    between atoms: C_13  and  C_15
REMARK   12  A    between atoms: C_14  and  C_16
REMARK   13  A    between atoms: C_17  and  C_19
REMARK   14  A    between atoms: C_18  and  C_20
REMARK                            x       y       z     vdW  Elec       q    Type
REMARK                         _______ _______ _______ _____ _____    ______ ____
ROOT
ATOM      1  O   UNL     1      11.145  10.408  21.193  0.00  0.00    -0.366 OA
ATOM     10  C   UNL     1      11.189  10.819  23.536  0.00  0.00    +0.175 C 
ATOM     11  C   UNL     1      12.291  11.613  22.866  0.00  0.00    +0.176 C 
ATOM     12  C   UNL     1      10.843   9.790  22.465  0.00  0.00    +0.158 C 
ATOM     13  C   UNL     1      11.796  11.669  21.430  0.00  0.00    +0.167 C 
ENDROOT
BRANCH  10   2
ATOM      2  O   UNL     1      10.043  11.643  23.745  0.00  0.00    -0.387 OA
ATOM     34  H   UNL     1       9.979  11.815  24.701  0.00  0.00    +0.210 HD
ENDBRANCH  10   2
BRANCH  11   3
ATOM      3  O   UNL     1      12.468  12.901  23.416  0.00  0.00    -0.387 OA
ATOM     35  H   UNL     1      12.956  12.797  24.251  0.00  0.00    +0.210 HD
ENDBRANCH  11   3
BRANCH  12  14
ATOM     14  C   UNL     1      11.669   8.516  22.573  0.00  0.00    +0.130 C 
BRANCH  14  16
ATOM      4  O   UNL     1      10.506   6.919  21.177  0.00  0.00    -0.276 OA
ATOM      8  N   UNL     1      12.609   7.668  20.531  0.00  0.00    -0.311 N 
ATOM     16  C   UNL     1      11.503   7.611  21.367  0.00  0.00    +0.216 C 
ATOM     37  H   UNL     1      13.376   8.291  20.767  0.00  0.00    +0.149 HD
BRANCH   8  18
ATOM     18  C   UNL     1      12.717   6.903  19.310  0.00  0.00    +0.139 C 
BRANCH  18  20
ATOM     20  C   UNL     1      12.801   7.787  18.099  0.00  0.00    -0.030 A 
ATOM     23  C   UNL     1      11.646   8.375  17.582  0.00  0.00    +0.009 A 
ATOM     24  C   UNL     1      14.033   8.019  17.490  0.00  0.00    +0.009 A 
ATOM     28  C   UNL     1      11.724   9.195  16.458  0.00  0.00    +0.046 A 
ATOM     29  C   UNL     1      14.112   8.839  16.365  0.00  0.00    +0.046 A 
ATOM     30  C   UNL     1      12.957   9.428  15.848  0.00  0.00    +0.120 A 
BRANCH  30   6
ATOM      6  O   UNL     1      13.034  10.229  14.751  0.00  0.00    -0.495 OA
ATOM     33  C   UNL     1      13.856  11.391  14.853  0.00  0.00    +0.277 C 
ENDBRANCH  30   6
ENDBRANCH  18  20
ENDBRANCH   8  18
ENDBRANCH  14  16
ENDBRANCH  12  14
BRANCH  13  15
ATOM     15  C   UNL     1      12.909  11.868  20.417  0.00  0.00    +0.138 C 
BRANCH  15   7
ATOM      5  O   UNL     1      15.645  12.333  21.151  0.00  0.00    -0.270 OA
ATOM      7  N   UNL     1      13.934  10.878  20.572  0.00  0.00    -0.309 N 
ATOM     17  C   UNL     1      15.241  11.195  20.931  0.00  0.00    +0.244 C 
ATOM     36  H   UNL     1      13.654   9.910  20.459  0.00  0.00    +0.149 HD
BRANCH  17  19
ATOM     19  C   UNL     1      16.191  10.056  21.024  0.00  0.00    +0.037 A 
ATOM     21  C   UNL     1      15.772   8.770  20.685  0.00  0.00    +0.015 A 
ATOM     22  C   UNL     1      17.502  10.274  21.449  0.00  0.00    +0.015 A 
ATOM     25  C   UNL     1      16.663   7.701  20.773  0.00  0.00    +0.024 A 
ATOM     26  C   UNL     1      18.393   9.204  21.537  0.00  0.00    +0.024 A 
ATOM     27  C   UNL     1      17.974   7.918  21.199  0.00  0.00    +0.029 A 
BRANCH  27   9
ATOM      9  N   UNL     1      18.876   6.837  21.287  0.00  0.00    -0.336 N 
ATOM     31  C   UNL     1      19.732   6.687  22.446  0.00  0.00    +0.129 C 
ATOM     32  C   UNL     1      18.953   5.858  20.221  0.00  0.00    +0.129 C 
ENDBRANCH  27   9
ENDBRANCH  17  19
ENDBRANCH  15   7
ENDBRANCH  13  15
TORSDOF 11
ENDMDL
MODEL 4
REMARK VINA RESULT:      -6.2     26.891     31.355
REMARK  Name = 40780656
REMARK  14 active torsions:
REMARK  status: ('A' for Active; 'I' for Inactive)
REMARK    1  A    between atoms: O_2  and  C_10
REMARK    2  A    between atoms: O_3  and  C_11
REMARK    3  A    between atoms: O_6  and  C_30
REMARK    4  A    between atoms: O_6  and  C_33
REMARK    5  A    between atoms: N_7  and  C_15
REMARK    6  A    between atoms: N_8  and  C_18
REMARK    7  A    between atoms: N_9  and  C_27
REMARK    8  A    between atoms: N_9  and  C_31
REMARK    9  A    between atoms: N_9  and  C_32
REMARK   10  A    between atoms: C_12  and  C_14
REMARK   11  A    between atoms: C_13  and  C_15
REMARK   12  A    between atoms: C_14  and  C_16
REMARK   13  A    between atoms: C_17  and  C_19
REMARK   14  A    between atoms: C_18  and  C_20
REMARK                            x       y       z     vdW  Elec       q    Type
REMARK                         _______ _______ _______ _____ _____    ______ ____
ROOT
ATOM      1  O   UNL     1     -16.029   2.328  24.724  0.00  0.00    -0.366 OA
ATOM     10  C   UNL     1     -17.908   1.834  23.351  0.00  0.00    +0.175 C 
ATOM     11  C   UNL     1     -17.505   3.280  23.150  0.00  0.00    +0.176 C 
ATOM     12  C   UNL     1     -17.203   1.488  24.659  0.00  0.00    +0.158 C 
ATOM     13  C   UNL     1     -16.063   3.264  23.631  0.00  0.00    +0.167 C 
ENDROOT
BRANCH  10   2
ATOM      2  O   UNL     1     -17.355   1.017  22.321  0.00  0.00    -0.387 OA
ATOM     34  H   UNL     1     -16.664   1.538  21.877  0.00  0.00    +0.210 HD
ENDBRANCH  10   2
BRANCH  11   3
ATOM      3  O   UNL     1     -17.610   3.709  21.809  0.00  0.00    -0.387 OA
ATOM     35  H   UNL     1     -16.732   4.019  21.532  0.00  0.00    +0.210 HD
ENDBRANCH  11   3
BRANCH  12  14
ATOM     14  C   UNL     1     -18.052   1.777  25.889  0.00  0.00    +0.130 C 
BRANCH  14  16
ATOM      4  O   UNL     1     -18.268  -0.014  27.500  0.00  0.00    -0.276 OA
ATOM      8  N   UNL     1     -16.461   1.439  27.658  0.00  0.00    -0.311 N 
ATOM     16  C   UNL     1     -17.632   0.954  27.093  0.00  0.00    +0.216 C 
ATOM     37  H   UNL     1     -15.999   2.236  27.231  0.00  0.00    +0.149 HD
BRANCH   8  18
ATOM     18  C   UNL     1     -15.839   0.844  28.818  0.00  0.00    +0.139 C 
BRANCH  18  20
ATOM     20  C   UNL     1     -15.308   1.882  29.764  0.00  0.00    -0.030 A 
ATOM     23  C   UNL     1     -16.140   2.906  30.217  0.00  0.00    +0.009 A 
ATOM     24  C   UNL     1     -13.982   1.823  30.191  0.00  0.00    +0.009 A 
ATOM     28  C   UNL     1     -15.647   3.869  31.096  0.00  0.00    +0.046 A 
ATOM     29  C   UNL     1     -13.487   2.786  31.069  0.00  0.00    +0.046 A 
ATOM     30  C   UNL     1     -14.319   3.810  31.522  0.00  0.00    +0.120 A 
BRANCH  30   6
ATOM      6  O   UNL     1     -13.838   4.750  32.381  0.00  0.00    -0.495 OA
ATOM     33  C   UNL     1     -14.206   4.624  33.754  0.00  0.00    +0.277 C 
ENDBRANCH  30   6
ENDBRANCH  18  20
ENDBRANCH   8  18
ENDBRANCH  14  16
ENDBRANCH  12  14
BRANCH  13  15
ATOM     15  C   UNL     1     -15.572   4.620  24.105  0.00  0.00    +0.138 C 
BRANCH  15   7
ATOM      5  O   UNL     1     -12.887   4.605  23.089  0.00  0.00    -0.270 OA
ATOM      7  N   UNL     1     -15.065   5.398  23.013  0.00  0.00    -0.309 N 
ATOM     17  C   UNL     1     -13.742   5.328  22.586  0.00  0.00    +0.244 C 
ATOM     36  H   UNL     1     -15.733   5.978  22.516  0.00  0.00    +0.149 HD
BRANCH  17  19
ATOM     19  C   UNL     1     -13.367   6.219  21.457  0.00  0.00    +0.037 A 
ATOM     21  C   UNL     1     -12.026   6.376  21.109  0.00  0.00    +0.015 A 
ATOM     22  C   UNL     1     -14.357   6.899  20.748  0.00  0.00    +0.015 A 
ATOM     25  C   UNL     1     -11.674   7.213  20.051  0.00  0.00    +0.024 A 
ATOM     26  C   UNL     1     -14.004   7.737  19.690  0.00  0.00    +0.024 A 
ATOM     27  C   UNL     1     -12.664   7.895  19.341  0.00  0.00    +0.029 A 
BRANCH  27   9
ATOM      9  N   UNL     1     -12.308   8.741  18.271  0.00  0.00    -0.336 N 
ATOM     31  C   UNL     1     -11.102   8.492  17.508  0.00  0.00    +0.129 C 
ATOM     32  C   UNL     1     -13.148   9.867  17.916  0.00  0.00    +0.129 C 
ENDBRANCH  27   9
ENDBRANCH  17  19
ENDBRANCH  15   7
ENDBRANCH  13  15
TORSDOF 11
ENDMDL
MODEL 5
REMARK VINA RESULT:      -6.0     26.592     29.607
REMARK  Name = 40780656
REMARK  14 active torsions:
REMARK  status: ('A' for Active; 'I' for Inactive)
REMARK    1  A    between atoms: O_2  and  C_10
REMARK    2  A    between atoms: O_3  and  C_11
REMARK    3  A    between atoms: O_6  and  C_30
REMARK    4  A    between atoms: O_6  and  C_33
REMARK    5  A    between atoms: N_7  and  C_15
REMARK    6  A    between atoms: N_8  and  C_18
REMARK    7  A    between atoms: N_9  and  C_27
REMARK    8  A    between atoms: N_9  and  C_31
REMARK    9  A    between atoms: N_9  and  C_32
REMARK   10  A    between atoms: C_12  and  C_14
REMARK   11  A    between atoms: C_13  and  C_15
REMARK   12  A    between atoms: C_14  and  C_16
REMARK   13  A    between atoms: C_17  and  C_19
REMARK   14  A    between atoms: C_18  and  C_20
REMARK                            x       y       z     vdW  Elec       q    Type
REMARK                         _______ _______ _______ _____ _____    ______ ____
ROOT
ATOM      1  O   UNL     1      -5.234 -11.157  16.458  0.00  0.00    -0.366 OA
ATOM     10  C   UNL     1      -4.534 -11.866  18.618  0.00  0.00    +0.175 C 
ATOM     11  C   UNL     1      -5.614 -10.813  18.760  0.00  0.00    +0.176 C 
ATOM     12  C   UNL     1      -4.087 -11.669  17.174  0.00  0.00    +0.158 C 
ATOM     13  C   UNL     1      -6.287 -10.883  17.399  0.00  0.00    +0.167 C 
ENDROOT
BRANCH  10   2
ATOM      2  O   UNL     1      -5.098 -13.171  18.733  0.00  0.00    -0.387 OA
ATOM     34  H   UNL     1      -5.110 -13.562  17.842  0.00  0.00    +0.210 HD
ENDBRANCH  10   2
BRANCH  11   3
ATOM      3  O   UNL     1      -6.518 -11.076  19.812  0.00  0.00    -0.387 OA
ATOM     35  H   UNL     1      -6.030 -11.558  20.501  0.00  0.00    +0.210 HD
ENDBRANCH  11   3
BRANCH  12  14
ATOM     14  C   UNL     1      -2.959 -10.657  17.031  0.00  0.00    +0.130 C 
BRANCH  14  16
ATOM      4  O   UNL     1      -0.946 -10.424  15.710  0.00  0.00    -0.276 OA
ATOM      8  N   UNL     1      -2.551 -11.976  15.064  0.00  0.00    -0.311 N 
ATOM     16  C   UNL     1      -2.026 -10.984  15.880  0.00  0.00    +0.216 C 
ATOM     37  H   UNL     1      -3.446 -12.391  15.304  0.00  0.00    +0.149 HD
BRANCH   8  18
ATOM     18  C   UNL     1      -1.870 -12.477  13.893  0.00  0.00    +0.139 C 
BRANCH  18  20
ATOM     20  C   UNL     1      -2.439 -11.907  12.625  0.00  0.00    -0.030 A 
ATOM     23  C   UNL     1      -3.200 -12.712  11.777  0.00  0.00    +0.009 A 
ATOM     24  C   UNL     1      -2.206 -10.572  12.296  0.00  0.00    +0.009 A 
ATOM     28  C   UNL     1      -3.728 -12.182  10.601  0.00  0.00    +0.046 A 
ATOM     29  C   UNL     1      -2.733 -10.041  11.119  0.00  0.00    +0.046 A 
ATOM     30  C   UNL     1      -3.495 -10.846  10.271  0.00  0.00    +0.120 A 
BRANCH  30   6
ATOM      6  O   UNL     1      -4.011 -10.329   9.123  0.00  0.00    -0.495 OA
ATOM     33  C   UNL     1      -4.049  -8.906   9.013  0.00  0.00    +0.277 C 
ENDBRANCH  30   6
ENDBRANCH  18  20
ENDBRANCH   8  18
ENDBRANCH  14  16
ENDBRANCH  12  14
BRANCH  13  15
ATOM     15  C   UNL     1      -6.996  -9.597  17.012  0.00  0.00    +0.138 C 
BRANCH  15   7
ATOM      5  O   UNL     1      -8.987 -10.675  15.247  0.00  0.00    -0.270 OA
ATOM      7  N   UNL     1      -7.051  -9.443  15.588  0.00  0.00    -0.309 N 
ATOM     17  C   UNL     1      -8.058 -10.004  14.807  0.00  0.00    +0.244 C 
ATOM     36  H   UNL     1      -6.343  -8.853  15.164  0.00  0.00    +0.149 HD
BRANCH  17  19
ATOM     19  C   UNL     1      -7.957  -9.775  13.342  0.00  0.00    +0.037 A 
ATOM     21  C   UNL     1      -6.724  -9.470  12.768  0.00  0.00    +0.015 A 
ATOM     22  C   UNL     1      -9.097  -9.865  12.542  0.00  0.00    +0.015 A 
ATOM     25  C   UNL     1      -6.629  -9.253  11.393  0.00  0.00    +0.024 A 
ATOM     26  C   UNL     1      -9.002  -9.648  11.168  0.00  0.00    +0.024 A 
ATOM     27  C   UNL     1      -7.769  -9.342  10.593  0.00  0.00    +0.029 A 
BRANCH  27   9
ATOM      9  N   UNL     1      -7.674  -9.124   9.203  0.00  0.00    -0.336 N 
ATOM     31  C   UNL     1      -7.527 -10.242   8.293  0.00  0.00    +0.129 C 
ATOM     32  C   UNL     1      -7.727  -7.779   8.666  0.00  0.00    +0.129 C 
ENDBRANCH  27   9
ENDBRANCH  17  19
ENDBRANCH  15   7
ENDBRANCH  13  15
TORSDOF 11
ENDMDL
MODEL 6
REMARK VINA RESULT:      -6.0      2.820      4.814
REMARK  Name = 40780656
REMARK  14 active torsions:
REMARK  status: ('A' for Active; 'I' for Inactive)
REMARK    1  A    between atoms: O_2  and  C_10
REMARK    2  A    between atoms: O_3  and  C_11
REMARK    3  A    between atoms: O_6  and  C_30
REMARK    4  A    between atoms: O_6  and  C_33
REMARK    5  A    between atoms: N_7  and  C_15
REMARK    6  A    between atoms: N_8  and  C_18
REMARK    7  A    between atoms: N_9  and  C_27
REMARK    8  A    between atoms: N_9  and  C_31
REMARK    9  A    between atoms: N_9  and  C_32
REMARK   10  A    between atoms: C_12  and  C_14
REMARK   11  A    between atoms: C_13  and  C_15
REMARK   12  A    between atoms: C_14  and  C_16
REMARK   13  A    between atoms: C_17  and  C_19
REMARK   14  A    between atoms: C_18  and  C_20
REMARK                            x       y       z     vdW  Elec       q    Type
REMARK                         _______ _______ _______ _____ _____    ______ ____
ROOT
ATOM      1  O   UNL     1      14.279  12.178  22.222  0.00  0.00    -0.366 OA
ATOM     10  C   UNL     1      15.840  13.300  23.624  0.00  0.00    +0.175 C 
ATOM     11  C   UNL     1      16.202  11.831  23.543  0.00  0.00    +0.176 C 
ATOM     12  C   UNL     1      14.398  13.299  23.127  0.00  0.00    +0.158 C 
ATOM     13  C   UNL     1      15.498  11.414  22.263  0.00  0.00    +0.167 C 
ENDROOT
BRANCH  10   2
ATOM      2  O   UNL     1      16.625  14.054  22.702  0.00  0.00    -0.387 OA
ATOM     34  H   UNL     1      16.407  13.738  21.808  0.00  0.00    +0.210 HD
ENDBRANCH  10   2
BRANCH  11   3
ATOM      3  O   UNL     1      17.593  11.599  23.483  0.00  0.00    -0.387 OA
ATOM     35  H   UNL     1      17.962  12.213  22.826  0.00  0.00    +0.210 HD
ENDBRANCH  11   3
BRANCH  12  14
ATOM     14  C   UNL     1      13.383  13.105  24.245  0.00  0.00    +0.130 C 
BRANCH  14  16
ATOM      4  O   UNL     1      11.157  13.320  23.322  0.00  0.00    -0.276 OA
ATOM      8  N   UNL     1      11.981  11.203  23.811  0.00  0.00    -0.311 N 
ATOM     16  C   UNL     1      12.050  12.587  23.738  0.00  0.00    +0.216 C 
ATOM     37  H   UNL     1      12.785  10.684  24.152  0.00  0.00    +0.149 HD
BRANCH   8  18
ATOM     18  C   UNL     1      10.822  10.447  23.395  0.00  0.00    +0.139 C 
BRANCH  18  20
ATOM     20  C   UNL     1      11.140   9.503  22.272  0.00  0.00    -0.030 A 
ATOM     23  C   UNL     1      11.722   9.985  21.098  0.00  0.00    +0.009 A 
ATOM     24  C   UNL     1      10.855   8.145  22.401  0.00  0.00    +0.009 A 
ATOM     28  C   UNL     1      12.017   9.108  20.056  0.00  0.00    +0.046 A 
ATOM     29  C   UNL     1      11.150   7.267  21.358  0.00  0.00    +0.046 A 
ATOM     30  C   UNL     1      11.731   7.749  20.184  0.00  0.00    +0.120 A 
BRANCH  30   6
ATOM      6  O   UNL     1      12.020   6.893  19.167  0.00  0.00    -0.495 OA
ATOM     33  C   UNL     1      12.653   7.447  18.014  0.00  0.00    +0.277 C 
ENDBRANCH  30   6
ENDBRANCH  18  20
ENDBRANCH   8  18
ENDBRANCH  14  16
ENDBRANCH  12  14
BRANCH  13  15
ATOM     15  C   UNL     1      15.173   9.932  22.210  0.00  0.00    +0.138 C 
BRANCH  15   7
ATOM      5  O   UNL     1      15.564   7.892  20.227  0.00  0.00    -0.270 OA
ATOM      7  N   UNL     1      16.356   9.148  22.009  0.00  0.00    -0.309 N 
ATOM     17  C   UNL     1      16.459   8.175  21.018  0.00  0.00    +0.244 C 
ATOM     36  H   UNL     1      17.155   9.369  22.594  0.00  0.00    +0.149 HD
BRANCH  17  19
ATOM     19  C   UNL     1      17.744   7.432  20.958  0.00  0.00    +0.037 A 
ATOM     21  C   UNL     1      17.847   6.282  20.177  0.00  0.00    +0.015 A 
ATOM     22  C   UNL     1      18.846   7.884  21.683  0.00  0.00    +0.015 A 
ATOM     25  C   UNL     1      19.053   5.582  20.121  0.00  0.00    +0.024 A 
ATOM     26  C   UNL     1      20.052   7.185  21.628  0.00  0.00    +0.024 A 
ATOM     27  C   UNL     1      20.155   6.034  20.847  0.00  0.00    +0.029 A 
BRANCH  27   9
ATOM      9  N   UNL     1      21.375   5.328  20.790  0.00  0.00    -0.336 N 
ATOM     31  C   UNL     1      22.620   6.031  20.559  0.00  0.00    +0.129 C 
ATOM     32  C   UNL     1      21.399   3.890  20.968  0.00  0.00    +0.129 C 
ENDBRANCH  27   9
ENDBRANCH  17  19
ENDBRANCH  15   7
ENDBRANCH  13  15
TORSDOF 11
ENDMDL
MODEL 7
REMARK VINA RESULT:      -6.0     26.727     29.662
REMARK  Name = 40780656
REMARK  14 active torsions:
REMARK  status: ('A' for Active; 'I' for Inactive)
REMARK    1  A    between atoms: O_2  and  C_10
REMARK    2  A    between atoms: O_3  and  C_11
REMARK    3  A    between atoms: O_6  and  C_30
REMARK    4  A    between atoms: O_6  and  C_33
REMARK    5  A    between atoms: N_7  and  C_15
REMARK    6  A    between atoms: N_8  and  C_18
REMARK    7  A    between atoms: N_9  and  C_27
REMARK    8  A    between atoms: N_9  and  C_31
REMARK    9  A    between atoms: N_9  and  C_32
REMARK   10  A    between atoms: C_12  and  C_14
REMARK   11  A    between atoms: C_13  and  C_15
REMARK   12  A    between atoms: C_14  and  C_16
REMARK   13  A    between atoms: C_17  and  C_19
REMARK   14  A    between atoms: C_18  and  C_20
REMARK                            x       y       z     vdW  Elec       q    Type
REMARK                         _______ _______ _______ _____ _____    ______ ____
ROOT
ATOM      1  O   UNL     1      -5.684 -10.587  19.125  0.00  0.00    -0.366 OA
ATOM     10  C   UNL     1      -7.227 -12.248  18.406  0.00  0.00    +0.175 C 
ATOM     11  C   UNL     1      -5.861 -12.546  17.824  0.00  0.00    +0.176 C 
ATOM     12  C   UNL     1      -7.083 -10.788  18.822  0.00  0.00    +0.158 C 
ATOM     13  C   UNL     1      -4.953 -11.774  18.767  0.00  0.00    +0.167 C 
ENDROOT
BRANCH  10   2
ATOM      2  O   UNL     1      -7.444 -13.025  19.583  0.00  0.00    -0.387 OA
ATOM     34  H   UNL     1      -8.190 -12.625  20.062  0.00  0.00    +0.210 HD
ENDBRANCH  10   2
BRANCH  11   3
ATOM      3  O   UNL     1      -5.551 -13.923  17.800  0.00  0.00    -0.387 OA
ATOM     35  H   UNL     1      -6.225 -14.383  18.328  0.00  0.00    +0.210 HD
ENDBRANCH  11   3
BRANCH  12  14
ATOM     14  C   UNL     1      -7.467  -9.813  17.719  0.00  0.00    +0.130 C 
BRANCH  14  16
ATOM      4  O   UNL     1      -9.293 -10.579  16.330  0.00  0.00    -0.276 OA
ATOM      8  N   UNL     1      -9.756  -9.243  18.174  0.00  0.00    -0.311 N 
ATOM     16  C   UNL     1      -8.922  -9.939  17.310  0.00  0.00    +0.216 C 
ATOM     37  H   UNL     1      -9.351  -8.761  18.971  0.00  0.00    +0.149 HD
BRANCH   8  18
ATOM     18  C   UNL     1     -11.192  -9.193  18.017  0.00  0.00    +0.139 C 
BRANCH  18  20
ATOM     20  C   UNL     1     -11.613  -8.126  17.049  0.00  0.00    -0.030 A 
ATOM     23  C   UNL     1     -12.811  -8.255  16.344  0.00  0.00    +0.009 A 
ATOM     24  C   UNL     1     -10.808  -7.004  16.853  0.00  0.00    +0.009 A 
ATOM     28  C   UNL     1     -13.202  -7.264  15.446  0.00  0.00    +0.046 A 
ATOM     29  C   UNL     1     -11.198  -6.012  15.955  0.00  0.00    +0.046 A 
ATOM     30  C   UNL     1     -12.396  -6.142  15.250  0.00  0.00    +0.120 A 
BRANCH  30   6
ATOM      6  O   UNL     1     -12.778  -5.174  14.373  0.00  0.00    -0.495 OA
ATOM     33  C   UNL     1     -13.259  -5.604  13.101  0.00  0.00    +0.277 C 
ENDBRANCH  30   6
ENDBRANCH  18  20
ENDBRANCH   8  18
ENDBRANCH  14  16
ENDBRANCH  12  14
BRANCH  13  15
ATOM     15  C   UNL     1      -3.625 -11.388  18.142  0.00  0.00    +0.138 C 
BRANCH  15   7
ATOM      5  O   UNL     1      -1.563 -10.556  16.326  0.00  0.00    -0.270 OA
ATOM      7  N   UNL     1      -3.743 -11.244  16.721  0.00  0.00    -0.309 N 
ATOM     17  C   UNL     1      -2.686 -10.833  15.913  0.00  0.00    +0.244 C 
ATOM     36  H   UNL     1      -4.630 -11.509  16.307  0.00  0.00    +0.149 HD
BRANCH  17  19
ATOM     19  C   UNL     1      -2.978 -10.707  14.462  0.00  0.00    +0.037 A 
ATOM     21  C   UNL     1      -1.932 -10.575  13.549  0.00  0.00    +0.015 A 
ATOM     22  C   UNL     1      -4.299 -10.722  14.013  0.00  0.00    +0.015 A 
ATOM     25  C   UNL     1      -2.206 -10.455  12.187  0.00  0.00    +0.024 A 
ATOM     26  C   UNL     1      -4.572 -10.602  12.650  0.00  0.00    +0.024 A 
ATOM     27  C   UNL     1      -3.527 -10.469  11.738  0.00  0.00    +0.029 A 
BRANCH  27   9
ATOM      9  N   UNL     1      -3.804 -10.350  10.360  0.00  0.00    -0.336 N 
ATOM     31  C   UNL     1      -4.174 -11.514   9.582  0.00  0.00    +0.129 C 
ATOM     32  C   UNL     1      -3.729  -9.059   9.706  0.00  0.00    +0.129 C 
ENDBRANCH  27   9
ENDBRANCH  17  19
ENDBRANCH  15   7
ENDBRANCH  13  15
TORSDOF 11
ENDMDL
MODEL 8
REMARK VINA RESULT:      -6.0      2.765      6.363
REMARK  Name = 40780656
REMARK  14 active torsions:
REMARK  status: ('A' for Active; 'I' for Inactive)
REMARK    1  A    between atoms: O_2  and  C_10
REMARK    2  A    between atoms: O_3  and  C_11
REMARK    3  A    between atoms: O_6  and  C_30
REMARK    4  A    between atoms: O_6  and  C_33
REMARK    5  A    between atoms: N_7  and  C_15
REMARK    6  A    between atoms: N_8  and  C_18
REMARK    7  A    between atoms: N_9  and  C_27
REMARK    8  A    between atoms: N_9  and  C_31
REMARK    9  A    between atoms: N_9  and  C_32
REMARK   10  A    between atoms: C_12  and  C_14
REMARK   11  A    between atoms: C_13  and  C_15
REMARK   12  A    between atoms: C_14  and  C_16
REMARK   13  A    between atoms: C_17  and  C_19
REMARK   14  A    between atoms: C_18  and  C_20
REMARK                            x       y       z     vdW  Elec       q    Type
REMARK                         _______ _______ _______ _____ _____    ______ ____
ROOT
ATOM      1  O   UNL     1      11.491   9.259  20.250  0.00  0.00    -0.366 OA
ATOM     10  C   UNL     1      11.438   9.500  22.617  0.00  0.00    +0.175 C 
ATOM     11  C   UNL     1      12.625  10.259  22.060  0.00  0.00    +0.176 C 
ATOM     12  C   UNL     1      11.081   8.576  21.457  0.00  0.00    +0.158 C 
ATOM     13  C   UNL     1      12.211  10.451  20.611  0.00  0.00    +0.167 C 
ENDROOT
BRANCH  10   2
ATOM      2  O   UNL     1      10.340  10.385  22.831  0.00  0.00    -0.387 OA
ATOM     34  H   UNL     1      10.689  11.293  22.800  0.00  0.00    +0.210 HD
ENDBRANCH  10   2
BRANCH  11   3
ATOM      3  O   UNL     1      12.858  11.489  22.713  0.00  0.00    -0.387 OA
ATOM     35  H   UNL     1      12.496  12.192  22.147  0.00  0.00    +0.210 HD
ENDBRANCH  11   3
BRANCH  12  14
ATOM     14  C   UNL     1      11.814   7.242  21.510  0.00  0.00    +0.130 C 
BRANCH  14  16
ATOM      4  O   UNL     1      11.979   6.446  19.231  0.00  0.00    -0.276 OA
ATOM      8  N   UNL     1      13.888   7.236  20.296  0.00  0.00    -0.311 N 
ATOM     16  C   UNL     1      12.538   6.924  20.215  0.00  0.00    +0.216 C 
ATOM     37  H   UNL     1      14.250   7.649  21.151  0.00  0.00    +0.149 HD
BRANCH   8  18
ATOM     18  C   UNL     1      14.812   7.031  19.205  0.00  0.00    +0.139 C 
BRANCH  18  20
ATOM     20  C   UNL     1      16.212   6.794  19.693  0.00  0.00    -0.030 A 
ATOM     23  C   UNL     1      16.706   7.518  20.778  0.00  0.00    +0.009 A 
ATOM     24  C   UNL     1      17.020   5.850  19.060  0.00  0.00    +0.009 A 
ATOM     28  C   UNL     1      18.006   7.298  21.231  0.00  0.00    +0.046 A 
ATOM     29  C   UNL     1      18.321   5.629  19.512  0.00  0.00    +0.046 A 
ATOM     30  C   UNL     1      18.815   6.353  20.597  0.00  0.00    +0.120 A 
BRANCH  30   6
ATOM      6  O   UNL     1      20.084   6.137  21.040  0.00  0.00    -0.495 OA
ATOM     33  C   UNL     1      21.094   7.032  20.575  0.00  0.00    +0.277 C 
ENDBRANCH  30   6
ENDBRANCH  18  20
ENDBRANCH   8  18
ENDBRANCH  14  16
ENDBRANCH  12  14
BRANCH  13  15
ATOM     15  C   UNL     1      13.387  10.642  19.670  0.00  0.00    +0.138 C 
BRANCH  15   7
ATOM      5  O   UNL     1      15.357  12.731  19.675  0.00  0.00    -0.270 OA
ATOM      7  N   UNL     1      14.629  10.646  20.385  0.00  0.00    -0.309 N 
ATOM     17  C   UNL     1      15.529  11.706  20.330  0.00  0.00    +0.244 C 
ATOM     36  H   UNL     1      14.809   9.852  20.991  0.00  0.00    +0.149 HD
BRANCH  17  19
ATOM     19  C   UNL     1      16.784  11.544  21.108  0.00  0.00    +0.037 A 
ATOM     21  C   UNL     1      16.829  11.932  22.447  0.00  0.00    +0.015 A 
ATOM     22  C   UNL     1      17.918  11.004  20.500  0.00  0.00    +0.015 A 
ATOM     25  C   UNL     1      18.007  11.781  23.178  0.00  0.00    +0.024 A 
ATOM     26  C   UNL     1      19.096  10.854  21.231  0.00  0.00    +0.024 A 
ATOM     27  C   UNL     1      19.141  11.242  22.569  0.00  0.00    +0.029 A 
BRANCH  27   9
ATOM      9  N   UNL     1      20.333  11.088  23.308  0.00  0.00    -0.336 N 
ATOM     31  C   UNL     1      20.286  10.715  24.707  0.00  0.00    +0.129 C 
ATOM     32  C   UNL     1      21.620  11.295  22.675  0.00  0.00    +0.129 C 
ENDBRANCH  27   9
ENDBRANCH  17  19
ENDBRANCH  15   7
ENDBRANCH  13  15
TORSDOF 11
ENDMDL
MODEL 9
REMARK VINA RESULT:      -6.0      2.887      4.806
REMARK  Name = 40780656
REMARK  14 active torsions:
REMARK  status: ('A' for Active; 'I' for Inactive)
REMARK    1  A    between atoms: O_2  and  C_10
REMARK    2  A    between atoms: O_3  and  C_11
REMARK    3  A    between atoms: O_6  and  C_30
REMARK    4  A    between atoms: O_6  and  C_33
REMARK    5  A    between atoms: N_7  and  C_15
REMARK    6  A    between atoms: N_8  and  C_18
REMARK    7  A    between atoms: N_9  and  C_27
REMARK    8  A    between atoms: N_9  and  C_31
REMARK    9  A    between atoms: N_9  and  C_32
REMARK   10  A    between atoms: C_12  and  C_14
REMARK   11  A    between atoms: C_13  and  C_15
REMARK   12  A    between atoms: C_14  and  C_16
REMARK   13  A    between atoms: C_17  and  C_19
REMARK   14  A    between atoms: C_18  and  C_20
REMARK                            x       y       z     vdW  Elec       q    Type
REMARK                         _______ _______ _______ _____ _____    ______ ____
ROOT
ATOM      1  O   UNL     1      12.773   8.532  22.030  0.00  0.00    -0.366 OA
ATOM     10  C   UNL     1      11.076   7.027  21.312  0.00  0.00    +0.175 C 
ATOM     11  C   UNL     1      12.054   7.260  20.178  0.00  0.00    +0.176 C 
ATOM     12  C   UNL     1      11.382   8.197  22.240  0.00  0.00    +0.158 C 
ATOM     13  C   UNL     1      13.279   7.755  20.930  0.00  0.00    +0.167 C 
ENDROOT
BRANCH  10   2
ATOM      2  O   UNL     1      11.397   5.820  22.001  0.00  0.00    -0.387 OA
ATOM     34  H   UNL     1      10.592   5.524  22.459  0.00  0.00    +0.210 HD
ENDBRANCH  10   2
BRANCH  11   3
ATOM      3  O   UNL     1      12.328   6.097  19.427  0.00  0.00    -0.387 OA
ATOM     35  H   UNL     1      11.624   5.455  19.617  0.00  0.00    +0.210 HD
ENDBRANCH  11   3
BRANCH  12  14
ATOM     14  C   UNL     1      10.552   9.436  21.932  0.00  0.00    +0.130 C 
BRANCH  14  16
ATOM      4  O   UNL     1      11.071  11.796  22.024  0.00  0.00    -0.276 OA
ATOM      8  N   UNL     1      11.710  10.426  23.789  0.00  0.00    -0.311 N 
ATOM     16  C   UNL     1      11.126  10.692  22.559  0.00  0.00    +0.216 C 
ATOM     37  H   UNL     1      11.684   9.479  24.155  0.00  0.00    +0.149 HD
BRANCH   8  18
ATOM     18  C   UNL     1      12.336  11.443  24.603  0.00  0.00    +0.139 C 
BRANCH  18  20
ATOM     20  C   UNL     1      13.762  11.684  24.202  0.00  0.00    -0.030 A 
ATOM     23  C   UNL     1      14.532  12.625  24.889  0.00  0.00    +0.009 A 
ATOM     24  C   UNL     1      14.319  10.968  23.144  0.00  0.00    +0.009 A 
ATOM     28  C   UNL     1      15.856  12.847  24.516  0.00  0.00    +0.046 A 
ATOM     29  C   UNL     1      15.644  11.191  22.770  0.00  0.00    +0.046 A 
ATOM     30  C   UNL     1      16.414  12.131  23.457  0.00  0.00    +0.120 A 
BRANCH  30   6
ATOM      6  O   UNL     1      17.707  12.348  23.094  0.00  0.00    -0.495 OA
ATOM     33  C   UNL     1      18.447  11.221  22.626  0.00  0.00    +0.277 C 
ENDBRANCH  30   6
ENDBRANCH  18  20
ENDBRANCH   8  18
ENDBRANCH  14  16
ENDBRANCH  12  14
BRANCH  13  15
ATOM     15  C   UNL     1      14.201   8.611  20.081  0.00  0.00    +0.138 C 
BRANCH  15   7
ATOM      5  O   UNL     1      15.534   6.161  19.400  0.00  0.00    -0.270 OA
ATOM      7  N   UNL     1      15.577   8.289  20.322  0.00  0.00    -0.309 N 
ATOM     17  C   UNL     1      16.143   7.071  19.957  0.00  0.00    +0.244 C 
ATOM     36  H   UNL     1      16.151   9.019  20.730  0.00  0.00    +0.149 HD
BRANCH  17  19
ATOM     19  C   UNL     1      17.576   6.882  20.302  0.00  0.00    +0.037 A 
ATOM     21  C   UNL     1      18.231   7.822  21.096  0.00  0.00    +0.015 A 
ATOM     22  C   UNL     1      18.265   5.765  19.830  0.00  0.00    +0.015 A 
ATOM     25  C   UNL     1      19.576   7.647  21.418  0.00  0.00    +0.024 A 
ATOM     26  C   UNL     1      19.611   5.589  20.153  0.00  0.00    +0.024 A 
ATOM     27  C   UNL     1      20.266   6.530  20.946  0.00  0.00    +0.029 A 
BRANCH  27   9
ATOM      9  N   UNL     1      21.627   6.351  21.273  0.00  0.00    -0.336 N 
ATOM     31  C   UNL     1      22.242   7.147  22.316  0.00  0.00    +0.129 C 
ATOM     32  C   UNL     1      22.425   5.364  20.574  0.00  0.00    +0.129 C 
ENDBRANCH  27   9
ENDBRANCH  17  19
ENDBRANCH  15   7
ENDBRANCH  13  15
TORSDOF 11
ENDMDL
MODEL 10
REMARK VINA RESULT:      -6.0      2.931      6.183
REMARK  Name = 40780656
REMARK  14 active torsions:
REMARK  status: ('A' for Active; 'I' for Inactive)
REMARK    1  A    between atoms: O_2  and  C_10
REMARK    2  A    between atoms: O_3  and  C_11
REMARK    3  A    between atoms: O_6  and  C_30
REMARK    4  A    between atoms: O_6  and  C_33
REMARK    5  A    between atoms: N_7  and  C_15
REMARK    6  A    between atoms: N_8  and  C_18
REMARK    7  A    between atoms: N_9  and  C_27
REMARK    8  A    between atoms: N_9  and  C_31
REMARK    9  A    between atoms: N_9  and  C_32
REMARK   10  A    between atoms: C_12  and  C_14
REMARK   11  A    between atoms: C_13  and  C_15
REMARK   12  A    between atoms: C_14  and  C_16
REMARK   13  A    between atoms: C_17  and  C_19
REMARK   14  A    between atoms: C_18  and  C_20
REMARK                            x       y       z     vdW  Elec       q    Type
REMARK                         _______ _______ _______ _____ _____    ______ ____
ROOT
ATOM      1  O   UNL     1      12.732   9.592  19.139  0.00  0.00    -0.366 OA
ATOM     10  C   UNL     1      12.531   7.767  17.626  0.00  0.00    +0.175 C 
ATOM     11  C   UNL     1      12.845   7.240  19.011  0.00  0.00    +0.176 C 
ATOM     12  C   UNL     1      12.921   9.236  17.750  0.00  0.00    +0.158 C 
ATOM     13  C   UNL     1      12.411   8.405  19.886  0.00  0.00    +0.167 C 
ENDROOT
BRANCH  10   2
ATOM      2  O   UNL     1      11.129   7.700  17.377  0.00  0.00    -0.387 OA
ATOM     34  H   UNL     1      10.960   8.161  16.537  0.00  0.00    +0.210 HD
ENDBRANCH  10   2
BRANCH  11   3
ATOM      3  O   UNL     1      12.152   6.052  19.329  0.00  0.00    -0.387 OA
ATOM     35  H   UNL     1      12.440   5.774  20.214  0.00  0.00    +0.210 HD
ENDBRANCH  11   3
BRANCH  12  14
ATOM     14  C   UNL     1      14.378   9.499  17.396  0.00  0.00    +0.130 C 
BRANCH  14  16
ATOM      4  O   UNL     1      14.342   9.829  15.000  0.00  0.00    -0.276 OA
ATOM      8  N   UNL     1      14.908  11.611  16.380  0.00  0.00    -0.311 N 
ATOM     16  C   UNL     1      14.531  10.301  16.117  0.00  0.00    +0.216 C 
ATOM     37  H   UNL     1      15.018  11.910  17.344  0.00  0.00    +0.149 HD
BRANCH   8  18
ATOM     18  C   UNL     1      15.126  12.593  15.343  0.00  0.00    +0.139 C 
BRANCH  18  20
ATOM     20  C   UNL     1      16.491  12.469  14.731  0.00  0.00    -0.030 A 
ATOM     23  C   UNL     1      16.638  12.471  13.343  0.00  0.00    +0.009 A 
ATOM     24  C   UNL     1      17.614  12.353  15.550  0.00  0.00    +0.009 A 
ATOM     28  C   UNL     1      17.906  12.356  12.776  0.00  0.00    +0.046 A 
ATOM     29  C   UNL     1      18.883  12.238  14.983  0.00  0.00    +0.046 A 
ATOM     30  C   UNL     1      19.029  12.240  13.595  0.00  0.00    +0.120 A 
BRANCH  30   6
ATOM      6  O   UNL     1      20.267  12.129  13.041  0.00  0.00    -0.495 OA
ATOM     33  C   UNL     1      20.330  11.925  11.629  0.00  0.00    +0.277 C 
ENDBRANCH  30   6
ENDBRANCH  18  20
ENDBRANCH   8  18
ENDBRANCH  14  16
ENDBRANCH  12  14
BRANCH  13  15
ATOM     15  C   UNL     1      13.114   8.442  21.231  0.00  0.00    +0.138 C 
BRANCH  15   7
ATOM      5  O   UNL     1      15.538   9.948  20.916  0.00  0.00    -0.270 OA
ATOM      7  N   UNL     1      14.444   7.915  21.136  0.00  0.00    -0.309 N 
ATOM     17  C   UNL     1      15.567   8.722  20.983  0.00  0.00    +0.244 C 
ATOM     36  H   UNL     1      14.545   6.911  21.241  0.00  0.00    +0.149 HD
BRANCH  17  19
ATOM     19  C   UNL     1      16.872   8.019  20.874  0.00  0.00    +0.037 A 
ATOM     21  C   UNL     1      17.991   8.521  21.537  0.00  0.00    +0.015 A 
ATOM     22  C   UNL     1      16.976   6.858  20.108  0.00  0.00    +0.015 A 
ATOM     25  C   UNL     1      19.216   7.863  21.434  0.00  0.00    +0.024 A 
ATOM     26  C   UNL     1      18.201   6.200  20.005  0.00  0.00    +0.024 A 
ATOM     27  C   UNL     1      19.321   6.701  20.667  0.00  0.00    +0.029 A 
BRANCH  27   9
ATOM      9  N   UNL     1      20.560   6.034  20.563  0.00  0.00    -0.336 N 
ATOM     31  C   UNL     1      20.611   4.589  20.487  0.00  0.00    +0.129 C 
ATOM     32  C   UNL     1      21.797   6.788  20.525  0.00  0.00    +0.129 C 
ENDBRANCH  27   9
ENDBRANCH  17  19
ENDBRANCH  15   7
ENDBRANCH  13  15
TORSDOF 11
ENDMDL
