MODEL 1
REMARK VINA RESULT:      -7.5      0.000      0.000
REMARK  Name = 11911723
REMARK  8 active torsions:
REMARK  status: ('A' for Active; 'I' for Inactive)
REMARK    1  A    between atoms: N_4  and  C_11
REMARK    2  A    between atoms: N_5  and  C_12
REMARK    3  A    between atoms: N_8  and  C_32
REMARK    4  A    between atoms: N_8  and  C_33
REMARK    5  A    between atoms: N_8  and  C_34
REMARK    6  A    between atoms: C_15  and  C_17
REMARK    7  A    between atoms: C_18  and  C_23
REMARK    8  A    between atoms: C_26  and  C_29
REMARK                            x       y       z     vdW  Elec       q    Type
REMARK                         _______ _______ _______ _____ _____    ______ ____
ROOT
ATOM      1  O   UNL     1      -4.932  -8.687  10.137  0.00  0.00    -0.370 OA
ATOM      2  O   UNL     1      -6.016 -11.613  10.079  0.00  0.00    -0.370 OA
ATOM      9  C   UNL     1      -4.734 -11.045  10.393  0.00  0.00    +0.171 C 
ATOM     10  C   UNL     1      -4.515  -9.878   9.449  0.00  0.00    +0.171 C 
ATOM     11  C   UNL     1      -5.439 -10.166   8.288  0.00  0.00    +0.130 C 
ATOM     12  C   UNL     1      -4.764 -10.410  11.763  0.00  0.00    +0.130 C 
ATOM     13  C   UNL     1      -5.316  -9.026  11.477  0.00  0.00    +0.185 C 
ATOM     14  C   UNL     1      -6.578 -10.914   8.957  0.00  0.00    +0.185 C 
ENDROOT
BRANCH  12   5
ATOM      5  N   UNL     1      -3.422 -10.313  12.294  0.00  0.00    -0.306 N 
ATOM      6  N   UNL     1      -4.147 -10.668  14.496  0.00  0.00    -0.214 NA
ATOM      7  N   UNL     1      -1.813 -10.331  14.002  0.00  0.00    -0.223 NA
ATOM     16  C   UNL     1      -3.118 -10.442  13.638  0.00  0.00    +0.216 A 
ATOM     18  C   UNL     1      -3.816 -10.788  15.799  0.00  0.00    +0.076 A 
ATOM     21  C   UNL     1      -1.553 -10.461  15.320  0.00  0.00    +0.116 A 
ATOM     22  C   UNL     1      -2.523 -10.693  16.273  0.00  0.00    +0.048 A 
ATOM     36  H   UNL     1      -2.641 -10.197  11.656  0.00  0.00    +0.149 HD
BRANCH  18  23
ATOM     23  C   UNL     1      -4.923 -11.029  16.693  0.00  0.00    +0.001 A 
ATOM     27  C   UNL     1      -4.828 -10.670  18.039  0.00  0.00    +0.012 A 
ATOM     28  C   UNL     1      -6.095 -11.620  16.215  0.00  0.00    +0.012 A 
ATOM     30  C   UNL     1      -5.898 -10.900  18.903  0.00  0.00    +0.024 A 
ATOM     31  C   UNL     1      -7.165 -11.851  17.079  0.00  0.00    +0.024 A 
ATOM     32  C   UNL     1      -7.067 -11.491  18.423  0.00  0.00    +0.029 A 
BRANCH  32   8
ATOM      8  N   UNL     1      -8.149 -11.724  19.296  0.00  0.00    -0.336 N 
ATOM     33  C   UNL     1      -9.214 -10.749  19.422  0.00  0.00    +0.129 C 
ATOM     34  C   UNL     1      -8.204 -12.935  20.091  0.00  0.00    +0.129 C 
ENDBRANCH  32   8
ENDBRANCH  18  23
ENDBRANCH  12   5
BRANCH  11   4
ATOM      3  O   UNL     1      -6.161 -10.398   5.519  0.00  0.00    -0.270 OA
ATOM      4  N   UNL     1      -4.789 -10.985   7.293  0.00  0.00    -0.304 N 
ATOM     15  C   UNL     1      -5.212 -11.031   5.972  0.00  0.00    +0.244 C 
ATOM     35  H   UNL     1      -4.070 -11.621   7.622  0.00  0.00    +0.149 HD
BRANCH  15  17
ATOM     17  C   UNL     1      -4.452 -11.942   5.078  0.00  0.00    +0.037 A 
ATOM     19  C   UNL     1      -3.300 -12.532   5.554  0.00  0.00    +0.013 A 
ATOM     20  C   UNL     1      -4.924 -12.170   3.802  0.00  0.00    +0.013 A 
ATOM     24  C   UNL     1      -2.587 -13.390   4.715  0.00  0.00    +0.004 A 
ATOM     25  C   UNL     1      -4.211 -13.027   2.964  0.00  0.00    +0.004 A 
ATOM     26  C   UNL     1      -3.043 -13.637   3.420  0.00  0.00    -0.050 A 
ATOM     29  C   UNL     1      -2.279 -14.553   2.524  0.00  0.00    +0.044 C 
ENDBRANCH  15  17
ENDBRANCH  11   4
TORSDOF 5
ENDMDL
MODEL 2
REMARK VINA RESULT:      -7.4     22.281     25.251
REMARK  Name = 11911723
REMARK  8 active torsions:
REMARK  status: ('A' for Active; 'I' for Inactive)
REMARK    1  A    between atoms: N_4  and  C_11
REMARK    2  A    between atoms: N_5  and  C_12
REMARK    3  A    between atoms: N_8  and  C_32
REMARK    4  A    between atoms: N_8  and  C_33
REMARK    5  A    between atoms: N_8  and  C_34
REMARK    6  A    between atoms: C_15  and  C_17
REMARK    7  A    between atoms: C_18  and  C_23
REMARK    8  A    between atoms: C_26  and  C_29
REMARK                            x       y       z     vdW  Elec       q    Type
REMARK                         _______ _______ _______ _____ _____    ______ ____
ROOT
ATOM      1  O   UNL     1       7.974   6.679  -6.014  0.00  0.00    -0.370 OA
ATOM      2  O   UNL     1       6.773   6.344  -3.153  0.00  0.00    -0.370 OA
ATOM      9  C   UNL     1       7.590   5.501  -3.983  0.00  0.00    +0.171 C 
ATOM     10  C   UNL     1       7.123   5.689  -5.413  0.00  0.00    +0.171 C 
ATOM     11  C   UNL     1       5.714   6.219  -5.274  0.00  0.00    +0.130 C 
ATOM     12  C   UNL     1       9.016   5.998  -3.992  0.00  0.00    +0.130 C 
ATOM     13  C   UNL     1       8.993   7.057  -5.077  0.00  0.00    +0.185 C 
ATOM     14  C   UNL     1       5.787   6.993  -3.969  0.00  0.00    +0.185 C 
ENDROOT
BRANCH  12   5
ATOM      5  N   UNL     1       9.913   4.924  -4.360  0.00  0.00    -0.306 N 
ATOM      6  N   UNL     1      10.582   4.572  -2.139  0.00  0.00    -0.214 NA
ATOM      7  N   UNL     1      11.482   3.233  -3.928  0.00  0.00    -0.223 NA
ATOM     16  C   UNL     1      10.682   4.221  -3.448  0.00  0.00    +0.216 A 
ATOM     18  C   UNL     1      11.346   3.868  -1.277  0.00  0.00    +0.076 A 
ATOM     21  C   UNL     1      12.218   2.570  -3.012  0.00  0.00    +0.116 A 
ATOM     22  C   UNL     1      12.190   2.846  -1.661  0.00  0.00    +0.048 A 
ATOM     36  H   UNL     1       9.955   4.620  -5.326  0.00  0.00    +0.149 HD
BRANCH  18  23
ATOM     23  C   UNL     1      11.224   4.256   0.107  0.00  0.00    +0.001 A 
ATOM     27  C   UNL     1      12.049   3.676   1.073  0.00  0.00    +0.012 A 
ATOM     28  C   UNL     1      10.282   5.215   0.487  0.00  0.00    +0.012 A 
ATOM     30  C   UNL     1      11.934   4.052   2.411  0.00  0.00    +0.024 A 
ATOM     31  C   UNL     1      10.166   5.591   1.825  0.00  0.00    +0.024 A 
ATOM     32  C   UNL     1      10.993   5.009   2.787  0.00  0.00    +0.029 A 
BRANCH  32   8
ATOM      8  N   UNL     1      10.875   5.390   4.140  0.00  0.00    -0.336 N 
ATOM     33  C   UNL     1      11.629   6.516   4.653  0.00  0.00    +0.129 C 
ATOM     34  C   UNL     1      10.011   4.651   5.039  0.00  0.00    +0.129 C 
ENDBRANCH  32   8
ENDBRANCH  18  23
ENDBRANCH  12   5
BRANCH  11   4
ATOM      3  O   UNL     1       2.858   6.450  -5.445  0.00  0.00    -0.270 OA
ATOM      4  N   UNL     1       4.757   5.144  -5.191  0.00  0.00    -0.304 N 
ATOM     15  C   UNL     1       3.388   5.355  -5.286  0.00  0.00    +0.244 C 
ATOM     35  H   UNL     1       5.117   4.227  -4.945  0.00  0.00    +0.149 HD
BRANCH  15  17
ATOM     17  C   UNL     1       2.534   4.146  -5.156  0.00  0.00    +0.037 A 
ATOM     19  C   UNL     1       2.975   2.959  -5.702  0.00  0.00    +0.013 A 
ATOM     20  C   UNL     1       1.329   4.249  -4.493  0.00  0.00    +0.013 A 
ATOM     24  C   UNL     1       2.173   1.822  -5.578  0.00  0.00    +0.004 A 
ATOM     25  C   UNL     1       0.529   3.114  -4.369  0.00  0.00    +0.004 A 
ATOM     26  C   UNL     1       0.950   1.901  -4.912  0.00  0.00    -0.050 A 
ATOM     29  C   UNL     1       0.094   0.686  -4.782  0.00  0.00    +0.044 C 
ENDBRANCH  15  17
ENDBRANCH  11   4
TORSDOF 5
ENDMDL
MODEL 3
REMARK VINA RESULT:      -7.1      2.956     11.508
REMARK  Name = 11911723
REMARK  8 active torsions:
REMARK  status: ('A' for Active; 'I' for Inactive)
REMARK    1  A    between atoms: N_4  and  C_11
REMARK    2  A    between atoms: N_5  and  C_12
REMARK    3  A    between atoms: N_8  and  C_32
REMARK    4  A    between atoms: N_8  and  C_33
REMARK    5  A    between atoms: N_8  and  C_34
REMARK    6  A    between atoms: C_15  and  C_17
REMARK    7  A    between atoms: C_18  and  C_23
REMARK    8  A    between atoms: C_26  and  C_29
REMARK                            x       y       z     vdW  Elec       q    Type
REMARK                         _______ _______ _______ _____ _____    ______ ____
ROOT
ATOM      1  O   UNL     1      -3.512  -9.154  10.393  0.00  0.00    -0.370 OA
ATOM      2  O   UNL     1      -5.241 -11.703  10.892  0.00  0.00    -0.370 OA
ATOM      9  C   UNL     1      -5.545 -10.299  10.862  0.00  0.00    +0.171 C 
ATOM     10  C   UNL     1      -4.364  -9.569  11.473  0.00  0.00    +0.171 C 
ATOM     11  C   UNL     1      -3.675 -10.622  12.311  0.00  0.00    +0.130 C 
ATOM     12  C   UNL     1      -5.587  -9.802   9.436  0.00  0.00    +0.130 C 
ATOM     13  C   UNL     1      -4.128  -9.502   9.145  0.00  0.00    +0.185 C 
ATOM     14  C   UNL     1      -3.976 -11.897  11.543  0.00  0.00    +0.185 C 
ENDROOT
BRANCH  12   5
ATOM      5  N   UNL     1      -6.373  -8.591   9.356  0.00  0.00    -0.306 N 
ATOM      6  N   UNL     1      -7.053  -9.045   7.157  0.00  0.00    -0.214 NA
ATOM      7  N   UNL     1      -7.795  -7.055   8.294  0.00  0.00    -0.223 NA
ATOM     16  C   UNL     1      -7.096  -8.219   8.235  0.00  0.00    +0.216 A 
ATOM     18  C   UNL     1      -7.768  -8.652   6.081  0.00  0.00    +0.076 A 
ATOM     21  C   UNL     1      -8.487  -6.722   7.184  0.00  0.00    +0.116 A 
ATOM     22  C   UNL     1      -8.511  -7.490   6.038  0.00  0.00    +0.048 A 
ATOM     36  H   UNL     1      -6.454  -7.995  10.173  0.00  0.00    +0.149 HD
BRANCH  18  23
ATOM     23  C   UNL     1      -7.709  -9.543   4.948  0.00  0.00    +0.001 A 
ATOM     27  C   UNL     1      -8.585  -9.371   3.875  0.00  0.00    +0.012 A 
ATOM     28  C   UNL     1      -6.774 -10.581   4.919  0.00  0.00    +0.012 A 
ATOM     30  C   UNL     1      -8.528 -10.230   2.778  0.00  0.00    +0.024 A 
ATOM     31  C   UNL     1      -6.716 -11.441   3.822  0.00  0.00    +0.024 A 
ATOM     32  C   UNL     1      -7.594 -11.265   2.751  0.00  0.00    +0.029 A 
BRANCH  32   8
ATOM      8  N   UNL     1      -7.535 -12.135   1.643  0.00  0.00    -0.336 N 
ATOM     33  C   UNL     1      -8.595 -12.136   0.655  0.00  0.00    +0.129 C 
ATOM     34  C   UNL     1      -6.423 -13.050   1.485  0.00  0.00    +0.129 C 
ENDBRANCH  32   8
ENDBRANCH  18  23
ENDBRANCH  12   5
BRANCH  11   4
ATOM      3  O   UNL     1      -2.214 -10.478  14.779  0.00  0.00    -0.270 OA
ATOM      4  N   UNL     1      -4.227 -10.672  13.644  0.00  0.00    -0.304 N 
ATOM     15  C   UNL     1      -3.436 -10.594  14.782  0.00  0.00    +0.244 C 
ATOM     35  H   UNL     1      -5.216 -10.883  13.722  0.00  0.00    +0.149 HD
BRANCH  15  17
ATOM     17  C   UNL     1      -4.154 -10.686  16.079  0.00  0.00    +0.037 A 
ATOM     19  C   UNL     1      -5.417 -10.141  16.180  0.00  0.00    +0.013 A 
ATOM     20  C   UNL     1      -3.537 -11.315  17.140  0.00  0.00    +0.013 A 
ATOM     24  C   UNL     1      -6.093 -10.229  17.398  0.00  0.00    +0.004 A 
ATOM     25  C   UNL     1      -4.212 -11.403  18.357  0.00  0.00    +0.004 A 
ATOM     26  C   UNL     1      -5.490 -10.860  18.486  0.00  0.00    -0.050 A 
ATOM     29  C   UNL     1      -6.212 -10.952  19.788  0.00  0.00    +0.044 C 
ENDBRANCH  15  17
ENDBRANCH  11   4
TORSDOF 5
ENDMDL
MODEL 4
REMARK VINA RESULT:      -7.1     22.629     24.923
REMARK  Name = 11911723
REMARK  8 active torsions:
REMARK  status: ('A' for Active; 'I' for Inactive)
REMARK    1  A    between atoms: N_4  and  C_11
REMARK    2  A    between atoms: N_5  and  C_12
REMARK    3  A    between atoms: N_8  and  C_32
REMARK    4  A    between atoms: N_8  and  C_33
REMARK    5  A    between atoms: N_8  and  C_34
REMARK    6  A    between atoms: C_15  and  C_17
REMARK    7  A    between atoms: C_18  and  C_23
REMARK    8  A    between atoms: C_26  and  C_29
REMARK                            x       y       z     vdW  Elec       q    Type
REMARK                         _______ _______ _______ _____ _____    ______ ____
ROOT
ATOM      1  O   UNL     1       6.770  12.667   3.937  0.00  0.00    -0.370 OA
ATOM      2  O   UNL     1       4.850  10.230   3.598  0.00  0.00    -0.370 OA
ATOM      9  C   UNL     1       5.131  11.117   4.694  0.00  0.00    +0.171 C 
ATOM     10  C   UNL     1       6.614  11.429   4.652  0.00  0.00    +0.171 C 
ATOM     11  C   UNL     1       7.209  10.287   3.861  0.00  0.00    +0.130 C 
ATOM     12  C   UNL     1       4.465  12.454   4.470  0.00  0.00    +0.130 C 
ATOM     13  C   UNL     1       5.474  13.188   3.607  0.00  0.00    +0.185 C 
ATOM     14  C   UNL     1       6.076   9.920   2.918  0.00  0.00    +0.185 C 
ENDROOT
BRANCH  12   5
ATOM      5  N   UNL     1       4.293  13.140   5.731  0.00  0.00    -0.306 N 
ATOM      6  N   UNL     1       2.135  12.272   6.036  0.00  0.00    -0.214 NA
ATOM      7  N   UNL     1       3.118  13.744   7.671  0.00  0.00    -0.223 NA
ATOM     16  C   UNL     1       3.148  13.049   6.503  0.00  0.00    +0.216 A 
ATOM     18  C   UNL     1       1.033  12.206   6.812  0.00  0.00    +0.076 A 
ATOM     21  C   UNL     1       1.985  13.634   8.397  0.00  0.00    +0.116 A 
ATOM     22  C   UNL     1       0.901  12.872   8.014  0.00  0.00    +0.048 A 
ATOM     36  H   UNL     1       5.062  13.679   6.114  0.00  0.00    +0.149 HD
BRANCH  18  23
ATOM     23  C   UNL     1      -0.030  11.375   6.299  0.00  0.00    +0.001 A 
ATOM     27  C   UNL     1      -0.748  10.543   7.160  0.00  0.00    +0.012 A 
ATOM     28  C   UNL     1      -0.345  11.401   4.938  0.00  0.00    +0.012 A 
ATOM     30  C   UNL     1      -1.776   9.742   6.666  0.00  0.00    +0.024 A 
ATOM     31  C   UNL     1      -1.374  10.599   4.443  0.00  0.00    +0.024 A 
ATOM     32  C   UNL     1      -2.089   9.769   5.307  0.00  0.00    +0.029 A 
BRANCH  32   8
ATOM      8  N   UNL     1      -3.128   8.959   4.805  0.00  0.00    -0.336 N 
ATOM     33  C   UNL     1      -3.339   7.626   5.334  0.00  0.00    +0.129 C 
ATOM     34  C   UNL     1      -3.989   9.441   3.744  0.00  0.00    +0.129 C 
ENDBRANCH  32   8
ENDBRANCH  18  23
ENDBRANCH  12   5
BRANCH  11   4
ATOM      3  O   UNL     1       9.699   9.887   5.232  0.00  0.00    -0.270 OA
ATOM      4  N   UNL     1       7.551   9.179   4.721  0.00  0.00    -0.304 N 
ATOM     15  C   UNL     1       8.788   9.073   5.343  0.00  0.00    +0.244 C 
ATOM     35  H   UNL     1       6.888   8.412   4.766  0.00  0.00    +0.149 HD
BRANCH  15  17
ATOM     17  C   UNL     1       8.993   7.860   6.176  0.00  0.00    +0.037 A 
ATOM     19  C   UNL     1       8.846   7.960   7.544  0.00  0.00    +0.013 A 
ATOM     20  C   UNL     1       9.324   6.674   5.556  0.00  0.00    +0.013 A 
ATOM     24  C   UNL     1       9.037   6.820   8.327  0.00  0.00    +0.004 A 
ATOM     25  C   UNL     1       9.515   5.535   6.338  0.00  0.00    +0.004 A 
ATOM     26  C   UNL     1       9.372   5.608   7.723  0.00  0.00    -0.050 A 
ATOM     29  C   UNL     1       9.578   4.391   8.560  0.00  0.00    +0.044 C 
ENDBRANCH  15  17
ENDBRANCH  11   4
TORSDOF 5
ENDMDL
MODEL 5
REMARK VINA RESULT:      -7.1      2.508     11.127
REMARK  Name = 11911723
REMARK  8 active torsions:
REMARK  status: ('A' for Active; 'I' for Inactive)
REMARK    1  A    between atoms: N_4  and  C_11
REMARK    2  A    between atoms: N_5  and  C_12
REMARK    3  A    between atoms: N_8  and  C_32
REMARK    4  A    between atoms: N_8  and  C_33
REMARK    5  A    between atoms: N_8  and  C_34
REMARK    6  A    between atoms: C_15  and  C_17
REMARK    7  A    between atoms: C_18  and  C_23
REMARK    8  A    between atoms: C_26  and  C_29
REMARK                            x       y       z     vdW  Elec       q    Type
REMARK                         _______ _______ _______ _____ _____    ______ ____
ROOT
ATOM      1  O   UNL     1      -1.889 -10.066  13.309  0.00  0.00    -0.370 OA
ATOM      2  O   UNL     1      -2.939 -12.983  12.945  0.00  0.00    -0.370 OA
ATOM      9  C   UNL     1      -3.539 -11.690  12.758  0.00  0.00    +0.171 C 
ATOM     10  C   UNL     1      -3.009 -10.784  13.853  0.00  0.00    +0.171 C 
ATOM     11  C   UNL     1      -2.548 -11.740  14.930  0.00  0.00    +0.130 C 
ATOM     12  C   UNL     1      -3.037 -11.058  11.481  0.00  0.00    +0.130 C 
ATOM     13  C   UNL     1      -1.742 -10.402  11.921  0.00  0.00    +0.185 C 
ATOM     14  C   UNL     1      -2.120 -12.954  14.125  0.00  0.00    +0.185 C 
ENDROOT
BRANCH  12   5
ATOM      5  N   UNL     1      -3.974 -10.057  11.021  0.00  0.00    -0.306 N 
ATOM      6  N   UNL     1      -4.173 -11.055   8.907  0.00  0.00    -0.214 NA
ATOM      7  N   UNL     1      -5.405  -9.057   9.453  0.00  0.00    -0.223 NA
ATOM     16  C   UNL     1      -4.535 -10.056   9.756  0.00  0.00    +0.216 A 
ATOM     18  C   UNL     1      -4.738 -11.024   7.682  0.00  0.00    +0.076 A 
ATOM     21  C   UNL     1      -5.931  -9.086   8.210  0.00  0.00    +0.116 A 
ATOM     22  C   UNL     1      -5.632 -10.055   7.274  0.00  0.00    +0.048 A 
ATOM     36  H   UNL     1      -4.290  -9.339  11.664  0.00  0.00    +0.149 HD
BRANCH  18  23
ATOM     23  C   UNL     1      -4.342 -12.093   6.797  0.00  0.00    +0.001 A 
ATOM     27  C   UNL     1      -4.003 -13.344   7.317  0.00  0.00    +0.012 A 
ATOM     28  C   UNL     1      -4.298 -11.882   5.417  0.00  0.00    +0.012 A 
ATOM     30  C   UNL     1      -3.623 -14.378   6.463  0.00  0.00    +0.024 A 
ATOM     31  C   UNL     1      -3.918 -12.916   4.562  0.00  0.00    +0.024 A 
ATOM     32  C   UNL     1      -3.580 -14.165   5.085  0.00  0.00    +0.029 A 
BRANCH  32   8
ATOM      8  N   UNL     1      -3.194 -15.210   4.220  0.00  0.00    -0.336 N 
ATOM     33  C   UNL     1      -3.004 -14.958   2.806  0.00  0.00    +0.129 C 
ATOM     34  C   UNL     1      -2.999 -16.552   4.731  0.00  0.00    +0.129 C 
ENDBRANCH  32   8
ENDBRANCH  18  23
ENDBRANCH  12   5
BRANCH  11   4
ATOM      3  O   UNL     1      -3.709 -10.010  16.905  0.00  0.00    -0.270 OA
ATOM      4  N   UNL     1      -3.623 -12.065  15.835  0.00  0.00    -0.304 N 
ATOM     15  C   UNL     1      -4.120 -11.157  16.760  0.00  0.00    +0.244 C 
ATOM     35  H   UNL     1      -3.933 -13.031  15.849  0.00  0.00    +0.149 HD
BRANCH  15  17
ATOM     17  C   UNL     1      -5.212 -11.655  17.636  0.00  0.00    +0.037 A 
ATOM     19  C   UNL     1      -5.349 -11.116  18.898  0.00  0.00    +0.013 A 
ATOM     20  C   UNL     1      -6.054 -12.637  17.160  0.00  0.00    +0.013 A 
ATOM     24  C   UNL     1      -6.375 -11.582  19.722  0.00  0.00    +0.004 A 
ATOM     25  C   UNL     1      -7.079 -13.103  17.982  0.00  0.00    +0.004 A 
ATOM     26  C   UNL     1      -7.240 -12.576  19.262  0.00  0.00    -0.050 A 
ATOM     29  C   UNL     1      -8.336 -13.074  20.144  0.00  0.00    +0.044 C 
ENDBRANCH  15  17
ENDBRANCH  11   4
TORSDOF 5
ENDMDL
MODEL 6
REMARK VINA RESULT:      -7.0     23.833     29.083
REMARK  Name = 11911723
REMARK  8 active torsions:
REMARK  status: ('A' for Active; 'I' for Inactive)
REMARK    1  A    between atoms: N_4  and  C_11
REMARK    2  A    between atoms: N_5  and  C_12
REMARK    3  A    between atoms: N_8  and  C_32
REMARK    4  A    between atoms: N_8  and  C_33
REMARK    5  A    between atoms: N_8  and  C_34
REMARK    6  A    between atoms: C_15  and  C_17
REMARK    7  A    between atoms: C_18  and  C_23
REMARK    8  A    between atoms: C_26  and  C_29
REMARK                            x       y       z     vdW  Elec       q    Type
REMARK                         _______ _______ _______ _____ _____    ______ ____
ROOT
ATOM      1  O   UNL     1     -15.531   4.200  34.070  0.00  0.00    -0.370 OA
ATOM      2  O   UNL     1     -13.059   4.218  32.164  0.00  0.00    -0.370 OA
ATOM      9  C   UNL     1     -14.129   5.149  32.397  0.00  0.00    +0.171 C 
ATOM     10  C   UNL     1     -15.386   4.338  32.646  0.00  0.00    +0.171 C 
ATOM     11  C   UNL     1     -15.089   2.997  32.016  0.00  0.00    +0.130 C 
ATOM     12  C   UNL     1     -13.905   5.891  33.694  0.00  0.00    +0.130 C 
ATOM     13  C   UNL     1     -14.493   4.945  34.724  0.00  0.00    +0.185 C 
ATOM     14  C   UNL     1     -13.585   2.882  32.189  0.00  0.00    +0.185 C 
ENDROOT
BRANCH  12   5
ATOM      5  N   UNL     1     -14.637   7.138  33.684  0.00  0.00    -0.306 N 
ATOM      6  N   UNL     1     -12.781   8.362  34.433  0.00  0.00    -0.214 NA
ATOM      7  N   UNL     1     -14.884   9.452  33.989  0.00  0.00    -0.223 NA
ATOM     16  C   UNL     1     -14.084   8.354  34.046  0.00  0.00    +0.216 A 
ATOM     18  C   UNL     1     -12.274   9.564  34.780  0.00  0.00    +0.076 A 
ATOM     21  C   UNL     1     -14.312  10.620  34.350  0.00  0.00    +0.116 A 
ATOM     22  C   UNL     1     -12.999  10.737  34.757  0.00  0.00    +0.048 A 
ATOM     36  H   UNL     1     -15.593   7.151  33.347  0.00  0.00    +0.149 HD
BRANCH  18  23
ATOM     23  C   UNL     1     -10.889   9.550  35.187  0.00  0.00    +0.001 A 
ATOM     27  C   UNL     1     -10.517   8.942  36.387  0.00  0.00    +0.012 A 
ATOM     28  C   UNL     1      -9.915  10.142  34.379  0.00  0.00    +0.012 A 
ATOM     30  C   UNL     1      -9.179   8.927  36.780  0.00  0.00    +0.024 A 
ATOM     31  C   UNL     1      -8.576  10.127  34.771  0.00  0.00    +0.024 A 
ATOM     32  C   UNL     1      -8.209   9.519  35.972  0.00  0.00    +0.029 A 
BRANCH  32   8
ATOM      8  N   UNL     1      -6.855   9.504  36.369  0.00  0.00    -0.336 N 
ATOM     33  C   UNL     1      -6.461   8.865  37.608  0.00  0.00    +0.129 C 
ATOM     34  C   UNL     1      -5.843  10.142  35.551  0.00  0.00    +0.129 C 
ENDBRANCH  32   8
ENDBRANCH  18  23
ENDBRANCH  12   5
BRANCH  11   4
ATOM      3  O   UNL     1     -15.719   0.687  30.431  0.00  0.00    -0.270 OA
ATOM      4  N   UNL     1     -15.457   2.983  30.621  0.00  0.00    -0.304 N 
ATOM     15  C   UNL     1     -15.746   1.810  29.937  0.00  0.00    +0.244 C 
ATOM     35  H   UNL     1     -15.388   3.863  30.120  0.00  0.00    +0.149 HD
BRANCH  15  17
ATOM     17  C   UNL     1     -16.083   1.963  28.498  0.00  0.00    +0.037 A 
ATOM     19  C   UNL     1     -15.842   3.174  27.884  0.00  0.00    +0.013 A 
ATOM     20  C   UNL     1     -16.625   0.890  27.823  0.00  0.00    +0.013 A 
ATOM     24  C   UNL     1     -16.157   3.317  26.531  0.00  0.00    +0.004 A 
ATOM     25  C   UNL     1     -16.941   1.033  26.472  0.00  0.00    +0.004 A 
ATOM     26  C   UNL     1     -16.707   2.246  25.826  0.00  0.00    -0.050 A 
ATOM     29  C   UNL     1     -17.045   2.402  24.382  0.00  0.00    +0.044 C 
ENDBRANCH  15  17
ENDBRANCH  11   4
TORSDOF 5
ENDMDL
MODEL 7
REMARK VINA RESULT:      -6.9     24.369     30.172
REMARK  Name = 11911723
REMARK  8 active torsions:
REMARK  status: ('A' for Active; 'I' for Inactive)
REMARK    1  A    between atoms: N_4  and  C_11
REMARK    2  A    between atoms: N_5  and  C_12
REMARK    3  A    between atoms: N_8  and  C_32
REMARK    4  A    between atoms: N_8  and  C_33
REMARK    5  A    between atoms: N_8  and  C_34
REMARK    6  A    between atoms: C_15  and  C_17
REMARK    7  A    between atoms: C_18  and  C_23
REMARK    8  A    between atoms: C_26  and  C_29
REMARK                            x       y       z     vdW  Elec       q    Type
REMARK                         _______ _______ _______ _____ _____    ______ ____
ROOT
ATOM      1  O   UNL     1     -15.609   8.406  32.097  0.00  0.00    -0.370 OA
ATOM      2  O   UNL     1     -14.692   6.453  34.352  0.00  0.00    -0.370 OA
ATOM      9  C   UNL     1     -13.992   7.142  33.302  0.00  0.00    +0.171 C 
ATOM     10  C   UNL     1     -14.901   7.155  32.088  0.00  0.00    +0.171 C 
ATOM     11  C   UNL     1     -15.856   6.009  32.331  0.00  0.00    +0.130 C 
ATOM     12  C   UNL     1     -13.826   8.602  33.654  0.00  0.00    +0.130 C 
ATOM     13  C   UNL     1     -15.137   9.208  33.189  0.00  0.00    +0.185 C 
ATOM     14  C   UNL     1     -15.950   5.981  33.846  0.00  0.00    +0.185 C 
ENDROOT
BRANCH  12   5
ATOM      5  N   UNL     1     -12.721   9.168  32.911  0.00  0.00    -0.306 N 
ATOM      6  N   UNL     1     -11.306   9.146  34.782  0.00  0.00    -0.214 NA
ATOM      7  N   UNL     1     -10.529   9.965  32.653  0.00  0.00    -0.223 NA
ATOM     16  C   UNL     1     -11.481   9.434  33.465  0.00  0.00    +0.216 A 
ATOM     18  C   UNL     1     -10.086   9.418  35.290  0.00  0.00    +0.076 A 
ATOM     21  C   UNL     1      -9.333  10.213  33.226  0.00  0.00    +0.116 A 
ATOM     22  C   UNL     1      -9.051   9.957  34.552  0.00  0.00    +0.048 A 
ATOM     36  H   UNL     1     -12.825   9.337  31.916  0.00  0.00    +0.149 HD
BRANCH  18  23
ATOM     23  C   UNL     1      -9.921   9.104  36.689  0.00  0.00    +0.001 A 
ATOM     27  C   UNL     1     -10.245   7.833  37.165  0.00  0.00    +0.012 A 
ATOM     28  C   UNL     1      -9.433  10.071  37.572  0.00  0.00    +0.012 A 
ATOM     30  C   UNL     1     -10.083   7.528  38.516  0.00  0.00    +0.024 A 
ATOM     31  C   UNL     1      -9.272   9.767  38.923  0.00  0.00    +0.024 A 
ATOM     32  C   UNL     1      -9.597   8.495  39.395  0.00  0.00    +0.029 A 
BRANCH  32   8
ATOM      8  N   UNL     1      -9.433   8.188  40.762  0.00  0.00    -0.336 N 
ATOM     33  C   UNL     1      -8.718   9.095  41.637  0.00  0.00    +0.129 C 
ATOM     34  C   UNL     1      -9.965   6.955  41.307  0.00  0.00    +0.129 C 
ENDBRANCH  32   8
ENDBRANCH  18  23
ENDBRANCH  12   5
BRANCH  11   4
ATOM      3  O   UNL     1     -17.274   4.045  30.790  0.00  0.00    -0.270 OA
ATOM      4  N   UNL     1     -15.325   4.769  31.817  0.00  0.00    -0.304 N 
ATOM     15  C   UNL     1     -16.093   3.879  31.078  0.00  0.00    +0.244 C 
ATOM     35  H   UNL     1     -14.389   4.513  32.115  0.00  0.00    +0.149 HD
BRANCH  15  17
ATOM     17  C   UNL     1     -15.406   2.636  30.643  0.00  0.00    +0.037 A 
ATOM     19  C   UNL     1     -14.103   2.422  31.041  0.00  0.00    +0.013 A 
ATOM     20  C   UNL     1     -16.093   1.735  29.857  0.00  0.00    +0.013 A 
ATOM     24  C   UNL     1     -13.458   1.252  30.634  0.00  0.00    +0.004 A 
ATOM     25  C   UNL     1     -15.448   0.567  29.450  0.00  0.00    +0.004 A 
ATOM     26  C   UNL     1     -14.131   0.326  29.838  0.00  0.00    -0.050 A 
ATOM     29  C   UNL     1     -13.440  -0.922  29.402  0.00  0.00    +0.044 C 
ENDBRANCH  15  17
ENDBRANCH  11   4
TORSDOF 5
ENDMDL
MODEL 8
REMARK VINA RESULT:      -6.9     25.515     27.621
REMARK  Name = 11911723
REMARK  8 active torsions:
REMARK  status: ('A' for Active; 'I' for Inactive)
REMARK    1  A    between atoms: N_4  and  C_11
REMARK    2  A    between atoms: N_5  and  C_12
REMARK    3  A    between atoms: N_8  and  C_32
REMARK    4  A    between atoms: N_8  and  C_33
REMARK    5  A    between atoms: N_8  and  C_34
REMARK    6  A    between atoms: C_15  and  C_17
REMARK    7  A    between atoms: C_18  and  C_23
REMARK    8  A    between atoms: C_26  and  C_29
REMARK                            x       y       z     vdW  Elec       q    Type
REMARK                         _______ _______ _______ _____ _____    ______ ____
ROOT
ATOM      1  O   UNL     1      11.144  14.059  10.425  0.00  0.00    -0.370 OA
ATOM      2  O   UNL     1      10.107  11.729  12.223  0.00  0.00    -0.370 OA
ATOM      9  C   UNL     1      11.392  12.039  11.658  0.00  0.00    +0.171 C 
ATOM     10  C   UNL     1      11.149  12.629  10.282  0.00  0.00    +0.171 C 
ATOM     11  C   UNL     1       9.771  12.133   9.908  0.00  0.00    +0.130 C 
ATOM     12  C   UNL     1      12.047  13.161  12.430  0.00  0.00    +0.130 C 
ATOM     13  C   UNL     1      11.454  14.400  11.784  0.00  0.00    +0.185 C 
ATOM     14  C   UNL     1       9.086  12.028  11.259  0.00  0.00    +0.185 C 
ENDROOT
BRANCH  12   5
ATOM      5  N   UNL     1      13.479  13.129  12.231  0.00  0.00    -0.306 N 
ATOM      6  N   UNL     1      13.821  11.765  14.108  0.00  0.00    -0.214 NA
ATOM      7  N   UNL     1      15.677  12.493  12.754  0.00  0.00    -0.223 NA
ATOM     16  C   UNL     1      14.352  12.441  13.055  0.00  0.00    +0.216 A 
ATOM     18  C   UNL     1      14.700  11.106  14.892  0.00  0.00    +0.076 A 
ATOM     21  C   UNL     1      16.499  11.812  13.579  0.00  0.00    +0.116 A 
ATOM     22  C   UNL     1      16.063  11.093  14.673  0.00  0.00    +0.048 A 
ATOM     36  H   UNL     1      13.879  13.587  11.419  0.00  0.00    +0.149 HD
BRANCH  18  23
ATOM     23  C   UNL     1      14.116  10.393  16.003  0.00  0.00    +0.001 A 
ATOM     27  C   UNL     1      13.898   9.017  15.917  0.00  0.00    +0.012 A 
ATOM     28  C   UNL     1      13.769  11.078  17.170  0.00  0.00    +0.012 A 
ATOM     30  C   UNL     1      13.336   8.328  16.991  0.00  0.00    +0.024 A 
ATOM     31  C   UNL     1      13.206  10.389  18.245  0.00  0.00    +0.024 A 
ATOM     32  C   UNL     1      12.990   9.014  18.155  0.00  0.00    +0.029 A 
BRANCH  32   8
ATOM      8  N   UNL     1      12.421   8.318  19.242  0.00  0.00    -0.336 N 
ATOM     33  C   UNL     1      12.788   6.940  19.503  0.00  0.00    +0.129 C 
ATOM     34  C   UNL     1      11.451   8.965  20.102  0.00  0.00    +0.129 C 
ENDBRANCH  32   8
ENDBRANCH  18  23
ENDBRANCH  12   5
BRANCH  11   4
ATOM      3  O   UNL     1       9.151  11.574   7.161  0.00  0.00    -0.270 OA
ATOM      4  N   UNL     1       9.837  10.849   9.254  0.00  0.00    -0.304 N 
ATOM     15  C   UNL     1       9.517  10.677   7.915  0.00  0.00    +0.244 C 
ATOM     35  H   UNL     1      10.020  10.044   9.844  0.00  0.00    +0.149 HD
BRANCH  15  17
ATOM     17  C   UNL     1       9.612   9.287   7.398  0.00  0.00    +0.037 A 
ATOM     19  C   UNL     1      10.265   9.065   6.203  0.00  0.00    +0.013 A 
ATOM     20  C   UNL     1       9.047   8.263   8.129  0.00  0.00    +0.013 A 
ATOM     24  C   UNL     1      10.357   7.759   5.718  0.00  0.00    +0.004 A 
ATOM     25  C   UNL     1       9.138   6.959   7.644  0.00  0.00    +0.004 A 
ATOM     26  C   UNL     1       9.792   6.707   6.440  0.00  0.00    -0.050 A 
ATOM     29  C   UNL     1       9.889   5.312   5.919  0.00  0.00    +0.044 C 
ENDBRANCH  15  17
ENDBRANCH  11   4
TORSDOF 5
ENDMDL
MODEL 9
REMARK VINA RESULT:      -6.9     23.319     27.538
REMARK  Name = 11911723
REMARK  8 active torsions:
REMARK  status: ('A' for Active; 'I' for Inactive)
REMARK    1  A    between atoms: N_4  and  C_11
REMARK    2  A    between atoms: N_5  and  C_12
REMARK    3  A    between atoms: N_8  and  C_32
REMARK    4  A    between atoms: N_8  and  C_33
REMARK    5  A    between atoms: N_8  and  C_34
REMARK    6  A    between atoms: C_15  and  C_17
REMARK    7  A    between atoms: C_18  and  C_23
REMARK    8  A    between atoms: C_26  and  C_29
REMARK                            x       y       z     vdW  Elec       q    Type
REMARK                         _______ _______ _______ _____ _____    ______ ____
ROOT
ATOM      1  O   UNL     1     -10.036 -11.429  39.199  0.00  0.00    -0.370 OA
ATOM      2  O   UNL     1      -8.360 -11.063  36.592  0.00  0.00    -0.370 OA
ATOM      9  C   UNL     1      -9.392 -10.281  37.216  0.00  0.00    +0.171 C 
ATOM     10  C   UNL     1     -10.391 -11.251  37.817  0.00  0.00    +0.171 C 
ATOM     11  C   UNL     1     -10.168 -12.532  37.048  0.00  0.00    +0.130 C 
ATOM     12  C   UNL     1      -8.836  -9.537  38.409  0.00  0.00    +0.130 C 
ATOM     13  C   UNL     1      -8.934 -10.567  39.518  0.00  0.00    +0.185 C 
ATOM     14  C   UNL     1      -8.689 -12.456  36.711  0.00  0.00    +0.185 C 
ENDROOT
BRANCH  12   5
ATOM      5  N   UNL     1      -9.670  -8.395  38.712  0.00  0.00    -0.306 N 
ATOM      6  N   UNL     1      -7.878  -7.193  39.635  0.00  0.00    -0.214 NA
ATOM      7  N   UNL     1     -10.089  -6.239  39.540  0.00  0.00    -0.223 NA
ATOM     16  C   UNL     1      -9.198  -7.241  39.313  0.00  0.00    +0.216 A 
ATOM     18  C   UNL     1      -7.452  -6.055  40.221  0.00  0.00    +0.076 A 
ATOM     21  C   UNL     1      -9.596  -5.130  40.129  0.00  0.00    +0.116 A 
ATOM     22  C   UNL     1      -8.274  -4.980  40.494  0.00  0.00    +0.048 A 
ATOM     36  H   UNL     1     -10.643  -8.399  38.428  0.00  0.00    +0.149 HD
BRANCH  18  23
ATOM     23  C   UNL     1      -6.048  -6.024  40.553  0.00  0.00    +0.001 A 
ATOM     27  C   UNL     1      -5.089  -6.241  39.563  0.00  0.00    +0.012 A 
ATOM     28  C   UNL     1      -5.644  -5.776  41.867  0.00  0.00    +0.012 A 
ATOM     30  C   UNL     1      -3.732  -6.210  39.882  0.00  0.00    +0.024 A 
ATOM     31  C   UNL     1      -4.287  -5.745  42.188  0.00  0.00    +0.024 A 
ATOM     32  C   UNL     1      -3.330  -5.962  41.195  0.00  0.00    +0.029 A 
BRANCH  32   8
ATOM      8  N   UNL     1      -1.958  -5.931  41.520  0.00  0.00    -0.336 N 
ATOM     33  C   UNL     1      -0.958  -6.182  40.502  0.00  0.00    +0.129 C 
ATOM     34  C   UNL     1      -1.531  -5.662  42.878  0.00  0.00    +0.129 C 
ENDBRANCH  32   8
ENDBRANCH  18  23
ENDBRANCH  12   5
BRANCH  11   4
ATOM      3  O   UNL     1     -12.668 -13.902  36.711  0.00  0.00    -0.270 OA
ATOM      4  N   UNL     1     -10.975 -12.571  35.852  0.00  0.00    -0.304 N 
ATOM     15  C   UNL     1     -12.176 -13.264  35.786  0.00  0.00    +0.244 C 
ATOM     35  H   UNL     1     -10.574 -12.162  35.015  0.00  0.00    +0.149 HD
BRANCH  15  17
ATOM     17  C   UNL     1     -12.875 -13.226  34.476  0.00  0.00    +0.037 A 
ATOM     19  C   UNL     1     -12.558 -14.175  33.525  0.00  0.00    +0.013 A 
ATOM     20  C   UNL     1     -13.819 -12.247  34.251  0.00  0.00    +0.013 A 
ATOM     24  C   UNL     1     -13.217 -14.141  32.295  0.00  0.00    +0.004 A 
ATOM     25  C   UNL     1     -14.477 -12.213  33.022  0.00  0.00    +0.004 A 
ATOM     26  C   UNL     1     -14.176 -13.159  32.044  0.00  0.00    -0.050 A 
ATOM     29  C   UNL     1     -14.877 -13.123  30.728  0.00  0.00    +0.044 C 
ENDBRANCH  15  17
ENDBRANCH  11   4
TORSDOF 5
ENDMDL
MODEL 10
REMARK VINA RESULT:      -6.7     23.587     28.326
REMARK  Name = 11911723
REMARK  8 active torsions:
REMARK  status: ('A' for Active; 'I' for Inactive)
REMARK    1  A    between atoms: N_4  and  C_11
REMARK    2  A    between atoms: N_5  and  C_12
REMARK    3  A    between atoms: N_8  and  C_32
REMARK    4  A    between atoms: N_8  and  C_33
REMARK    5  A    between atoms: N_8  and  C_34
REMARK    6  A    between atoms: C_15  and  C_17
REMARK    7  A    between atoms: C_18  and  C_23
REMARK    8  A    between atoms: C_26  and  C_29
REMARK                            x       y       z     vdW  Elec       q    Type
REMARK                         _______ _______ _______ _____ _____    ______ ____
ROOT
ATOM      1  O   UNL     1      -9.634 -10.125  40.764  0.00  0.00    -0.370 OA
ATOM      2  O   UNL     1      -9.456  -8.139  38.363  0.00  0.00    -0.370 OA
ATOM      9  C   UNL     1      -8.799  -9.381  38.663  0.00  0.00    +0.171 C 
ATOM     10  C   UNL     1      -8.546  -9.407  40.158  0.00  0.00    +0.171 C 
ATOM     11  C   UNL     1      -8.586  -7.951  40.563  0.00  0.00    +0.130 C 
ATOM     12  C   UNL     1      -9.737 -10.541  38.428  0.00  0.00    +0.130 C 
ATOM     13  C   UNL     1     -10.503 -10.621  39.735  0.00  0.00    +0.185 C 
ATOM     14  C   UNL     1      -9.569  -7.364  39.566  0.00  0.00    +0.185 C 
ENDROOT
BRANCH  12   5
ATOM      5  N   UNL     1      -8.980 -11.756  38.216  0.00  0.00    -0.306 N 
ATOM      6  N   UNL     1     -10.413 -12.483  36.507  0.00  0.00    -0.214 NA
ATOM      7  N   UNL     1      -8.512 -13.806  37.174  0.00  0.00    -0.223 NA
ATOM     16  C   UNL     1      -9.311 -12.710  37.270  0.00  0.00    +0.216 A 
ATOM     18  C   UNL     1     -10.708 -13.434  35.596  0.00  0.00    +0.076 A 
ATOM     21  C   UNL     1      -8.865 -14.716  36.243  0.00  0.00    +0.116 A 
ATOM     22  C   UNL     1      -9.963 -14.582  35.417  0.00  0.00    +0.048 A 
ATOM     36  H   UNL     1      -8.127 -11.909  38.744  0.00  0.00    +0.149 HD
BRANCH  18  23
ATOM     23  C   UNL     1     -11.880 -13.173  34.796  0.00  0.00    +0.001 A 
ATOM     27  C   UNL     1     -12.207 -14.019  33.734  0.00  0.00    +0.012 A 
ATOM     28  C   UNL     1     -12.695 -12.075  35.082  0.00  0.00    +0.012 A 
ATOM     30  C   UNL     1     -13.341 -13.769  32.962  0.00  0.00    +0.024 A 
ATOM     31  C   UNL     1     -13.829 -11.824  34.310  0.00  0.00    +0.024 A 
ATOM     32  C   UNL     1     -14.152 -12.672  33.250  0.00  0.00    +0.029 A 
BRANCH  32   8
ATOM      8  N   UNL     1     -15.299 -12.418  32.469  0.00  0.00    -0.336 N 
ATOM     33  C   UNL     1     -15.185 -12.237  31.036  0.00  0.00    +0.129 C 
ATOM     34  C   UNL     1     -16.604 -12.318  33.091  0.00  0.00    +0.129 C 
ENDBRANCH  32   8
ENDBRANCH  18  23
ENDBRANCH  12   5
BRANCH  11   4
ATOM      3  O   UNL     1      -6.719  -7.444  42.684  0.00  0.00    -0.270 OA
ATOM      4  N   UNL     1      -7.286  -7.338  40.439  0.00  0.00    -0.304 N 
ATOM     15  C   UNL     1      -6.450  -7.134  41.528  0.00  0.00    +0.244 C 
ATOM     35  H   UNL     1      -7.047  -6.953  39.531  0.00  0.00    +0.149 HD
BRANCH  15  17
ATOM     17  C   UNL     1      -5.155  -6.468  41.236  0.00  0.00    +0.037 A 
ATOM     19  C   UNL     1      -4.548  -5.729  42.230  0.00  0.00    +0.013 A 
ATOM     20  C   UNL     1      -4.600  -6.609  39.982  0.00  0.00    +0.013 A 
ATOM     24  C   UNL     1      -3.330  -5.104  41.957  0.00  0.00    +0.004 A 
ATOM     25  C   UNL     1      -3.383  -5.985  39.708  0.00  0.00    +0.004 A 
ATOM     26  C   UNL     1      -2.748  -5.233  40.696  0.00  0.00    -0.050 A 
ATOM     29  C   UNL     1      -1.448  -4.563  40.404  0.00  0.00    +0.044 C 
ENDBRANCH  15  17
ENDBRANCH  11   4
TORSDOF 5
ENDMDL
