MODEL 1
REMARK VINA RESULT:      -6.3      0.000      0.000
REMARK  Name = 75366989
REMARK  13 active torsions:
REMARK  status: ('A' for Active; 'I' for Inactive)
REMARK    1  A    between atoms: O_2  and  C_10
REMARK    2  A    between atoms: O_4  and  C_22
REMARK    3  A    between atoms: N_5  and  C_14
REMARK    4  A    between atoms: N_5  and  C_16
REMARK    5  A    between atoms: N_7  and  C_20
REMARK    6  A    between atoms: N_7  and  C_21
REMARK    7  A    between atoms: N_7  and  C_24
REMARK    8  A    between atoms: C_8  and  C_14
REMARK    9  A    between atoms: C_9  and  C_13
REMARK   10  A    between atoms: C_13  and  C_15
REMARK   11  A    between atoms: C_16  and  C_19
REMARK   12  A    between atoms: C_18  and  C_20
REMARK   13  A    between atoms: C_21  and  C_25
REMARK                            x       y       z     vdW  Elec       q    Type
REMARK                         _______ _______ _______ _____ _____    ______ ____
ROOT
ATOM      1  O   UNL     1      12.104   7.167   4.882  0.00  0.00    -0.369 OA
ATOM      8  C   UNL     1      13.117   6.768   5.816  0.00  0.00    +0.161 C 
ATOM      9  C   UNL     1      11.895   8.578   4.778  0.00  0.00    +0.125 C 
ATOM     10  C   UNL     1      14.458   7.447   5.508  0.00  0.00    +0.145 C 
ATOM     11  C   UNL     1      13.183   9.283   4.356  0.00  0.00    +0.034 C 
ATOM     12  C   UNL     1      14.317   8.955   5.324  0.00  0.00    +0.036 C 
ENDROOT
BRANCH  10   2
ATOM      2  O   UNL     1      14.980   6.905   4.293  0.00  0.00    -0.389 OA
ATOM     35  H   UNL     1      15.864   6.550   4.485  0.00  0.00    +0.210 HD
ENDBRANCH  10   2
BRANCH   9  13
ATOM     13  C   UNL     1      10.792   8.802   3.750  0.00  0.00    +0.090 C 
BRANCH  13  15
ATOM      3  O   UNL     1      11.682   6.773   0.908  0.00  0.00    -0.358 OA
ATOM      6  N   UNL     1      11.929   7.799   1.812  0.00  0.00    -0.083 NA
ATOM     15  C   UNL     1      10.868   7.805   2.625  0.00  0.00    +0.086 A 
ATOM     17  C   UNL     1       9.929   6.816   2.284  0.00  0.00    +0.072 A 
ATOM     18  C   UNL     1      10.489   6.196   1.198  0.00  0.00    +0.151 A 
BRANCH  18  20
ATOM     20  C   UNL     1      10.069   5.086   0.335  0.00  0.00    +0.161 C 
BRANCH  20   7
ATOM      7  N   UNL     1      10.934   4.908  -0.844  0.00  0.00    -0.294 NA
ATOM     24  C   UNL     1      10.150   5.053  -2.066  0.00  0.00    +0.105 C 
BRANCH   7  21
ATOM     21  C   UNL     1      11.584   3.603  -0.795  0.00  0.00    +0.119 C 
BRANCH  21  25
ATOM     25  C   UNL     1      12.986   3.694  -0.254  0.00  0.00    -0.033 A 
ATOM     29  C   UNL     1      14.034   4.074  -1.092  0.00  0.00    +0.005 A 
ATOM     30  C   UNL     1      13.236   3.400   1.086  0.00  0.00    +0.005 A 
ATOM     31  C   UNL     1      15.333   4.158  -0.590  0.00  0.00    +0.000 A 
ATOM     32  C   UNL     1      14.534   3.484   1.589  0.00  0.00    +0.000 A 
ATOM     33  C   UNL     1      15.583   3.863   0.750  0.00  0.00    +0.000 A 
ENDBRANCH  21  25
ENDBRANCH   7  21
ENDBRANCH  20   7
ENDBRANCH  18  20
ENDBRANCH  13  15
ENDBRANCH   9  13
BRANCH   8  14
ATOM     14  C   UNL     1      12.654   6.985   7.256  0.00  0.00    +0.115 C 
BRANCH  14   5
ATOM      5  N   UNL     1      12.106   5.760   7.815  0.00  0.00    -0.309 NA
ATOM     34  H   UNL     1      12.060   5.031   7.103  0.00  0.00    +0.122 HD
BRANCH   5  16
ATOM     16  C   UNL     1      10.783   5.990   8.382  0.00  0.00    +0.120 C 
BRANCH  16  19
ATOM     19  C   UNL     1       9.769   6.326   7.320  0.00  0.00    +0.008 A 
ATOM     22  C   UNL     1       9.480   5.421   6.299  0.00  0.00    +0.121 A 
ATOM     23  C   UNL     1       9.118   7.559   7.365  0.00  0.00    +0.008 A 
ATOM     26  C   UNL     1       8.539   5.750   5.323  0.00  0.00    +0.046 A 
ATOM     27  C   UNL     1       8.177   7.887   6.389  0.00  0.00    +0.001 A 
ATOM     28  C   UNL     1       7.887   6.982   5.368  0.00  0.00    +0.004 A 
BRANCH  22   4
ATOM      4  O   UNL     1      10.107   4.214   6.240  0.00  0.00    -0.506 OA
ATOM     36  H   UNL     1      10.871   4.282   5.640  0.00  0.00    +0.292 HD
ENDBRANCH  22   4
ENDBRANCH  16  19
ENDBRANCH   5  16
ENDBRANCH  14   5
ENDBRANCH   8  14
TORSDOF 12
ENDMDL
MODEL 2
REMARK VINA RESULT:      -6.2      1.929      3.400
REMARK  Name = 75366989
REMARK  13 active torsions:
REMARK  status: ('A' for Active; 'I' for Inactive)
REMARK    1  A    between atoms: O_2  and  C_10
REMARK    2  A    between atoms: O_4  and  C_22
REMARK    3  A    between atoms: N_5  and  C_14
REMARK    4  A    between atoms: N_5  and  C_16
REMARK    5  A    between atoms: N_7  and  C_20
REMARK    6  A    between atoms: N_7  and  C_21
REMARK    7  A    between atoms: N_7  and  C_24
REMARK    8  A    between atoms: C_8  and  C_14
REMARK    9  A    between atoms: C_9  and  C_13
REMARK   10  A    between atoms: C_13  and  C_15
REMARK   11  A    between atoms: C_16  and  C_19
REMARK   12  A    between atoms: C_18  and  C_20
REMARK   13  A    between atoms: C_21  and  C_25
REMARK                            x       y       z     vdW  Elec       q    Type
REMARK                         _______ _______ _______ _____ _____    ______ ____
ROOT
ATOM      1  O   UNL     1      13.721   7.165   4.534  0.00  0.00    -0.369 OA
ATOM      8  C   UNL     1      12.558   6.874   5.321  0.00  0.00    +0.161 C 
ATOM      9  C   UNL     1      14.216   8.501   4.652  0.00  0.00    +0.125 C 
ATOM     10  C   UNL     1      12.795   7.186   6.804  0.00  0.00    +0.145 C 
ATOM     11  C   UNL     1      14.577   8.816   6.103  0.00  0.00    +0.034 C 
ATOM     12  C   UNL     1      13.379   8.580   7.018  0.00  0.00    +0.036 C 
ENDROOT
BRANCH  10   2
ATOM      2  O   UNL     1      13.724   6.237   7.331  0.00  0.00    -0.389 OA
ATOM     35  H   UNL     1      13.425   5.352   7.062  0.00  0.00    +0.210 HD
ENDBRANCH  10   2
BRANCH   9  13
ATOM     13  C   UNL     1      15.440   8.617   3.751  0.00  0.00    +0.090 C 
BRANCH  13  15
ATOM      3  O   UNL     1      14.422   8.215   0.318  0.00  0.00    -0.358 OA
ATOM      6  N   UNL     1      14.527   8.952   1.491  0.00  0.00    -0.083 NA
ATOM     15  C   UNL     1      15.150   8.142   2.353  0.00  0.00    +0.086 A 
ATOM     17  C   UNL     1      15.458   6.894   1.784  0.00  0.00    +0.072 A 
ATOM     18  C   UNL     1      14.980   6.992   0.504  0.00  0.00    +0.151 A 
BRANCH  18  20
ATOM     20  C   UNL     1      14.956   6.078  -0.644  0.00  0.00    +0.161 C 
BRANCH  20   7
ATOM      7  N   UNL     1      15.120   4.664  -0.264  0.00  0.00    -0.294 NA
ATOM     24  C   UNL     1      16.394   4.157  -0.763  0.00  0.00    +0.105 C 
BRANCH   7  21
ATOM     21  C   UNL     1      14.009   3.875  -0.782  0.00  0.00    +0.119 C 
BRANCH  21  25
ATOM     25  C   UNL     1      12.804   3.943   0.118  0.00  0.00    -0.033 A 
ATOM     29  C   UNL     1      11.592   4.426  -0.373  0.00  0.00    +0.005 A 
ATOM     30  C   UNL     1      12.901   3.523   1.445  0.00  0.00    +0.005 A 
ATOM     31  C   UNL     1      10.476   4.489   0.462  0.00  0.00    +0.000 A 
ATOM     32  C   UNL     1      11.785   3.585   2.280  0.00  0.00    +0.000 A 
ATOM     33  C   UNL     1      10.572   4.069   1.789  0.00  0.00    +0.000 A 
ENDBRANCH  21  25
ENDBRANCH   7  21
ENDBRANCH  20   7
ENDBRANCH  18  20
ENDBRANCH  13  15
ENDBRANCH   9  13
BRANCH   8  14
ATOM     14  C   UNL     1      11.322   7.570   4.753  0.00  0.00    +0.115 C 
BRANCH  14   5
ATOM      5  N   UNL     1      10.352   6.597   4.275  0.00  0.00    -0.309 NA
ATOM     34  H   UNL     1      10.172   6.730   3.281  0.00  0.00    +0.122 HD
BRANCH   5  16
ATOM     16  C   UNL     1       9.106   6.690   5.026  0.00  0.00    +0.120 C 
BRANCH  16  19
ATOM     19  C   UNL     1       9.255   6.159   6.427  0.00  0.00    +0.008 A 
ATOM     22  C   UNL     1       9.755   4.876   6.654  0.00  0.00    +0.121 A 
ATOM     23  C   UNL     1       8.886   6.963   7.505  0.00  0.00    +0.008 A 
ATOM     26  C   UNL     1       9.886   4.399   7.958  0.00  0.00    +0.046 A 
ATOM     27  C   UNL     1       9.016   6.486   8.809  0.00  0.00    +0.001 A 
ATOM     28  C   UNL     1       9.517   5.205   9.036  0.00  0.00    +0.004 A 
BRANCH  22   4
ATOM      4  O   UNL     1      10.121   4.077   5.613  0.00  0.00    -0.506 OA
ATOM     36  H   UNL     1      10.937   3.602   5.849  0.00  0.00    +0.292 HD
ENDBRANCH  22   4
ENDBRANCH  16  19
ENDBRANCH   5  16
ENDBRANCH  14   5
ENDBRANCH   8  14
TORSDOF 12
ENDMDL
MODEL 3
REMARK VINA RESULT:      -6.1      3.144      6.837
REMARK  Name = 75366989
REMARK  13 active torsions:
REMARK  status: ('A' for Active; 'I' for Inactive)
REMARK    1  A    between atoms: O_2  and  C_10
REMARK    2  A    between atoms: O_4  and  C_22
REMARK    3  A    between atoms: N_5  and  C_14
REMARK    4  A    between atoms: N_5  and  C_16
REMARK    5  A    between atoms: N_7  and  C_20
REMARK    6  A    between atoms: N_7  and  C_21
REMARK    7  A    between atoms: N_7  and  C_24
REMARK    8  A    between atoms: C_8  and  C_14
REMARK    9  A    between atoms: C_9  and  C_13
REMARK   10  A    between atoms: C_13  and  C_15
REMARK   11  A    between atoms: C_16  and  C_19
REMARK   12  A    between atoms: C_18  and  C_20
REMARK   13  A    between atoms: C_21  and  C_25
REMARK                            x       y       z     vdW  Elec       q    Type
REMARK                         _______ _______ _______ _____ _____    ______ ____
ROOT
ATOM      1  O   UNL     1      11.644   6.378   5.827  0.00  0.00    -0.369 OA
ATOM      8  C   UNL     1      10.580   5.602   5.260  0.00  0.00    +0.161 C 
ATOM      9  C   UNL     1      11.228   7.520   6.580  0.00  0.00    +0.125 C 
ATOM     10  C   UNL     1       9.584   5.151   6.336  0.00  0.00    +0.145 C 
ATOM     11  C   UNL     1      10.324   7.102   7.739  0.00  0.00    +0.034 C 
ATOM     12  C   UNL     1       9.129   6.303   7.227  0.00  0.00    +0.036 C 
ENDROOT
BRANCH  10   2
ATOM      2  O   UNL     1      10.216   4.177   7.170  0.00  0.00    -0.389 OA
ATOM     35  H   UNL     1      10.304   3.359   6.652  0.00  0.00    +0.210 HD
ENDBRANCH  10   2
BRANCH   9  13
ATOM     13  C   UNL     1      12.485   8.211   7.096  0.00  0.00    +0.090 C 
BRANCH  13  15
ATOM      3  O   UNL     1      15.535   7.337   5.387  0.00  0.00    -0.358 OA
ATOM      6  N   UNL     1      14.665   7.260   6.468  0.00  0.00    -0.083 NA
ATOM     15  C   UNL     1      13.639   8.051   6.143  0.00  0.00    +0.086 A 
ATOM     17  C   UNL     1      13.805   8.648   4.881  0.00  0.00    +0.072 A 
ATOM     18  C   UNL     1      15.012   8.166   4.449  0.00  0.00    +0.151 A 
BRANCH  18  20
ATOM     20  C   UNL     1      15.807   8.363   3.231  0.00  0.00    +0.161 C 
BRANCH  20   7
ATOM      7  N   UNL     1      17.050   9.118   3.465  0.00  0.00    -0.294 NA
ATOM     24  C   UNL     1      17.062  10.327   2.648  0.00  0.00    +0.105 C 
BRANCH   7  21
ATOM     21  C   UNL     1      18.207   8.281   3.168  0.00  0.00    +0.119 C 
BRANCH  21  25
ATOM     25  C   UNL     1      19.104   8.119   4.366  0.00  0.00    -0.033 A 
ATOM     29  C   UNL     1      20.282   7.381   4.262  0.00  0.00    +0.005 A 
ATOM     30  C   UNL     1      18.756   8.710   5.582  0.00  0.00    +0.005 A 
ATOM     31  C   UNL     1      21.113   7.232   5.373  0.00  0.00    +0.000 A 
ATOM     32  C   UNL     1      19.587   8.562   6.693  0.00  0.00    +0.000 A 
ATOM     33  C   UNL     1      20.765   7.822   6.589  0.00  0.00    +0.000 A 
ENDBRANCH  21  25
ENDBRANCH   7  21
ENDBRANCH  20   7
ENDBRANCH  18  20
ENDBRANCH  13  15
ENDBRANCH   9  13
BRANCH   8  14
ATOM     14  C   UNL     1       9.913   6.343   4.102  0.00  0.00    +0.115 C 
BRANCH  14   5
ATOM      5  N   UNL     1      10.458   5.908   2.826  0.00  0.00    -0.309 NA
ATOM     34  H   UNL     1       9.761   6.004   2.088  0.00  0.00    +0.122 HD
BRANCH   5  16
ATOM     16  C   UNL     1      10.923   4.529   2.900  0.00  0.00    +0.120 C 
BRANCH  16  19
ATOM     19  C   UNL     1      11.657   4.117   1.651  0.00  0.00    +0.008 A 
ATOM     22  C   UNL     1      11.024   4.154   0.408  0.00  0.00    +0.121 A 
ATOM     23  C   UNL     1      12.982   3.694   1.746  0.00  0.00    +0.008 A 
ATOM     26  C   UNL     1      11.718   3.768  -0.739  0.00  0.00    +0.046 A 
ATOM     27  C   UNL     1      13.676   3.308   0.599  0.00  0.00    +0.001 A 
ATOM     28  C   UNL     1      13.044   3.345  -0.643  0.00  0.00    +0.004 A 
BRANCH  22   4
ATOM      4  O   UNL     1       9.729   4.563   0.297  0.00  0.00    -0.506 OA
ATOM     36  H   UNL     1       9.148   3.784   0.313  0.00  0.00    +0.292 HD
ENDBRANCH  22   4
ENDBRANCH  16  19
ENDBRANCH   5  16
ENDBRANCH  14   5
ENDBRANCH   8  14
TORSDOF 12
ENDMDL
MODEL 4
REMARK VINA RESULT:      -6.0     26.075     29.528
REMARK  Name = 75366989
REMARK  13 active torsions:
REMARK  status: ('A' for Active; 'I' for Inactive)
REMARK    1  A    between atoms: O_2  and  C_10
REMARK    2  A    between atoms: O_4  and  C_22
REMARK    3  A    between atoms: N_5  and  C_14
REMARK    4  A    between atoms: N_5  and  C_16
REMARK    5  A    between atoms: N_7  and  C_20
REMARK    6  A    between atoms: N_7  and  C_21
REMARK    7  A    between atoms: N_7  and  C_24
REMARK    8  A    between atoms: C_8  and  C_14
REMARK    9  A    between atoms: C_9  and  C_13
REMARK   10  A    between atoms: C_13  and  C_15
REMARK   11  A    between atoms: C_16  and  C_19
REMARK   12  A    between atoms: C_18  and  C_20
REMARK   13  A    between atoms: C_21  and  C_25
REMARK                            x       y       z     vdW  Elec       q    Type
REMARK                         _______ _______ _______ _____ _____    ______ ____
ROOT
ATOM      1  O   UNL     1     -12.303   8.150  14.647  0.00  0.00    -0.369 OA
ATOM      8  C   UNL     1     -11.159   8.860  15.142  0.00  0.00    +0.161 C 
ATOM      9  C   UNL     1     -13.556   8.551  15.206  0.00  0.00    +0.125 C 
ATOM     10  C   UNL     1     -11.321  10.375  14.959  0.00  0.00    +0.145 C 
ATOM     11  C   UNL     1     -13.813  10.035  14.943  0.00  0.00    +0.034 C 
ATOM     12  C   UNL     1     -12.663  10.883  15.480  0.00  0.00    +0.036 C 
ENDROOT
BRANCH  10   2
ATOM      2  O   UNL     1     -11.249  10.681  13.565  0.00  0.00    -0.389 OA
ATOM     35  H   UNL     1     -11.943  10.169  13.115  0.00  0.00    +0.210 HD
ENDBRANCH  10   2
BRANCH   9  13
ATOM     13  C   UNL     1     -14.639   7.692  14.565  0.00  0.00    +0.090 C 
BRANCH  13  15
ATOM      3  O   UNL     1     -17.331   6.124  16.377  0.00  0.00    -0.358 OA
ATOM      6  N   UNL     1     -16.573   6.324  15.229  0.00  0.00    -0.083 NA
ATOM     15  C   UNL     1     -15.653   7.228  15.577  0.00  0.00    +0.086 A 
ATOM     17  C   UNL     1     -15.781   7.632  16.917  0.00  0.00    +0.072 A 
ATOM     18  C   UNL     1     -16.850   6.908  17.375  0.00  0.00    +0.151 A 
BRANCH  18  20
ATOM     20  C   UNL     1     -17.539   6.821  18.668  0.00  0.00    +0.161 C 
BRANCH  20   7
ATOM      7  N   UNL     1     -16.765   6.096  19.690  0.00  0.00    -0.294 NA
ATOM     24  C   UNL     1     -17.618   5.125  20.367  0.00  0.00    +0.105 C 
BRANCH   7  21
ATOM     21  C   UNL     1     -16.193   7.038  20.646  0.00  0.00    +0.119 C 
BRANCH  21  25
ATOM     25  C   UNL     1     -14.698   6.896  20.747  0.00  0.00    -0.033 A 
ATOM     29  C   UNL     1     -13.866   7.697  19.966  0.00  0.00    +0.005 A 
ATOM     30  C   UNL     1     -14.145   5.961  21.623  0.00  0.00    +0.005 A 
ATOM     31  C   UNL     1     -12.480   7.564  20.061  0.00  0.00    +0.000 A 
ATOM     32  C   UNL     1     -12.760   5.829  21.719  0.00  0.00    +0.000 A 
ATOM     33  C   UNL     1     -11.927   6.630  20.937  0.00  0.00    +0.000 A 
ENDBRANCH  21  25
ENDBRANCH   7  21
ENDBRANCH  20   7
ENDBRANCH  18  20
ENDBRANCH  13  15
ENDBRANCH   9  13
BRANCH   8  14
ATOM     14  C   UNL     1     -10.845   8.463  16.584  0.00  0.00    +0.115 C 
BRANCH  14   5
ATOM      5  N   UNL     1      -9.732   9.240  17.105  0.00  0.00    -0.309 NA
ATOM     34  H   UNL     1      -8.863   8.711  17.036  0.00  0.00    +0.122 HD
BRANCH   5  16
ATOM     16  C   UNL     1      -9.971   9.631  18.488  0.00  0.00    +0.120 C 
BRANCH  16  19
ATOM     19  C   UNL     1     -10.622  10.986  18.583  0.00  0.00    +0.008 A 
ATOM     22  C   UNL     1     -10.091  12.081  17.903  0.00  0.00    +0.121 A 
ATOM     23  C   UNL     1     -11.769  11.138  19.363  0.00  0.00    +0.008 A 
ATOM     26  C   UNL     1     -10.707  13.329  18.002  0.00  0.00    +0.046 A 
ATOM     27  C   UNL     1     -12.385  12.386  19.462  0.00  0.00    +0.001 A 
ATOM     28  C   UNL     1     -11.854  13.481  18.782  0.00  0.00    +0.004 A 
BRANCH  22   4
ATOM      4  O   UNL     1      -8.972  11.950  17.137  0.00  0.00    -0.506 OA
ATOM     36  H   UNL     1      -8.551  11.095  17.334  0.00  0.00    +0.292 HD
ENDBRANCH  22   4
ENDBRANCH  16  19
ENDBRANCH   5  16
ENDBRANCH  14   5
ENDBRANCH   8  14
TORSDOF 12
ENDMDL
MODEL 5
REMARK VINA RESULT:      -6.0     23.247     26.534
REMARK  Name = 75366989
REMARK  13 active torsions:
REMARK  status: ('A' for Active; 'I' for Inactive)
REMARK    1  A    between atoms: O_2  and  C_10
REMARK    2  A    between atoms: O_4  and  C_22
REMARK    3  A    between atoms: N_5  and  C_14
REMARK    4  A    between atoms: N_5  and  C_16
REMARK    5  A    between atoms: N_7  and  C_20
REMARK    6  A    between atoms: N_7  and  C_21
REMARK    7  A    between atoms: N_7  and  C_24
REMARK    8  A    between atoms: C_8  and  C_14
REMARK    9  A    between atoms: C_9  and  C_13
REMARK   10  A    between atoms: C_13  and  C_15
REMARK   11  A    between atoms: C_16  and  C_19
REMARK   12  A    between atoms: C_18  and  C_20
REMARK   13  A    between atoms: C_21  and  C_25
REMARK                            x       y       z     vdW  Elec       q    Type
REMARK                         _______ _______ _______ _____ _____    ______ ____
ROOT
ATOM      1  O   UNL     1      -6.093  -8.529   9.978  0.00  0.00    -0.369 OA
ATOM      8  C   UNL     1      -7.457  -8.970   9.927  0.00  0.00    +0.161 C 
ATOM      9  C   UNL     1      -5.136  -9.452   9.452  0.00  0.00    +0.125 C 
ATOM     10  C   UNL     1      -7.867  -9.349   8.498  0.00  0.00    +0.145 C 
ATOM     11  C   UNL     1      -5.440  -9.767   7.988  0.00  0.00    +0.034 C 
ATOM     12  C   UNL     1      -6.865 -10.291   7.837  0.00  0.00    +0.036 C 
ENDROOT
BRANCH  10   2
ATOM      2  O   UNL     1      -7.936  -8.160   7.708  0.00  0.00    -0.389 OA
ATOM     35  H   UNL     1      -7.528  -7.442   8.222  0.00  0.00    +0.210 HD
ENDBRANCH  10   2
BRANCH   9  13
ATOM     13  C   UNL     1      -3.759  -8.813   9.593  0.00  0.00    +0.090 C 
BRANCH  13  15
ATOM      3  O   UNL     1      -1.193  -9.977  11.840  0.00  0.00    -0.358 OA
ATOM      6  N   UNL     1      -1.647  -9.171  10.803  0.00  0.00    -0.083 NA
ATOM     15  C   UNL     1      -2.932  -9.500  10.647  0.00  0.00    +0.086 A 
ATOM     17  C   UNL     1      -3.341 -10.498  11.549  0.00  0.00    +0.072 A 
ATOM     18  C   UNL     1      -2.211 -10.762  12.276  0.00  0.00    +0.151 A 
BRANCH  18  20
ATOM     20  C   UNL     1      -1.904 -11.682  13.378  0.00  0.00    +0.161 C 
BRANCH  20   7
ATOM      7  N   UNL     1      -2.430 -11.228  14.677  0.00  0.00    -0.294 NA
ATOM     24  C   UNL     1      -1.328 -10.929  15.585  0.00  0.00    +0.105 C 
BRANCH   7  21
ATOM     21  C   UNL     1      -3.308 -12.246  15.244  0.00  0.00    +0.119 C 
BRANCH  21  25
ATOM     25  C   UNL     1      -4.160 -11.695  16.356  0.00  0.00    -0.033 A 
ATOM     29  C   UNL     1      -4.557 -12.521  17.406  0.00  0.00    +0.005 A 
ATOM     30  C   UNL     1      -4.552 -10.355  16.335  0.00  0.00    +0.005 A 
ATOM     31  C   UNL     1      -5.347 -12.009  18.436  0.00  0.00    +0.000 A 
ATOM     32  C   UNL     1      -5.341  -9.844  17.365  0.00  0.00    +0.000 A 
ATOM     33  C   UNL     1      -5.739 -10.671  18.416  0.00  0.00    +0.000 A 
ENDBRANCH  21  25
ENDBRANCH   7  21
ENDBRANCH  20   7
ENDBRANCH  18  20
ENDBRANCH  13  15
ENDBRANCH   9  13
BRANCH   8  14
ATOM     14  C   UNL     1      -7.713 -10.087  10.938  0.00  0.00    +0.115 C 
BRANCH  14   5
ATOM      5  N   UNL     1      -7.876  -9.545  12.278  0.00  0.00    -0.309 NA
ATOM     34  H   UNL     1      -7.829  -8.527  12.261  0.00  0.00    +0.122 HD
BRANCH   5  16
ATOM     16  C   UNL     1      -6.865 -10.078  13.183  0.00  0.00    +0.120 C 
BRANCH  16  19
ATOM     19  C   UNL     1      -7.483 -10.797  14.353  0.00  0.00    +0.008 A 
ATOM     22  C   UNL     1      -8.314 -10.121  15.246  0.00  0.00    +0.121 A 
ATOM     23  C   UNL     1      -7.214 -12.153  14.539  0.00  0.00    +0.008 A 
ATOM     26  C   UNL     1      -8.878 -10.803  16.326  0.00  0.00    +0.046 A 
ATOM     27  C   UNL     1      -7.778 -12.834  15.618  0.00  0.00    +0.001 A 
ATOM     28  C   UNL     1      -8.610 -12.160  16.511  0.00  0.00    +0.004 A 
BRANCH  22   4
ATOM      4  O   UNL     1      -8.587  -8.797  15.080  0.00  0.00    -0.506 OA
ATOM     36  H   UNL     1      -8.159  -8.486  14.263  0.00  0.00    +0.292 HD
ENDBRANCH  22   4
ENDBRANCH  16  19
ENDBRANCH   5  16
ENDBRANCH  14   5
ENDBRANCH   8  14
TORSDOF 12
ENDMDL
MODEL 6
REMARK VINA RESULT:      -6.0      2.793      5.628
REMARK  Name = 75366989
REMARK  13 active torsions:
REMARK  status: ('A' for Active; 'I' for Inactive)
REMARK    1  A    between atoms: O_2  and  C_10
REMARK    2  A    between atoms: O_4  and  C_22
REMARK    3  A    between atoms: N_5  and  C_14
REMARK    4  A    between atoms: N_5  and  C_16
REMARK    5  A    between atoms: N_7  and  C_20
REMARK    6  A    between atoms: N_7  and  C_21
REMARK    7  A    between atoms: N_7  and  C_24
REMARK    8  A    between atoms: C_8  and  C_14
REMARK    9  A    between atoms: C_9  and  C_13
REMARK   10  A    between atoms: C_13  and  C_15
REMARK   11  A    between atoms: C_16  and  C_19
REMARK   12  A    between atoms: C_18  and  C_20
REMARK   13  A    between atoms: C_21  and  C_25
REMARK                            x       y       z     vdW  Elec       q    Type
REMARK                         _______ _______ _______ _____ _____    ______ ____
ROOT
ATOM      1  O   UNL     1      12.648   2.774   0.503  0.00  0.00    -0.369 OA
ATOM      8  C   UNL     1      12.927   3.553   1.674  0.00  0.00    +0.161 C 
ATOM      9  C   UNL     1      12.882   3.439  -0.741  0.00  0.00    +0.125 C 
ATOM     10  C   UNL     1      14.366   4.086   1.659  0.00  0.00    +0.145 C 
ATOM     11  C   UNL     1      14.340   3.885  -0.847  0.00  0.00    +0.034 C 
ATOM     12  C   UNL     1      14.721   4.766   0.340  0.00  0.00    +0.036 C 
ENDROOT
BRANCH  10   2
ATOM      2  O   UNL     1      15.265   2.990   1.842  0.00  0.00    -0.389 OA
ATOM     35  H   UNL     1      15.535   2.681   0.961  0.00  0.00    +0.210 HD
ENDBRANCH  10   2
BRANCH   9  13
ATOM     13  C   UNL     1      12.532   2.462  -1.856  0.00  0.00    +0.090 C 
BRANCH  13  15
ATOM      3  O   UNL     1       9.271   2.643  -3.379  0.00  0.00    -0.358 OA
ATOM      6  N   UNL     1      10.274   1.965  -2.698  0.00  0.00    -0.083 NA
ATOM     15  C   UNL     1      11.261   2.855  -2.562  0.00  0.00    +0.086 A 
ATOM     17  C   UNL     1      10.941   4.098  -3.134  0.00  0.00    +0.072 A 
ATOM     18  C   UNL     1       9.679   3.912  -3.633  0.00  0.00    +0.151 A 
BRANCH  18  20
ATOM     20  C   UNL     1       8.734   4.775  -4.352  0.00  0.00    +0.161 C 
BRANCH  20   7
ATOM      7  N   UNL     1       8.041   5.733  -3.475  0.00  0.00    -0.294 NA
ATOM     24  C   UNL     1       6.688   5.973  -3.968  0.00  0.00    +0.105 C 
BRANCH   7  21
ATOM     21  C   UNL     1       8.794   6.980  -3.402  0.00  0.00    +0.119 C 
BRANCH  21  25
ATOM     25  C   UNL     1       8.917   7.478  -1.986  0.00  0.00    -0.033 A 
ATOM     29  C   UNL     1       9.743   6.814  -1.081  0.00  0.00    +0.005 A 
ATOM     30  C   UNL     1       8.203   8.607  -1.581  0.00  0.00    +0.005 A 
ATOM     31  C   UNL     1       9.855   7.277   0.230  0.00  0.00    +0.000 A 
ATOM     32  C   UNL     1       8.316   9.070  -0.270  0.00  0.00    +0.000 A 
ATOM     33  C   UNL     1       9.142   8.405   0.636  0.00  0.00    +0.000 A 
ENDBRANCH  21  25
ENDBRANCH   7  21
ENDBRANCH  20   7
ENDBRANCH  18  20
ENDBRANCH  13  15
ENDBRANCH   9  13
BRANCH   8  14
ATOM     14  C   UNL     1      11.884   4.654   1.864  0.00  0.00    +0.115 C 
BRANCH  14   5
ATOM      5  N   UNL     1      11.773   5.027   3.265  0.00  0.00    -0.309 NA
ATOM     34  H   UNL     1      12.616   4.760   3.774  0.00  0.00    +0.122 HD
BRANCH   5  16
ATOM     16  C   UNL     1      10.603   4.411   3.878  0.00  0.00    +0.120 C 
BRANCH  16  19
ATOM     19  C   UNL     1       9.965   5.314   4.901  0.00  0.00    +0.008 A 
ATOM     22  C   UNL     1       9.776   4.881   6.213  0.00  0.00    +0.121 A 
ATOM     23  C   UNL     1       9.562   6.594   4.523  0.00  0.00    +0.008 A 
ATOM     26  C   UNL     1       9.183   5.730   7.148  0.00  0.00    +0.046 A 
ATOM     27  C   UNL     1       8.969   7.444   5.458  0.00  0.00    +0.001 A 
ATOM     28  C   UNL     1       8.780   7.012   6.770  0.00  0.00    +0.004 A 
BRANCH  22   4
ATOM      4  O   UNL     1      10.164   3.634   6.599  0.00  0.00    -0.506 OA
ATOM     36  H   UNL     1      10.070   3.557   7.564  0.00  0.00    +0.292 HD
ENDBRANCH  22   4
ENDBRANCH  16  19
ENDBRANCH   5  16
ENDBRANCH  14   5
ENDBRANCH   8  14
TORSDOF 12
ENDMDL
MODEL 7
REMARK VINA RESULT:      -6.0     24.125     27.567
REMARK  Name = 75366989
REMARK  13 active torsions:
REMARK  status: ('A' for Active; 'I' for Inactive)
REMARK    1  A    between atoms: O_2  and  C_10
REMARK    2  A    between atoms: O_4  and  C_22
REMARK    3  A    between atoms: N_5  and  C_14
REMARK    4  A    between atoms: N_5  and  C_16
REMARK    5  A    between atoms: N_7  and  C_20
REMARK    6  A    between atoms: N_7  and  C_21
REMARK    7  A    between atoms: N_7  and  C_24
REMARK    8  A    between atoms: C_8  and  C_14
REMARK    9  A    between atoms: C_9  and  C_13
REMARK   10  A    between atoms: C_13  and  C_15
REMARK   11  A    between atoms: C_16  and  C_19
REMARK   12  A    between atoms: C_18  and  C_20
REMARK   13  A    between atoms: C_21  and  C_25
REMARK                            x       y       z     vdW  Elec       q    Type
REMARK                         _______ _______ _______ _____ _____    ______ ____
ROOT
ATOM      1  O   UNL     1      -4.659 -10.998  11.297  0.00  0.00    -0.369 OA
ATOM      8  C   UNL     1      -3.519 -10.520  10.569  0.00  0.00    +0.161 C 
ATOM      9  C   UNL     1      -5.355 -10.006  12.055  0.00  0.00    +0.125 C 
ATOM     10  C   UNL     1      -3.897  -9.360   9.639  0.00  0.00    +0.145 C 
ATOM     11  C   UNL     1      -5.854  -8.884  11.144  0.00  0.00    +0.034 C 
ATOM     12  C   UNL     1      -4.697  -8.277  10.357  0.00  0.00    +0.036 C 
ENDROOT
BRANCH  10   2
ATOM      2  O   UNL     1      -4.705  -9.868   8.575  0.00  0.00    -0.389 OA
ATOM     35  H   UNL     1      -4.691 -10.838   8.633  0.00  0.00    +0.210 HD
ENDBRANCH  10   2
BRANCH   9  13
ATOM     13  C   UNL     1      -6.522 -10.697  12.751  0.00  0.00    +0.090 C 
BRANCH  13  15
ATOM      3  O   UNL     1      -6.126  -9.473  16.117  0.00  0.00    -0.358 OA
ATOM      6  N   UNL     1      -5.620  -9.869  14.885  0.00  0.00    -0.083 NA
ATOM     15  C   UNL     1      -6.692 -10.212  14.166  0.00  0.00    +0.086 A 
ATOM     17  C   UNL     1      -7.889 -10.055  14.885  0.00  0.00    +0.072 A 
ATOM     18  C   UNL     1      -7.478  -9.588  16.105  0.00  0.00    +0.151 A 
BRANCH  18  20
ATOM     20  C   UNL     1      -8.179  -9.208  17.337  0.00  0.00    +0.161 C 
BRANCH  20   7
ATOM      7  N   UNL     1      -8.886 -10.334  17.973  0.00  0.00    -0.294 NA
ATOM     24  C   UNL     1     -10.266  -9.958  18.261  0.00  0.00    +0.105 C 
BRANCH   7  21
ATOM     21  C   UNL     1      -8.193 -10.734  19.193  0.00  0.00    +0.119 C 
BRANCH  21  25
ATOM     25  C   UNL     1      -6.939 -11.512  18.895  0.00  0.00    -0.033 A 
ATOM     29  C   UNL     1      -5.721 -11.109  19.441  0.00  0.00    +0.005 A 
ATOM     30  C   UNL     1      -6.996 -12.637  18.072  0.00  0.00    +0.005 A 
ATOM     31  C   UNL     1      -4.559 -11.831  19.165  0.00  0.00    +0.000 A 
ATOM     32  C   UNL     1      -5.834 -13.359  17.796  0.00  0.00    +0.000 A 
ATOM     33  C   UNL     1      -4.616 -12.956  18.342  0.00  0.00    +0.000 A 
ENDBRANCH  21  25
ENDBRANCH   7  21
ENDBRANCH  20   7
ENDBRANCH  18  20
ENDBRANCH  13  15
ENDBRANCH   9  13
BRANCH   8  14
ATOM     14  C   UNL     1      -2.367 -10.177  11.514  0.00  0.00    +0.115 C 
BRANCH  14   5
ATOM      5  N   UNL     1      -1.796 -11.383  12.093  0.00  0.00    -0.309 NA
ATOM     34  H   UNL     1      -2.153 -12.212  11.619  0.00  0.00    +0.122 HD
BRANCH   5  16
ATOM     16  C   UNL     1      -2.081 -11.462  13.520  0.00  0.00    +0.120 C 
BRANCH  16  19
ATOM     19  C   UNL     1      -2.546 -12.836  13.925  0.00  0.00    +0.008 A 
ATOM     22  C   UNL     1      -1.715 -13.944  13.767  0.00  0.00    +0.121 A 
ATOM     23  C   UNL     1      -3.824 -12.993  14.460  0.00  0.00    +0.008 A 
ATOM     26  C   UNL     1      -2.162 -15.211  14.146  0.00  0.00    +0.046 A 
ATOM     27  C   UNL     1      -4.271 -14.259  14.839  0.00  0.00    +0.001 A 
ATOM     28  C   UNL     1      -3.440 -15.367  14.682  0.00  0.00    +0.004 A 
BRANCH  22   4
ATOM      4  O   UNL     1      -0.464 -13.809  13.245  0.00  0.00    -0.506 OA
ATOM     36  H   UNL     1      -0.089 -12.960  13.537  0.00  0.00    +0.292 HD
ENDBRANCH  22   4
ENDBRANCH  16  19
ENDBRANCH   5  16
ENDBRANCH  14   5
ENDBRANCH   8  14
TORSDOF 12
ENDMDL
MODEL 8
REMARK VINA RESULT:      -5.9     18.936     22.938
REMARK  Name = 75366989
REMARK  13 active torsions:
REMARK  status: ('A' for Active; 'I' for Inactive)
REMARK    1  A    between atoms: O_2  and  C_10
REMARK    2  A    between atoms: O_4  and  C_22
REMARK    3  A    between atoms: N_5  and  C_14
REMARK    4  A    between atoms: N_5  and  C_16
REMARK    5  A    between atoms: N_7  and  C_20
REMARK    6  A    between atoms: N_7  and  C_21
REMARK    7  A    between atoms: N_7  and  C_24
REMARK    8  A    between atoms: C_8  and  C_14
REMARK    9  A    between atoms: C_9  and  C_13
REMARK   10  A    between atoms: C_13  and  C_15
REMARK   11  A    between atoms: C_16  and  C_19
REMARK   12  A    between atoms: C_18  and  C_20
REMARK   13  A    between atoms: C_21  and  C_25
REMARK                            x       y       z     vdW  Elec       q    Type
REMARK                         _______ _______ _______ _____ _____    ______ ____
ROOT
ATOM      1  O   UNL     1      23.922   3.735  22.757  0.00  0.00    -0.369 OA
ATOM      8  C   UNL     1      23.628   4.296  21.470  0.00  0.00    +0.161 C 
ATOM      9  C   UNL     1      23.790   2.315  22.845  0.00  0.00    +0.125 C 
ATOM     10  C   UNL     1      24.482   3.649  20.372  0.00  0.00    +0.145 C 
ATOM     11  C   UNL     1      24.716   1.624  21.845  0.00  0.00    +0.034 C 
ATOM     12  C   UNL     1      24.444   2.124  20.428  0.00  0.00    +0.036 C 
ENDROOT
BRANCH  10   2
ATOM      2  O   UNL     1      25.841   4.059  20.543  0.00  0.00    -0.389 OA
ATOM     35  H   UNL     1      26.358   3.272  20.784  0.00  0.00    +0.210 HD
ENDBRANCH  10   2
BRANCH   9  13
ATOM     13  C   UNL     1      24.138   1.911  24.273  0.00  0.00    +0.090 C 
BRANCH  13  15
ATOM      3  O   UNL     1      21.216   0.198  25.504  0.00  0.00    -0.358 OA
ATOM      6  N   UNL     1      21.855   1.307  24.963  0.00  0.00    -0.083 NA
ATOM     15  C   UNL     1      23.134   0.942  24.839  0.00  0.00    +0.086 A 
ATOM     17  C   UNL     1      23.359  -0.373  25.281  0.00  0.00    +0.072 A 
ATOM     18  C   UNL     1      22.122  -0.796  25.689  0.00  0.00    +0.151 A 
BRANCH  18  20
ATOM     20  C   UNL     1      21.613  -2.050  26.257  0.00  0.00    +0.161 C 
BRANCH  20   7
ATOM      7  N   UNL     1      20.192  -1.979  26.640  0.00  0.00    -0.294 NA
ATOM     24  C   UNL     1      20.057  -2.119  28.086  0.00  0.00    +0.105 C 
BRANCH   7  21
ATOM     21  C   UNL     1      19.435  -3.015  25.945  0.00  0.00    +0.119 C 
BRANCH  21  25
ATOM     25  C   UNL     1      18.668  -2.459  24.775  0.00  0.00    -0.033 A 
ATOM     29  C   UNL     1      18.697  -3.116  23.546  0.00  0.00    +0.005 A 
ATOM     30  C   UNL     1      17.927  -1.286  24.922  0.00  0.00    +0.005 A 
ATOM     31  C   UNL     1      17.986  -2.600  22.462  0.00  0.00    +0.000 A 
ATOM     32  C   UNL     1      17.215  -0.770  23.838  0.00  0.00    +0.000 A 
ATOM     33  C   UNL     1      17.245  -1.428  22.608  0.00  0.00    +0.000 A 
ENDBRANCH  21  25
ENDBRANCH   7  21
ENDBRANCH  20   7
ENDBRANCH  18  20
ENDBRANCH  13  15
ENDBRANCH   9  13
BRANCH   8  14
ATOM     14  C   UNL     1      22.130   4.238  21.173  0.00  0.00    +0.115 C 
BRANCH  14   5
ATOM      5  N   UNL     1      21.591   5.573  20.967  0.00  0.00    -0.309 NA
ATOM     34  H   UNL     1      22.339   6.266  20.970  0.00  0.00    +0.122 HD
BRANCH   5  16
ATOM     16  C   UNL     1      20.603   5.900  21.988  0.00  0.00    +0.120 C 
BRANCH  16  19
ATOM     19  C   UNL     1      19.371   6.530  21.394  0.00  0.00    +0.008 A 
ATOM     22  C   UNL     1      18.722   5.940  20.309  0.00  0.00    +0.121 A 
ATOM     23  C   UNL     1      18.880   7.715  21.940  0.00  0.00    +0.008 A 
ATOM     26  C   UNL     1      17.582   6.537  19.770  0.00  0.00    +0.046 A 
ATOM     27  C   UNL     1      17.740   8.312  21.401  0.00  0.00    +0.001 A 
ATOM     28  C   UNL     1      17.091   7.723  20.317  0.00  0.00    +0.004 A 
BRANCH  22   4
ATOM      4  O   UNL     1      19.188   4.782  19.763  0.00  0.00    -0.506 OA
ATOM     36  H   UNL     1      19.490   4.195  20.478  0.00  0.00    +0.292 HD
ENDBRANCH  22   4
ENDBRANCH  16  19
ENDBRANCH   5  16
ENDBRANCH  14   5
ENDBRANCH   8  14
TORSDOF 12
ENDMDL
MODEL 9
REMARK VINA RESULT:      -5.9      2.100      6.113
REMARK  Name = 75366989
REMARK  13 active torsions:
REMARK  status: ('A' for Active; 'I' for Inactive)
REMARK    1  A    between atoms: O_2  and  C_10
REMARK    2  A    between atoms: O_4  and  C_22
REMARK    3  A    between atoms: N_5  and  C_14
REMARK    4  A    between atoms: N_5  and  C_16
REMARK    5  A    between atoms: N_7  and  C_20
REMARK    6  A    between atoms: N_7  and  C_21
REMARK    7  A    between atoms: N_7  and  C_24
REMARK    8  A    between atoms: C_8  and  C_14
REMARK    9  A    between atoms: C_9  and  C_13
REMARK   10  A    between atoms: C_13  and  C_15
REMARK   11  A    between atoms: C_16  and  C_19
REMARK   12  A    between atoms: C_18  and  C_20
REMARK   13  A    between atoms: C_21  and  C_25
REMARK                            x       y       z     vdW  Elec       q    Type
REMARK                         _______ _______ _______ _____ _____    ______ ____
ROOT
ATOM      1  O   UNL     1      12.178   5.881   1.801  0.00  0.00    -0.369 OA
ATOM      8  C   UNL     1      11.000   5.070   1.917  0.00  0.00    +0.161 C 
ATOM      9  C   UNL     1      13.176   5.379   0.909  0.00  0.00    +0.125 C 
ATOM     10  C   UNL     1      10.359   4.818   0.546  0.00  0.00    +0.145 C 
ATOM     11  C   UNL     1      12.609   5.224  -0.502  0.00  0.00    +0.034 C 
ATOM     12  C   UNL     1      11.371   4.332  -0.488  0.00  0.00    +0.036 C 
ENDROOT
BRANCH  10   2
ATOM      2  O   UNL     1       9.800   6.043   0.067  0.00  0.00    -0.389 OA
ATOM     35  H   UNL     1       9.339   5.850  -0.767  0.00  0.00    +0.210 HD
ENDBRANCH  10   2
BRANCH   9  13
ATOM     13  C   UNL     1      14.338   6.365   0.920  0.00  0.00    +0.090 C 
BRANCH  13  15
ATOM      3  O   UNL     1      14.663   7.835   4.195  0.00  0.00    -0.358 OA
ATOM      6  N   UNL     1      14.851   6.799   3.287  0.00  0.00    -0.083 NA
ATOM     15  C   UNL     1      14.314   7.239   2.145  0.00  0.00    +0.086 A 
ATOM     17  C   UNL     1      13.778   8.532   2.272  0.00  0.00    +0.072 A 
ATOM     18  C   UNL     1      14.023   8.861   3.578  0.00  0.00    +0.151 A 
BRANCH  18  20
ATOM     20  C   UNL     1      13.743  10.046   4.398  0.00  0.00    +0.161 C 
BRANCH  20   7
ATOM      7  N   UNL     1      12.407  10.616   4.156  0.00  0.00    -0.294 NA
ATOM     24  C   UNL     1      12.503  12.063   3.994  0.00  0.00    +0.105 C 
BRANCH   7  21
ATOM     21  C   UNL     1      11.512  10.276   5.257  0.00  0.00    +0.119 C 
BRANCH  21  25
ATOM     25  C   UNL     1      10.253   9.610   4.769  0.00  0.00    -0.033 A 
ATOM     29  C   UNL     1      10.248   8.934   3.550  0.00  0.00    +0.005 A 
ATOM     30  C   UNL     1       9.090   9.669   5.539  0.00  0.00    +0.005 A 
ATOM     31  C   UNL     1       9.080   8.317   3.100  0.00  0.00    +0.000 A 
ATOM     32  C   UNL     1       7.923   9.051   5.089  0.00  0.00    +0.000 A 
ATOM     33  C   UNL     1       7.918   8.375   3.869  0.00  0.00    +0.000 A 
ENDBRANCH  21  25
ENDBRANCH   7  21
ENDBRANCH  20   7
ENDBRANCH  18  20
ENDBRANCH  13  15
ENDBRANCH   9  13
BRANCH   8  14
ATOM     14  C   UNL     1      11.292   3.782   2.685  0.00  0.00    +0.115 C 
BRANCH  14   5
ATOM      5  N   UNL     1      10.917   3.917   4.084  0.00  0.00    -0.309 NA
ATOM     34  H   UNL     1      10.571   3.031   4.449  0.00  0.00    +0.122 HD
BRANCH   5  16
ATOM     16  C   UNL     1       9.911   4.957   4.257  0.00  0.00    +0.120 C 
BRANCH  16  19
ATOM     19  C   UNL     1      10.106   5.719   5.541  0.00  0.00    +0.008 A 
ATOM     22  C   UNL     1      11.335   6.307   5.840  0.00  0.00    +0.121 A 
ATOM     23  C   UNL     1       9.042   5.831   6.436  0.00  0.00    +0.008 A 
ATOM     26  C   UNL     1      11.499   7.009   7.035  0.00  0.00    +0.046 A 
ATOM     27  C   UNL     1       9.207   6.533   7.631  0.00  0.00    +0.001 A 
ATOM     28  C   UNL     1      10.434   7.122   7.930  0.00  0.00    +0.004 A 
BRANCH  22   4
ATOM      4  O   UNL     1      12.384   6.207   4.977  0.00  0.00    -0.506 OA
ATOM     36  H   UNL     1      13.199   6.477   5.437  0.00  0.00    +0.292 HD
ENDBRANCH  22   4
ENDBRANCH  16  19
ENDBRANCH   5  16
ENDBRANCH  14   5
ENDBRANCH   8  14
TORSDOF 12
ENDMDL
MODEL 10
REMARK VINA RESULT:      -5.8      1.970      5.134
REMARK  Name = 75366989
REMARK  13 active torsions:
REMARK  status: ('A' for Active; 'I' for Inactive)
REMARK    1  A    between atoms: O_2  and  C_10
REMARK    2  A    between atoms: O_4  and  C_22
REMARK    3  A    between atoms: N_5  and  C_14
REMARK    4  A    between atoms: N_5  and  C_16
REMARK    5  A    between atoms: N_7  and  C_20
REMARK    6  A    between atoms: N_7  and  C_21
REMARK    7  A    between atoms: N_7  and  C_24
REMARK    8  A    between atoms: C_8  and  C_14
REMARK    9  A    between atoms: C_9  and  C_13
REMARK   10  A    between atoms: C_13  and  C_15
REMARK   11  A    between atoms: C_16  and  C_19
REMARK   12  A    between atoms: C_18  and  C_20
REMARK   13  A    between atoms: C_21  and  C_25
REMARK                            x       y       z     vdW  Elec       q    Type
REMARK                         _______ _______ _______ _____ _____    ______ ____
ROOT
ATOM      1  O   UNL     1      10.786   7.339   5.379  0.00  0.00    -0.369 OA
ATOM      8  C   UNL     1      11.096   7.570   6.760  0.00  0.00    +0.161 C 
ATOM      9  C   UNL     1      10.351   6.013   5.067  0.00  0.00    +0.125 C 
ATOM     10  C   UNL     1       9.909   7.212   7.665  0.00  0.00    +0.145 C 
ATOM     11  C   UNL     1       9.096   5.657   5.864  0.00  0.00    +0.034 C 
ATOM     12  C   UNL     1       9.343   5.828   7.360  0.00  0.00    +0.036 C 
ENDROOT
BRANCH  10   2
ATOM      2  O   UNL     1       8.867   8.167   7.456  0.00  0.00    -0.389 OA
ATOM     35  H   UNL     1       8.081   7.683   7.150  0.00  0.00    +0.210 HD
ENDBRANCH  10   2
BRANCH   9  13
ATOM     13  C   UNL     1      10.074   5.962   3.569  0.00  0.00    +0.090 C 
BRANCH  13  15
ATOM      3  O   UNL     1      13.242   5.135   2.065  0.00  0.00    -0.358 OA
ATOM      6  N   UNL     1      12.429   5.936   2.857  0.00  0.00    -0.083 NA
ATOM     15  C   UNL     1      11.225   5.358   2.811  0.00  0.00    +0.086 A 
ATOM     17  C   UNL     1      11.219   4.201   2.012  0.00  0.00    +0.072 A 
ATOM     18  C   UNL     1      12.511   4.106   1.567  0.00  0.00    +0.151 A 
BRANCH  18  20
ATOM     20  C   UNL     1      13.220   3.155   0.702  0.00  0.00    +0.161 C 
BRANCH  20   7
ATOM      7  N   UNL     1      13.251   3.568  -0.711  0.00  0.00    -0.294 NA
ATOM     24  C   UNL     1      14.512   4.238  -1.009  0.00  0.00    +0.105 C 
BRANCH   7  21
ATOM     21  C   UNL     1      12.118   4.439  -1.002  0.00  0.00    +0.119 C 
BRANCH  21  25
ATOM     25  C   UNL     1      11.172   3.817  -1.995  0.00  0.00    -0.033 A 
ATOM     29  C   UNL     1      10.206   4.601  -2.623  0.00  0.00    +0.005 A 
ATOM     30  C   UNL     1      11.265   2.456  -2.286  0.00  0.00    +0.005 A 
ATOM     31  C   UNL     1       9.330   4.023  -3.543  0.00  0.00    +0.000 A 
ATOM     32  C   UNL     1      10.389   1.878  -3.206  0.00  0.00    +0.000 A 
ATOM     33  C   UNL     1       9.421   2.662  -3.835  0.00  0.00    +0.000 A 
ENDBRANCH  21  25
ENDBRANCH   7  21
ENDBRANCH  20   7
ENDBRANCH  18  20
ENDBRANCH  13  15
ENDBRANCH   9  13
BRANCH   8  14
ATOM     14  C   UNL     1      12.388   6.860   7.161  0.00  0.00    +0.115 C 
BRANCH  14   5
ATOM      5  N   UNL     1      13.316   6.802   6.042  0.00  0.00    -0.309 NA
ATOM     34  H   UNL     1      13.285   5.885   5.600  0.00  0.00    +0.122 HD
BRANCH   5  16
ATOM     16  C   UNL     1      14.675   7.104   6.475  0.00  0.00    +0.120 C 
BRANCH  16  19
ATOM     19  C   UNL     1      15.410   7.946   5.466  0.00  0.00    +0.008 A 
ATOM     22  C   UNL     1      15.725   7.435   4.206  0.00  0.00    +0.121 A 
ATOM     23  C   UNL     1      15.778   9.248   5.802  0.00  0.00    +0.008 A 
ATOM     26  C   UNL     1      16.408   8.228   3.283  0.00  0.00    +0.046 A 
ATOM     27  C   UNL     1      16.461  10.041   4.880  0.00  0.00    +0.001 A 
ATOM     28  C   UNL     1      16.775   9.532   3.621  0.00  0.00    +0.004 A 
BRANCH  22   4
ATOM      4  O   UNL     1      15.373   6.165   3.861  0.00  0.00    -0.506 OA
ATOM     36  H   UNL     1      14.685   5.850   4.473  0.00  0.00    +0.292 HD
ENDBRANCH  22   4
ENDBRANCH  16  19
ENDBRANCH   5  16
ENDBRANCH  14   5
ENDBRANCH   8  14
TORSDOF 12
ENDMDL
