MODEL 1
REMARK VINA RESULT:      -9.1      0.000      0.000
REMARK  Name = 26745160
REMARK  4 active torsions:
REMARK  status: ('A' for Active; 'I' for Inactive)
REMARK    1  A    between atoms: N_10  and  C_22
REMARK    2  A    between atoms: N_12  and  C_28
REMARK    3  A    between atoms: C_13  and  C_18
REMARK    4  A    between atoms: C_21  and  C_23
REMARK                            x       y       z     vdW  Elec       q    Type
REMARK                         _______ _______ _______ _____ _____    ______ ____
ROOT
ATOM      3  O   UNL     1      11.840   9.213  21.751  0.00  0.00    -0.252 OA
ATOM      6  N   UNL     1      12.856   9.730  19.727  0.00  0.00    -0.267 N 
ATOM      7  N   UNL     1      13.527  11.015  16.277  0.00  0.00    -0.347 N 
ATOM      8  N   UNL     1      12.657   9.068  15.612  0.00  0.00    -0.240 NA
ATOM     10  N   UNL     1      12.485  11.408  21.349  0.00  0.00    -0.269 N 
ATOM     13  C   UNL     1      12.891   8.282  19.320  0.00  0.00    +0.172 C 
ATOM     14  C   UNL     1      12.277   8.062  17.904  0.00  0.00    +0.089 C 
ATOM     15  C   UNL     1      13.467  10.734  18.808  0.00  0.00    +0.165 C 
ATOM     16  C   UNL     1      12.715   9.125  16.976  0.00  0.00    +0.066 A 
ATOM     17  C   UNL     1      13.244  10.314  17.411  0.00  0.00    +0.056 A 
ATOM     19  C   UNL     1      12.340  10.061  21.009  0.00  0.00    +0.307 C 
ATOM     20  C   UNL     1      13.155  10.224  15.219  0.00  0.00    +0.197 A 
ATOM     34  H   UNL     1      13.933  11.941  16.220  0.00  0.00    +0.167 HD
ATOM     35  H   UNL     1      13.257  11.921  20.935  0.00  0.00    +0.156 HD
ENDROOT
BRANCH  10  22
ATOM      1  F   UNL     1      10.525  12.282  25.647  0.00  0.00    -0.205 F 
ATOM     22  C   UNL     1      11.641  12.181  22.185  0.00  0.00    +0.037 A 
ATOM     25  C   UNL     1      11.495  11.845  23.531  0.00  0.00    +0.061 A 
ATOM     26  C   UNL     1      10.953  13.276  21.662  0.00  0.00    +0.023 A 
ATOM     30  C   UNL     1      10.664  12.604  24.353  0.00  0.00    +0.125 A 
ATOM     31  C   UNL     1      10.121  14.036  22.485  0.00  0.00    +0.005 A 
ATOM     33  C   UNL     1       9.977  13.699  23.831  0.00  0.00    +0.038 A 
ENDBRANCH  10  22
BRANCH  13  18
ATOM      2  O   UNL     1      14.514   6.460  19.041  0.00  0.00    -0.336 OA
ATOM      9  N   UNL     1      15.301   8.211  20.195  0.00  0.00    -0.190 NA
ATOM     11  N   UNL     1      15.833   6.138  19.383  0.00  0.00    -0.056 NA
ATOM     18  C   UNL     1      14.281   7.695  19.558  0.00  0.00    +0.249 A 
ATOM     21  C   UNL     1      16.230   7.219  20.062  0.00  0.00    +0.202 A 
BRANCH  21  23
ATOM     23  C   UNL     1      17.547   7.340  20.618  0.00  0.00    +0.025 A 
ATOM     24  C   UNL     1      18.533   6.412  20.287  0.00  0.00    +0.044 A 
ATOM     27  C   UNL     1      17.840   8.388  21.491  0.00  0.00    +0.012 A 
ATOM     28  C   UNL     1      19.813   6.530  20.828  0.00  0.00    +0.127 A 
ATOM     29  C   UNL     1      19.119   8.506  22.034  0.00  0.00    +0.003 A 
ATOM     32  C   UNL     1      20.106   7.578  21.702  0.00  0.00    +0.033 A 
BRANCH  28  12
ATOM      4  O   UNL     1      22.002   5.978  20.359  0.00  0.00    -0.126 OA
ATOM      5  O   UNL     1      20.493   4.382  20.336  0.00  0.00    -0.126 OA
ATOM     12  N   UNL     1      20.818   5.585  20.492  0.00  0.00    +0.056 N 
ENDBRANCH  28  12
ENDBRANCH  21  23
ENDBRANCH  13  18
TORSDOF 4
ENDMDL
MODEL 2
REMARK VINA RESULT:      -8.5      3.835      8.575
REMARK  Name = 26745160
REMARK  4 active torsions:
REMARK  status: ('A' for Active; 'I' for Inactive)
REMARK    1  A    between atoms: N_10  and  C_22
REMARK    2  A    between atoms: N_12  and  C_28
REMARK    3  A    between atoms: C_13  and  C_18
REMARK    4  A    between atoms: C_21  and  C_23
REMARK                            x       y       z     vdW  Elec       q    Type
REMARK                         _______ _______ _______ _____ _____    ______ ____
ROOT
ATOM      3  O   UNL     1      16.076   6.043  18.940  0.00  0.00    -0.252 OA
ATOM      6  N   UNL     1      14.575   7.491  19.963  0.00  0.00    -0.267 N 
ATOM      7  N   UNL     1      12.375   9.194  22.465  0.00  0.00    -0.347 N 
ATOM      8  N   UNL     1      10.854   7.682  21.842  0.00  0.00    -0.240 NA
ATOM     10  N   UNL     1      16.888   7.635  20.425  0.00  0.00    -0.269 N 
ATOM     13  C   UNL     1      13.429   6.956  19.148  0.00  0.00    +0.172 C 
ATOM     14  C   UNL     1      12.222   6.542  20.042  0.00  0.00    +0.089 C 
ATOM     15  C   UNL     1      14.303   8.616  20.904  0.00  0.00    +0.165 C 
ATOM     16  C   UNL     1      11.998   7.541  21.108  0.00  0.00    +0.066 A 
ATOM     17  C   UNL     1      12.951   8.457  21.474  0.00  0.00    +0.056 A 
ATOM     19  C   UNL     1      15.877   6.974  19.724  0.00  0.00    +0.307 C 
ATOM     20  C   UNL     1      11.113   8.688  22.652  0.00  0.00    +0.197 A 
ATOM     34  H   UNL     1      12.792   9.966  22.970  0.00  0.00    +0.167 HD
ATOM     35  H   UNL     1      16.736   8.609  20.670  0.00  0.00    +0.156 HD
ENDROOT
BRANCH  10  22
ATOM      1  F   UNL     1      20.426   4.405  20.071  0.00  0.00    -0.205 F 
ATOM     22  C   UNL     1      18.111   7.091  20.889  0.00  0.00    +0.037 A 
ATOM     25  C   UNL     1      18.678   5.994  20.239  0.00  0.00    +0.061 A 
ATOM     26  C   UNL     1      18.748   7.649  21.998  0.00  0.00    +0.023 A 
ATOM     30  C   UNL     1      19.880   5.457  20.696  0.00  0.00    +0.125 A 
ATOM     31  C   UNL     1      19.952   7.112  22.455  0.00  0.00    +0.005 A 
ATOM     33  C   UNL     1      20.518   6.016  21.804  0.00  0.00    +0.038 A 
ENDBRANCH  10  22
BRANCH  13  18
ATOM      2  O   UNL     1      11.924   7.719  17.363  0.00  0.00    -0.336 OA
ATOM      9  N   UNL     1      13.850   8.858  17.478  0.00  0.00    -0.190 NA
ATOM     11  N   UNL     1      11.870   8.678  16.344  0.00  0.00    -0.056 NA
ATOM     18  C   UNL     1      13.122   7.894  17.981  0.00  0.00    +0.249 A 
ATOM     21  C   UNL     1      13.041   9.310  16.475  0.00  0.00    +0.202 A 
BRANCH  21  23
ATOM     23  C   UNL     1      13.431  10.396  15.624  0.00  0.00    +0.025 A 
ATOM     24  C   UNL     1      12.584  10.820  14.600  0.00  0.00    +0.044 A 
ATOM     27  C   UNL     1      14.659  11.027  15.819  0.00  0.00    +0.012 A 
ATOM     28  C   UNL     1      12.965  11.876  13.772  0.00  0.00    +0.127 A 
ATOM     29  C   UNL     1      15.041  12.083  14.991  0.00  0.00    +0.003 A 
ATOM     32  C   UNL     1      14.194  12.507  13.968  0.00  0.00    +0.033 A 
BRANCH  28  12
ATOM      4  O   UNL     1      12.335  11.936  11.555  0.00  0.00    -0.126 OA
ATOM      5  O   UNL     1      11.133  13.053  13.014  0.00  0.00    -0.126 OA
ATOM     12  N   UNL     1      12.103  12.309  12.730  0.00  0.00    +0.056 N 
ENDBRANCH  28  12
ENDBRANCH  21  23
ENDBRANCH  13  18
TORSDOF 4
ENDMDL
MODEL 3
REMARK VINA RESULT:      -7.6     28.384     30.668
REMARK  Name = 26745160
REMARK  4 active torsions:
REMARK  status: ('A' for Active; 'I' for Inactive)
REMARK    1  A    between atoms: N_10  and  C_22
REMARK    2  A    between atoms: N_12  and  C_28
REMARK    3  A    between atoms: C_13  and  C_18
REMARK    4  A    between atoms: C_21  and  C_23
REMARK                            x       y       z     vdW  Elec       q    Type
REMARK                         _______ _______ _______ _____ _____    ______ ____
ROOT
ATOM      3  O   UNL     1     -10.914  -5.947  15.915  0.00  0.00    -0.252 OA
ATOM      6  N   UNL     1     -11.420  -8.214  15.955  0.00  0.00    -0.267 N 
ATOM      7  N   UNL     1     -13.222 -11.481  16.244  0.00  0.00    -0.347 N 
ATOM      8  N   UNL     1     -12.748 -11.308  18.420  0.00  0.00    -0.240 NA
ATOM     10  N   UNL     1     -12.121  -6.858  14.150  0.00  0.00    -0.269 N 
ATOM     13  C   UNL     1     -10.601  -8.423  17.199  0.00  0.00    +0.172 C 
ATOM     14  C   UNL     1     -11.408  -9.162  18.309  0.00  0.00    +0.089 C 
ATOM     15  C   UNL     1     -12.064  -9.405  15.328  0.00  0.00    +0.165 C 
ATOM     16  C   UNL     1     -12.204 -10.262  17.727  0.00  0.00    +0.066 A 
ATOM     17  C   UNL     1     -12.484 -10.343  16.387  0.00  0.00    +0.056 A 
ATOM     19  C   UNL     1     -11.455  -6.916  15.377  0.00  0.00    +0.307 C 
ATOM     20  C   UNL     1     -13.354 -12.026  17.497  0.00  0.00    +0.197 A 
ATOM     34  H   UNL     1     -13.600 -11.856  15.384  0.00  0.00    +0.167 HD
ATOM     35  H   UNL     1     -12.136  -7.698  13.579  0.00  0.00    +0.156 HD
ENDROOT
BRANCH  10  22
ATOM      1  F   UNL     1     -12.233  -2.817  11.557  0.00  0.00    -0.205 F 
ATOM     22  C   UNL     1     -12.835  -5.761  13.609  0.00  0.00    +0.037 A 
ATOM     25  C   UNL     1     -12.170  -4.810  12.834  0.00  0.00    +0.061 A 
ATOM     26  C   UNL     1     -14.202  -5.628  13.852  0.00  0.00    +0.023 A 
ATOM     30  C   UNL     1     -12.871  -3.729  12.302  0.00  0.00    +0.125 A 
ATOM     31  C   UNL     1     -14.904  -4.547  13.320  0.00  0.00    +0.005 A 
ATOM     33  C   UNL     1     -14.238  -3.597  12.545  0.00  0.00    +0.038 A 
ENDBRANCH  10  22
BRANCH  13  18
ATOM      2  O   UNL     1      -8.960  -9.152  15.523  0.00  0.00    -0.336 OA
ATOM      9  N   UNL     1      -8.272  -9.407  17.639  0.00  0.00    -0.190 NA
ATOM     11  N   UNL     1      -7.674  -9.701  15.450  0.00  0.00    -0.056 NA
ATOM     18  C   UNL     1      -9.235  -9.011  16.846  0.00  0.00    +0.249 A 
ATOM     21  C   UNL     1      -7.335  -9.822  16.737  0.00  0.00    +0.202 A 
BRANCH  21  23
ATOM     23  C   UNL     1      -6.070 -10.353  17.155  0.00  0.00    +0.025 A 
ATOM     24  C   UNL     1      -4.961 -10.259  16.314  0.00  0.00    +0.044 A 
ATOM     27  C   UNL     1      -5.949 -10.963  18.403  0.00  0.00    +0.012 A 
ATOM     28  C   UNL     1      -3.731 -10.775  16.721  0.00  0.00    +0.127 A 
ATOM     29  C   UNL     1      -4.719 -11.480  18.811  0.00  0.00    +0.003 A 
ATOM     32  C   UNL     1      -3.611 -11.386  17.970  0.00  0.00    +0.033 A 
BRANCH  28  12
ATOM      4  O   UNL     1      -1.456 -10.636  16.374  0.00  0.00    -0.126 OA
ATOM      5  O   UNL     1      -2.781 -10.643  14.624  0.00  0.00    -0.126 OA
ATOM     12  N   UNL     1      -2.602 -10.680  15.866  0.00  0.00    +0.056 N 
ENDBRANCH  28  12
ENDBRANCH  21  23
ENDBRANCH  13  18
TORSDOF 4
ENDMDL
MODEL 4
REMARK VINA RESULT:      -7.5     29.003     32.587
REMARK  Name = 26745160
REMARK  4 active torsions:
REMARK  status: ('A' for Active; 'I' for Inactive)
REMARK    1  A    between atoms: N_10  and  C_22
REMARK    2  A    between atoms: N_12  and  C_28
REMARK    3  A    between atoms: C_13  and  C_18
REMARK    4  A    between atoms: C_21  and  C_23
REMARK                            x       y       z     vdW  Elec       q    Type
REMARK                         _______ _______ _______ _____ _____    ______ ____
ROOT
ATOM      3  O   UNL     1      -7.475  -9.809   8.165  0.00  0.00    -0.252 OA
ATOM      6  N   UNL     1      -8.207  -7.611   7.988  0.00  0.00    -0.267 N 
ATOM      7  N   UNL     1      -9.451  -4.171   8.779  0.00  0.00    -0.347 N 
ATOM      8  N   UNL     1     -11.476  -5.104   8.649  0.00  0.00    -0.240 NA
ATOM     10  N   UNL     1      -6.051  -8.096   8.825  0.00  0.00    -0.269 N 
ATOM     13  C   UNL     1      -9.477  -8.038   7.304  0.00  0.00    +0.172 C 
ATOM     14  C   UNL     1     -10.739  -7.435   7.990  0.00  0.00    +0.089 C 
ATOM     15  C   UNL     1      -7.965  -6.151   8.174  0.00  0.00    +0.165 C 
ATOM     16  C   UNL     1     -10.507  -6.021   8.353  0.00  0.00    +0.066 A 
ATOM     17  C   UNL     1      -9.252  -5.474   8.429  0.00  0.00    +0.056 A 
ATOM     19  C   UNL     1      -7.252  -8.607   8.328  0.00  0.00    +0.307 C 
ATOM     20  C   UNL     1     -10.807  -3.997   8.900  0.00  0.00    +0.197 A 
ATOM     34  H   UNL     1      -8.740  -3.465   8.922  0.00  0.00    +0.167 HD
ATOM     35  H   UNL     1      -5.770  -7.168   8.524  0.00  0.00    +0.156 HD
ENDROOT
BRANCH  10  22
ATOM      1  F   UNL     1      -5.249 -10.092  13.120  0.00  0.00    -0.205 F 
ATOM     22  C   UNL     1      -5.174  -8.707   9.756  0.00  0.00    +0.037 A 
ATOM     25  C   UNL     1      -5.652  -9.107  11.005  0.00  0.00    +0.061 A 
ATOM     26  C   UNL     1      -3.834  -8.908   9.426  0.00  0.00    +0.023 A 
ATOM     30  C   UNL     1      -4.790  -9.707  11.921  0.00  0.00    +0.125 A 
ATOM     31  C   UNL     1      -2.972  -9.509  10.343  0.00  0.00    +0.005 A 
ATOM     33  C   UNL     1      -3.450  -9.908  11.591  0.00  0.00    +0.038 A 
ENDBRANCH  10  22
BRANCH  13  18
ATOM      2  O   UNL     1      -8.165  -8.147   5.229  0.00  0.00    -0.336 OA
ATOM      9  N   UNL     1     -10.259  -7.402   4.944  0.00  0.00    -0.190 NA
ATOM     11  N   UNL     1      -8.301  -7.883   3.861  0.00  0.00    -0.056 NA
ATOM     18  C   UNL     1      -9.362  -7.836   5.793  0.00  0.00    +0.249 A 
ATOM     21  C   UNL     1      -9.562  -7.447   3.771  0.00  0.00    +0.202 A 
BRANCH  21  23
ATOM     23  C   UNL     1     -10.154  -7.052   2.527  0.00  0.00    +0.025 A 
ATOM     24  C   UNL     1     -10.104  -5.718   2.122  0.00  0.00    +0.044 A 
ATOM     27  C   UNL     1     -10.782  -8.001   1.721  0.00  0.00    +0.012 A 
ATOM     28  C   UNL     1     -10.680  -5.333   0.912  0.00  0.00    +0.127 A 
ATOM     29  C   UNL     1     -11.360  -7.618   0.511  0.00  0.00    +0.003 A 
ATOM     32  C   UNL     1     -11.309  -6.284   0.106  0.00  0.00    +0.033 A 
BRANCH  28  12
ATOM      4  O   UNL     1      -9.736  -3.230   0.968  0.00  0.00    -0.126 OA
ATOM      5  O   UNL     1     -11.481  -3.559  -0.325  0.00  0.00    -0.126 OA
ATOM     12  N   UNL     1     -10.630  -3.976   0.499  0.00  0.00    +0.056 N 
ENDBRANCH  28  12
ENDBRANCH  21  23
ENDBRANCH  13  18
TORSDOF 4
ENDMDL
MODEL 5
REMARK VINA RESULT:      -7.5     21.651     26.585
REMARK  Name = 26745160
REMARK  4 active torsions:
REMARK  status: ('A' for Active; 'I' for Inactive)
REMARK    1  A    between atoms: N_10  and  C_22
REMARK    2  A    between atoms: N_12  and  C_28
REMARK    3  A    between atoms: C_13  and  C_18
REMARK    4  A    between atoms: C_21  and  C_23
REMARK                            x       y       z     vdW  Elec       q    Type
REMARK                         _______ _______ _______ _____ _____    ______ ____
ROOT
ATOM      3  O   UNL     1       9.925   6.438  -1.642  0.00  0.00    -0.252 OA
ATOM      6  N   UNL     1       9.210   5.054  -3.364  0.00  0.00    -0.267 N 
ATOM      7  N   UNL     1       9.124   2.724  -6.291  0.00  0.00    -0.347 N 
ATOM      8  N   UNL     1       9.203   4.593  -7.511  0.00  0.00    -0.240 NA
ATOM     10  N   UNL     1      10.164   4.139  -1.405  0.00  0.00    -0.269 N 
ATOM     13  C   UNL     1       8.636   6.217  -4.126  0.00  0.00    +0.172 C 
ATOM     14  C   UNL     1       9.141   6.252  -5.600  0.00  0.00    +0.089 C 
ATOM     15  C   UNL     1       9.037   3.686  -3.934  0.00  0.00    +0.165 C 
ATOM     16  C   UNL     1       9.151   4.893  -6.179  0.00  0.00    +0.066 A 
ATOM     17  C   UNL     1       9.105   3.760  -5.406  0.00  0.00    +0.056 A 
ATOM     19  C   UNL     1       9.793   5.298  -2.092  0.00  0.00    +0.307 C 
ATOM     20  C   UNL     1       9.184   3.276  -7.546  0.00  0.00    +0.197 A 
ATOM     34  H   UNL     1       9.099   1.736  -6.071  0.00  0.00    +0.167 HD
ATOM     35  H   UNL     1       9.649   3.287  -1.601  0.00  0.00    +0.156 HD
ENDROOT
BRANCH  10  22
ATOM      1  F   UNL     1      14.840   3.571  -0.464  0.00  0.00    -0.205 F 
ATOM     22  C   UNL     1      11.225   3.990  -0.478  0.00  0.00    +0.037 A 
ATOM     25  C   UNL     1      12.536   3.851  -0.935  0.00  0.00    +0.061 A 
ATOM     26  C   UNL     1      10.961   3.980   0.892  0.00  0.00    +0.023 A 
ATOM     30  C   UNL     1      13.581   3.703  -0.024  0.00  0.00    +0.125 A 
ATOM     31  C   UNL     1      12.006   3.832   1.804  0.00  0.00    +0.005 A 
ATOM     33  C   UNL     1      13.316   3.694   1.345  0.00  0.00    +0.038 A 
ENDBRANCH  10  22
BRANCH  13  18
ATOM      2  O   UNL     1       6.696   6.711  -2.702  0.00  0.00    -0.336 OA
ATOM      9  N   UNL     1       6.158   6.012  -4.762  0.00  0.00    -0.190 NA
ATOM     11  N   UNL     1       5.297   6.698  -2.756  0.00  0.00    -0.056 NA
ATOM     18  C   UNL     1       7.123   6.293  -3.923  0.00  0.00    +0.249 A 
ATOM     21  C   UNL     1       5.056   6.275  -4.001  0.00  0.00    +0.202 A 
BRANCH  21  23
ATOM     23  C   UNL     1       3.728   6.107  -4.515  0.00  0.00    +0.025 A 
ATOM     24  C   UNL     1       3.107   4.859  -4.449  0.00  0.00    +0.044 A 
ATOM     27  C   UNL     1       3.057   7.190  -5.081  0.00  0.00    +0.012 A 
ATOM     28  C   UNL     1       1.816   4.696  -4.950  0.00  0.00    +0.127 A 
ATOM     29  C   UNL     1       1.766   7.028  -5.583  0.00  0.00    +0.003 A 
ATOM     32  C   UNL     1       1.145   5.780  -5.517  0.00  0.00    +0.033 A 
BRANCH  28  12
ATOM      4  O   UNL     1       1.431   2.576  -5.772  0.00  0.00    -0.126 OA
ATOM      5  O   UNL     1       0.391   3.191  -3.938  0.00  0.00    -0.126 OA
ATOM     12  N   UNL     1       1.182   3.427  -4.884  0.00  0.00    +0.056 N 
ENDBRANCH  28  12
ENDBRANCH  21  23
ENDBRANCH  13  18
TORSDOF 4
ENDMDL
MODEL 6
REMARK VINA RESULT:      -7.4      4.260      8.358
REMARK  Name = 26745160
REMARK  4 active torsions:
REMARK  status: ('A' for Active; 'I' for Inactive)
REMARK    1  A    between atoms: N_10  and  C_22
REMARK    2  A    between atoms: N_12  and  C_28
REMARK    3  A    between atoms: C_13  and  C_18
REMARK    4  A    between atoms: C_21  and  C_23
REMARK                            x       y       z     vdW  Elec       q    Type
REMARK                         _______ _______ _______ _____ _____    ______ ____
ROOT
ATOM      3  O   UNL     1      17.522   9.832  20.748  0.00  0.00    -0.252 OA
ATOM      6  N   UNL     1      15.552   8.745  21.328  0.00  0.00    -0.267 N 
ATOM      7  N   UNL     1      12.704   6.323  21.478  0.00  0.00    -0.347 N 
ATOM      8  N   UNL     1      11.802   7.612  19.892  0.00  0.00    -0.240 NA
ATOM     10  N   UNL     1      17.648   7.840  21.939  0.00  0.00    -0.269 N 
ATOM     13  C   UNL     1      14.715   9.875  20.793  0.00  0.00    +0.172 C 
ATOM     14  C   UNL     1      13.622   9.371  19.804  0.00  0.00    +0.089 C 
ATOM     15  C   UNL     1      14.853   7.597  21.975  0.00  0.00    +0.165 C 
ATOM     16  C   UNL     1      12.996   8.131  20.309  0.00  0.00    +0.066 A 
ATOM     17  C   UNL     1      13.573   7.355  21.282  0.00  0.00    +0.056 A 
ATOM     19  C   UNL     1      16.967   8.872  21.289  0.00  0.00    +0.307 C 
ATOM     20  C   UNL     1      11.654   6.522  20.617  0.00  0.00    +0.197 A 
ATOM     34  H   UNL     1      12.807   5.557  22.130  0.00  0.00    +0.167 HD
ATOM     35  H   UNL     1      17.176   7.368  22.703  0.00  0.00    +0.156 HD
ENDROOT
BRANCH  10  22
ATOM      1  F   UNL     1      20.426   4.509  19.875  0.00  0.00    -0.205 F 
ATOM     22  C   UNL     1      18.932   7.326  21.627  0.00  0.00    +0.037 A 
ATOM     25  C   UNL     1      19.050   6.147  20.890  0.00  0.00    +0.061 A 
ATOM     26  C   UNL     1      20.076   7.996  22.060  0.00  0.00    +0.023 A 
ATOM     30  C   UNL     1      20.312   5.640  20.584  0.00  0.00    +0.125 A 
ATOM     31  C   UNL     1      21.339   7.488  21.754  0.00  0.00    +0.005 A 
ATOM     33  C   UNL     1      21.457   6.310  21.016  0.00  0.00    +0.038 A 
ENDBRANCH  10  22
BRANCH  13  18
ATOM      2  O   UNL     1      13.164  11.563  21.675  0.00  0.00    -0.336 OA
ATOM      9  N   UNL     1      14.716  10.897  23.147  0.00  0.00    -0.190 NA
ATOM     11  N   UNL     1      12.918  12.282  22.852  0.00  0.00    -0.056 NA
ATOM     18  C   UNL     1      14.238  10.772  21.934  0.00  0.00    +0.249 A 
ATOM     21  C   UNL     1      13.874  11.834  23.672  0.00  0.00    +0.202 A 
BRANCH  21  23
ATOM     23  C   UNL     1      14.014  12.301  25.021  0.00  0.00    +0.025 A 
ATOM     24  C   UNL     1      14.749  11.558  25.944  0.00  0.00    +0.044 A 
ATOM     27  C   UNL     1      13.416  13.500  25.409  0.00  0.00    +0.012 A 
ATOM     28  C   UNL     1      14.885  12.013  27.256  0.00  0.00    +0.127 A 
ATOM     29  C   UNL     1      13.551  13.955  26.720  0.00  0.00    +0.003 A 
ATOM     32  C   UNL     1      14.286  13.212  27.643  0.00  0.00    +0.033 A 
BRANCH  28  12
ATOM      4  O   UNL     1      16.817  10.946  27.924  0.00  0.00    -0.126 OA
ATOM      5  O   UNL     1      15.088  10.922  29.277  0.00  0.00    -0.126 OA
ATOM     12  N   UNL     1      15.633  11.257  28.197  0.00  0.00    +0.056 N 
ENDBRANCH  28  12
ENDBRANCH  21  23
ENDBRANCH  13  18
TORSDOF 4
ENDMDL
MODEL 7
REMARK VINA RESULT:      -7.4     16.177     20.668
REMARK  Name = 26745160
REMARK  4 active torsions:
REMARK  status: ('A' for Active; 'I' for Inactive)
REMARK    1  A    between atoms: N_10  and  C_22
REMARK    2  A    between atoms: N_12  and  C_28
REMARK    3  A    between atoms: C_13  and  C_18
REMARK    4  A    between atoms: C_21  and  C_23
REMARK                            x       y       z     vdW  Elec       q    Type
REMARK                         _______ _______ _______ _____ _____    ______ ____
ROOT
ATOM      3  O   UNL     1      10.303   7.571   4.285  0.00  0.00    -0.252 OA
ATOM      6  N   UNL     1      11.254   5.923   2.953  0.00  0.00    -0.267 N 
ATOM      7  N   UNL     1      13.464   3.199   1.649  0.00  0.00    -0.347 N 
ATOM      8  N   UNL     1      14.719   4.877   0.876  0.00  0.00    -0.240 NA
ATOM     10  N   UNL     1      10.005   5.343   4.874  0.00  0.00    -0.269 N 
ATOM     13  C   UNL     1      11.712   6.937   1.941  0.00  0.00    +0.172 C 
ATOM     14  C   UNL     1      13.228   6.787   1.612  0.00  0.00    +0.089 C 
ATOM     15  C   UNL     1      11.514   4.481   2.671  0.00  0.00    +0.165 C 
ATOM     16  C   UNL     1      13.592   5.361   1.480  0.00  0.00    +0.066 A 
ATOM     17  C   UNL     1      12.804   4.348   1.967  0.00  0.00    +0.056 A 
ATOM     19  C   UNL     1      10.505   6.373   4.073  0.00  0.00    +0.307 C 
ATOM     20  C   UNL     1      14.612   3.569   0.994  0.00  0.00    +0.197 A 
ATOM     34  H   UNL     1      13.169   2.252   1.853  0.00  0.00    +0.167 HD
ATOM     35  H   UNL     1       9.819   4.448   4.432  0.00  0.00    +0.156 HD
ENDROOT
BRANCH  10  22
ATOM      1  F   UNL     1       8.620   7.716   8.814  0.00  0.00    -0.205 F 
ATOM     22  C   UNL     1       9.760   5.379   6.269  0.00  0.00    +0.037 A 
ATOM     25  C   UNL     1       9.301   6.553   6.867  0.00  0.00    +0.061 A 
ATOM     26  C   UNL     1       9.979   4.241   7.045  0.00  0.00    +0.023 A 
ATOM     30  C   UNL     1       9.061   6.589   8.240  0.00  0.00    +0.125 A 
ATOM     31  C   UNL     1       9.739   4.277   8.419  0.00  0.00    +0.005 A 
ATOM     33  C   UNL     1       9.280   5.451   9.016  0.00  0.00    +0.038 A 
ENDBRANCH  10  22
BRANCH  13  18
ATOM      2  O   UNL     1       9.926   8.041   0.666  0.00  0.00    -0.336 OA
ATOM      9  N   UNL     1      10.614   6.104  -0.224  0.00  0.00    -0.190 NA
ATOM     11  N   UNL     1       9.159   7.850  -0.490  0.00  0.00    -0.056 NA
ATOM     18  C   UNL     1      10.757   6.969   0.748  0.00  0.00    +0.249 A 
ATOM     21  C   UNL     1       9.622   6.687  -0.959  0.00  0.00    +0.202 A 
BRANCH  21  23
ATOM     23  C   UNL     1       9.118   6.082  -2.157  0.00  0.00    +0.025 A 
ATOM     24  C   UNL     1       9.535   4.802  -2.521  0.00  0.00    +0.044 A 
ATOM     27  C   UNL     1       8.210   6.774  -2.958  0.00  0.00    +0.012 A 
ATOM     28  C   UNL     1       9.044   4.214  -3.687  0.00  0.00    +0.127 A 
ATOM     29  C   UNL     1       7.719   6.188  -4.124  0.00  0.00    +0.003 A 
ATOM     32  C   UNL     1       8.136   4.908  -4.489  0.00  0.00    +0.033 A 
BRANCH  28  12
ATOM      4  O   UNL     1       9.475   2.003  -3.194  0.00  0.00    -0.126 OA
ATOM      5  O   UNL     1       9.821   2.703  -5.246  0.00  0.00    -0.126 OA
ATOM     12  N   UNL     1       9.467   2.911  -4.060  0.00  0.00    +0.056 N 
ENDBRANCH  28  12
ENDBRANCH  21  23
ENDBRANCH  13  18
TORSDOF 4
ENDMDL
MODEL 8
REMARK VINA RESULT:      -7.3     27.774     30.341
REMARK  Name = 26745160
REMARK  4 active torsions:
REMARK  status: ('A' for Active; 'I' for Inactive)
REMARK    1  A    between atoms: N_10  and  C_22
REMARK    2  A    between atoms: N_12  and  C_28
REMARK    3  A    between atoms: C_13  and  C_18
REMARK    4  A    between atoms: C_21  and  C_23
REMARK                            x       y       z     vdW  Elec       q    Type
REMARK                         _______ _______ _______ _____ _____    ______ ____
ROOT
ATOM      3  O   UNL     1     -11.148  -8.034  10.344  0.00  0.00    -0.252 OA
ATOM      6  N   UNL     1      -9.392  -7.847   8.835  0.00  0.00    -0.267 N 
ATOM      7  N   UNL     1      -7.382  -7.468   5.701  0.00  0.00    -0.347 N 
ATOM      8  N   UNL     1      -7.578  -9.689   5.559  0.00  0.00    -0.240 NA
ATOM     10  N   UNL     1     -10.689  -5.957   9.408  0.00  0.00    -0.269 N 
ATOM     13  C   UNL     1      -8.980  -9.276   9.064  0.00  0.00    +0.172 C 
ATOM     14  C   UNL     1      -8.835 -10.061   7.725  0.00  0.00    +0.089 C 
ATOM     15  C   UNL     1      -8.565  -7.016   7.911  0.00  0.00    +0.165 C 
ATOM     16  C   UNL     1      -8.164  -9.229   6.705  0.00  0.00    +0.066 A 
ATOM     17  C   UNL     1      -8.060  -7.865   6.815  0.00  0.00    +0.056 A 
ATOM     19  C   UNL     1     -10.480  -7.326   9.586  0.00  0.00    +0.307 C 
ATOM     20  C   UNL     1      -7.114  -8.602   4.976  0.00  0.00    +0.197 A 
ATOM     34  H   UNL     1      -7.123  -6.522   5.452  0.00  0.00    +0.167 HD
ATOM     35  H   UNL     1      -9.889  -5.383   9.159  0.00  0.00    +0.156 HD
ENDROOT
BRANCH  10  22
ATOM      1  F   UNL     1     -13.548  -2.770  11.586  0.00  0.00    -0.205 F 
ATOM     22  C   UNL     1     -11.919  -5.256   9.488  0.00  0.00    +0.037 A 
ATOM     25  C   UNL     1     -12.133  -4.340  10.518  0.00  0.00    +0.061 A 
ATOM     26  C   UNL     1     -12.916  -5.484   8.539  0.00  0.00    +0.023 A 
ATOM     30  C   UNL     1     -13.342  -3.651  10.598  0.00  0.00    +0.125 A 
ATOM     31  C   UNL     1     -14.126  -4.795   8.620  0.00  0.00    +0.005 A 
ATOM     33  C   UNL     1     -14.339  -3.878   9.649  0.00  0.00    +0.038 A 
ENDBRANCH  10  22
BRANCH  13  18
ATOM      2  O   UNL     1      -8.071  -9.191  11.344  0.00  0.00    -0.336 OA
ATOM      9  N   UNL     1      -6.522  -9.522   9.760  0.00  0.00    -0.190 NA
ATOM     11  N   UNL     1      -6.844  -9.286  12.013  0.00  0.00    -0.056 NA
ATOM     18  C   UNL     1      -7.792  -9.341  10.023  0.00  0.00    +0.249 A 
ATOM     21  C   UNL     1      -5.980  -9.481  11.012  0.00  0.00    +0.202 A 
BRANCH  21  23
ATOM     23  C   UNL     1      -4.572  -9.638  11.229  0.00  0.00    +0.025 A 
ATOM     24  C   UNL     1      -4.110 -10.327  12.350  0.00  0.00    +0.044 A 
ATOM     27  C   UNL     1      -3.662  -9.101  10.318  0.00  0.00    +0.012 A 
ATOM     28  C   UNL     1      -2.740 -10.480  12.560  0.00  0.00    +0.127 A 
ATOM     29  C   UNL     1      -2.292  -9.253  10.527  0.00  0.00    +0.003 A 
ATOM     32  C   UNL     1      -1.831  -9.942  11.648  0.00  0.00    +0.033 A 
BRANCH  28  12
ATOM      4  O   UNL     1      -2.034 -12.410  13.607  0.00  0.00    -0.126 OA
ATOM      5  O   UNL     1      -2.100 -10.551  14.774  0.00  0.00    -0.126 OA
ATOM     12  N   UNL     1      -2.269 -11.181  13.701  0.00  0.00    +0.056 N 
ENDBRANCH  28  12
ENDBRANCH  21  23
ENDBRANCH  13  18
TORSDOF 4
ENDMDL
MODEL 9
REMARK VINA RESULT:      -7.1     28.820     32.027
REMARK  Name = 26745160
REMARK  4 active torsions:
REMARK  status: ('A' for Active; 'I' for Inactive)
REMARK    1  A    between atoms: N_10  and  C_22
REMARK    2  A    between atoms: N_12  and  C_28
REMARK    3  A    between atoms: C_13  and  C_18
REMARK    4  A    between atoms: C_21  and  C_23
REMARK                            x       y       z     vdW  Elec       q    Type
REMARK                         _______ _______ _______ _____ _____    ______ ____
ROOT
ATOM      3  O   UNL     1      -8.486  -9.540  14.844  0.00  0.00    -0.252 OA
ATOM      6  N   UNL     1     -10.275  -9.156  16.275  0.00  0.00    -0.267 N 
ATOM      7  N   UNL     1     -12.916  -9.545  18.898  0.00  0.00    -0.347 N 
ATOM      8  N   UNL     1     -14.125 -10.438  17.246  0.00  0.00    -0.240 NA
ATOM     10  N   UNL     1      -8.060  -9.171  17.098  0.00  0.00    -0.269 N 
ATOM     13  C   UNL     1     -11.251  -9.142  15.130  0.00  0.00    +0.172 C 
ATOM     14  C   UNL     1     -12.450 -10.107  15.377  0.00  0.00    +0.089 C 
ATOM     15  C   UNL     1     -10.797  -8.887  17.647  0.00  0.00    +0.165 C 
ATOM     16  C   UNL     1     -12.916 -10.010  16.776  0.00  0.00    +0.066 A 
ATOM     17  C   UNL     1     -12.151  -9.460  17.773  0.00  0.00    +0.056 A 
ATOM     19  C   UNL     1      -8.893  -9.318  15.987  0.00  0.00    +0.307 C 
ATOM     20  C   UNL     1     -14.096 -10.143  18.530  0.00  0.00    +0.197 A 
ATOM     34  H   UNL     1     -12.668  -9.231  19.827  0.00  0.00    +0.167 HD
ATOM     35  H   UNL     1      -8.381  -8.577  17.857  0.00  0.00    +0.156 HD
ENDROOT
BRANCH  10  22
ATOM      1  F   UNL     1      -3.622 -10.299  15.645  0.00  0.00    -0.205 F 
ATOM     22  C   UNL     1      -6.811  -9.800  17.327  0.00  0.00    +0.037 A 
ATOM     25  C   UNL     1      -5.811  -9.739  16.354  0.00  0.00    +0.061 A 
ATOM     26  C   UNL     1      -6.579 -10.482  18.521  0.00  0.00    +0.023 A 
ATOM     30  C   UNL     1      -4.583 -10.359  16.578  0.00  0.00    +0.125 A 
ATOM     31  C   UNL     1      -5.350 -11.102  18.745  0.00  0.00    +0.005 A 
ATOM     33  C   UNL     1      -4.351 -11.040  17.773  0.00  0.00    +0.038 A 
ENDBRANCH  10  22
BRANCH  13  18
ATOM      2  O   UNL     1     -11.182  -6.731  15.595  0.00  0.00    -0.336 OA
ATOM      9  N   UNL     1     -12.256  -7.262  13.702  0.00  0.00    -0.190 NA
ATOM     11  N   UNL     1     -11.614  -5.520  15.040  0.00  0.00    -0.056 NA
ATOM     18  C   UNL     1     -11.601  -7.706  14.746  0.00  0.00    +0.249 A 
ATOM     21  C   UNL     1     -12.239  -5.916  13.927  0.00  0.00    +0.202 A 
BRANCH  21  23
ATOM     23  C   UNL     1     -12.855  -4.993  13.019  0.00  0.00    +0.025 A 
ATOM     24  C   UNL     1     -12.253  -4.713  11.792  0.00  0.00    +0.044 A 
ATOM     27  C   UNL     1     -14.057  -4.375  13.362  0.00  0.00    +0.012 A 
ATOM     28  C   UNL     1     -12.852  -3.815  10.909  0.00  0.00    +0.127 A 
ATOM     29  C   UNL     1     -14.657  -3.477  12.480  0.00  0.00    +0.003 A 
ATOM     32  C   UNL     1     -14.055  -3.197  11.254  0.00  0.00    +0.033 A 
BRANCH  28  12
ATOM      4  O   UNL     1     -12.949  -3.101   8.719  0.00  0.00    -0.126 OA
ATOM      5  O   UNL     1     -11.004  -3.712   9.534  0.00  0.00    -0.126 OA
ATOM     12  N   UNL     1     -12.240  -3.529   9.660  0.00  0.00    +0.056 N 
ENDBRANCH  28  12
ENDBRANCH  21  23
ENDBRANCH  13  18
TORSDOF 4
ENDMDL
MODEL 10
REMARK VINA RESULT:      -7.1     12.389     15.917
REMARK  Name = 26745160
REMARK  4 active torsions:
REMARK  status: ('A' for Active; 'I' for Inactive)
REMARK    1  A    between atoms: N_10  and  C_22
REMARK    2  A    between atoms: N_12  and  C_28
REMARK    3  A    between atoms: C_13  and  C_18
REMARK    4  A    between atoms: C_21  and  C_23
REMARK                            x       y       z     vdW  Elec       q    Type
REMARK                         _______ _______ _______ _____ _____    ______ ____
ROOT
ATOM      3  O   UNL     1      11.563  10.335   7.354  0.00  0.00    -0.252 OA
ATOM      6  N   UNL     1      10.335   8.376   7.579  0.00  0.00    -0.267 N 
ATOM      7  N   UNL     1       8.611   5.367   8.983  0.00  0.00    -0.347 N 
ATOM      8  N   UNL     1      10.593   4.372   8.724  0.00  0.00    -0.240 NA
ATOM     10  N   UNL     1       9.436  10.445   8.283  0.00  0.00    -0.269 N 
ATOM     13  C   UNL     1      11.383   7.579   6.851  0.00  0.00    +0.172 C 
ATOM     14  C   UNL     1      11.814   6.315   7.653  0.00  0.00    +0.089 C 
ATOM     15  C   UNL     1       9.094   7.673   8.015  0.00  0.00    +0.165 C 
ATOM     16  C   UNL     1      10.637   5.655   8.255  0.00  0.00    +0.066 A 
ATOM     17  C   UNL     1       9.430   6.291   8.407  0.00  0.00    +0.056 A 
ATOM     19  C   UNL     1      10.528   9.777   7.723  0.00  0.00    +0.307 C 
ATOM     20  C   UNL     1       9.357   4.228   9.155  0.00  0.00    +0.197 A 
ATOM     34  H   UNL     1       7.639   5.491   9.237  0.00  0.00    +0.167 HD
ATOM     35  H   UNL     1       8.514  10.044   8.145  0.00  0.00    +0.156 HD
ENDROOT
BRANCH  10  22
ATOM      1  F   UNL     1       9.475  12.576  12.588  0.00  0.00    -0.205 F 
ATOM     22  C   UNL     1       9.460  11.618   9.077  0.00  0.00    +0.037 A 
ATOM     25  C   UNL     1       9.456  11.518  10.469  0.00  0.00    +0.061 A 
ATOM     26  C   UNL     1       9.486  12.874   8.469  0.00  0.00    +0.023 A 
ATOM     30  C   UNL     1       9.478  12.672  11.251  0.00  0.00    +0.125 A 
ATOM     31  C   UNL     1       9.508  14.028   9.252  0.00  0.00    +0.005 A 
ATOM     33  C   UNL     1       9.504  13.927  10.643  0.00  0.00    +0.038 A 
ENDBRANCH  10  22
BRANCH  13  18
ATOM      2  O   UNL     1      10.055   8.222   4.887  0.00  0.00    -0.336 OA
ATOM      9  N   UNL     1      11.362   6.433   4.555  0.00  0.00    -0.190 NA
ATOM     11  N   UNL     1       9.834   7.819   3.564  0.00  0.00    -0.056 NA
ATOM     18  C   UNL     1      10.967   7.354   5.398  0.00  0.00    +0.249 A 
ATOM     21  C   UNL     1      10.640   6.760   3.443  0.00  0.00    +0.202 A 
BRANCH  21  23
ATOM     23  C   UNL     1      10.747   6.007   2.227  0.00  0.00    +0.025 A 
ATOM     24  C   UNL     1      11.739   5.035   2.093  0.00  0.00    +0.044 A 
ATOM     27  C   UNL     1       9.860   6.246   1.179  0.00  0.00    +0.012 A 
ATOM     28  C   UNL     1      11.842   4.303   0.911  0.00  0.00    +0.127 A 
ATOM     29  C   UNL     1       9.963   5.515  -0.005  0.00  0.00    +0.003 A 
ATOM     32  C   UNL     1      10.954   4.544  -0.138  0.00  0.00    +0.033 A 
BRANCH  28  12
ATOM      4  O   UNL     1      13.020   2.768  -0.344  0.00  0.00    -0.126 OA
ATOM      5  O   UNL     1      13.548   3.012   1.773  0.00  0.00    -0.126 OA
ATOM     12  N   UNL     1      12.851   3.313   0.773  0.00  0.00    +0.056 N 
ENDBRANCH  28  12
ENDBRANCH  21  23
ENDBRANCH  13  18
TORSDOF 4
ENDMDL
