MODEL 1
REMARK VINA RESULT:      -6.6      0.000      0.000
REMARK  Name = 75368489
REMARK  4 active torsions:
REMARK  status: ('A' for Active; 'I' for Inactive)
REMARK    1  A    between atoms: O_4  and  C_21
REMARK    2  A    between atoms: O_4  and  C_26
REMARK    3  A    between atoms: N_5  and  C_10
REMARK    4  A    between atoms: C_19  and  C_20
REMARK                            x       y       z     vdW  Elec       q    Type
REMARK                         _______ _______ _______ _____ _____    ______ ____
ROOT
ATOM      2  O   UNL     1      18.034   6.041  19.418  0.00  0.00    -0.252 OA
ATOM      3  O   UNL     1      11.535   8.566  18.967  0.00  0.00    -0.270 OA
ATOM      5  N   UNL     1      17.994   7.703  21.091  0.00  0.00    -0.280 N 
ATOM      6  N   UNL     1      16.098   7.251  19.972  0.00  0.00    -0.278 N 
ATOM      7  N   UNL     1      13.793   8.743  19.546  0.00  0.00    -0.294 N 
ATOM      8  C   UNL     1      15.705   8.214  20.988  0.00  0.00    +0.112 C 
ATOM      9  C   UNL     1      17.031   8.667  21.592  0.00  0.00    +0.133 C 
ATOM     11  C   UNL     1      14.873   9.328  20.362  0.00  0.00    +0.132 C 
ATOM     12  C   UNL     1      15.101   6.706  19.067  0.00  0.00    +0.128 C 
ATOM     13  C   UNL     1      17.447   6.887  20.079  0.00  0.00    +0.305 C 
ATOM     14  C   UNL     1      14.251   7.835  18.485  0.00  0.00    +0.127 C 
ATOM     19  C   UNL     1      12.431   9.021  19.676  0.00  0.00    +0.250 C 
ENDROOT
BRANCH   5  10
ATOM      1  O   UNL     1      21.298   7.891  23.645  0.00  0.00    -0.380 OA
ATOM     10  C   UNL     1      19.373   7.708  21.515  0.00  0.00    +0.082 C 
ATOM     15  C   UNL     1      19.741   9.037  22.177  0.00  0.00    +0.050 C 
ATOM     16  C   UNL     1      19.656   6.545  22.466  0.00  0.00    +0.050 C 
ATOM     17  C   UNL     1      21.156   8.983  22.737  0.00  0.00    +0.161 C 
ATOM     18  C   UNL     1      21.075   6.632  23.013  0.00  0.00    +0.161 C 
ENDBRANCH   5  10
BRANCH  19  20
ATOM     20  C   UNL     1      12.011   9.922  20.758  0.00  0.00    +0.078 A 
ATOM     21  C   UNL     1      11.622   9.420  21.999  0.00  0.00    +0.132 A 
ATOM     22  C   UNL     1      12.002  11.298  20.528  0.00  0.00    +0.017 A 
ATOM     23  C   UNL     1      11.225  10.293  23.012  0.00  0.00    +0.046 A 
ATOM     24  C   UNL     1      11.604  12.171  21.540  0.00  0.00    +0.001 A 
ATOM     25  C   UNL     1      11.216  11.669  22.782  0.00  0.00    +0.004 A 
BRANCH  21   4
ATOM      4  O   UNL     1      11.621   8.078  22.242  0.00  0.00    -0.494 OA
ATOM     26  C   UNL     1      10.366   7.407  22.160  0.00  0.00    +0.277 C 
ENDBRANCH  21   4
ENDBRANCH  19  20
TORSDOF 3
ENDMDL
MODEL 2
REMARK VINA RESULT:      -6.4     27.402     30.683
REMARK  Name = 75368489
REMARK  4 active torsions:
REMARK  status: ('A' for Active; 'I' for Inactive)
REMARK    1  A    between atoms: O_4  and  C_21
REMARK    2  A    between atoms: O_4  and  C_26
REMARK    3  A    between atoms: N_5  and  C_10
REMARK    4  A    between atoms: C_19  and  C_20
REMARK                            x       y       z     vdW  Elec       q    Type
REMARK                         _______ _______ _______ _____ _____    ______ ____
ROOT
ATOM      2  O   UNL     1     -10.563  -9.704  18.914  0.00  0.00    -0.252 OA
ATOM      3  O   UNL     1      -3.964 -11.999  18.930  0.00  0.00    -0.270 OA
ATOM      5  N   UNL     1      -9.828  -9.218  16.727  0.00  0.00    -0.280 N 
ATOM      6  N   UNL     1      -8.447 -10.329  18.108  0.00  0.00    -0.278 N 
ATOM      7  N   UNL     1      -5.686 -10.644  18.117  0.00  0.00    -0.294 N 
ATOM      8  C   UNL     1      -7.748 -10.301  16.834  0.00  0.00    +0.112 C 
ATOM      9  C   UNL     1      -8.595  -9.366  15.975  0.00  0.00    +0.133 C 
ATOM     11  C   UNL     1      -6.305  -9.854  17.035  0.00  0.00    +0.132 C 
ATOM     12  C   UNL     1      -7.850 -11.006  19.246  0.00  0.00    +0.128 C 
ATOM     13  C   UNL     1      -9.721  -9.749  18.028  0.00  0.00    +0.305 C 
ATOM     14  C   UNL     1      -6.392 -10.576  19.404  0.00  0.00    +0.127 C 
ATOM     19  C   UNL     1      -4.502 -11.376  18.016  0.00  0.00    +0.250 C 
ENDROOT
BRANCH   5  10
ATOM      1  O   UNL     1     -11.970  -6.374  14.534  0.00  0.00    -0.380 OA
ATOM     10  C   UNL     1     -10.956  -8.485  16.207  0.00  0.00    +0.082 C 
ATOM     15  C   UNL     1     -10.894  -7.013  16.615  0.00  0.00    +0.050 C 
ATOM     16  C   UNL     1     -11.034  -8.611  14.685  0.00  0.00    +0.050 C 
ATOM     17  C   UNL     1     -12.016  -6.224  15.953  0.00  0.00    +0.161 C 
ATOM     18  C   UNL     1     -12.147  -7.731  14.130  0.00  0.00    +0.161 C 
ENDBRANCH   5  10
BRANCH  19  20
ATOM     20  C   UNL     1      -3.833 -11.431  16.709  0.00  0.00    +0.078 A 
ATOM     21  C   UNL     1      -4.230 -12.351  15.739  0.00  0.00    +0.132 A 
ATOM     22  C   UNL     1      -2.786 -10.548  16.446  0.00  0.00    +0.017 A 
ATOM     23  C   UNL     1      -3.580 -12.388  14.505  0.00  0.00    +0.046 A 
ATOM     24  C   UNL     1      -2.136 -10.585  15.213  0.00  0.00    +0.001 A 
ATOM     25  C   UNL     1      -2.533 -11.505  14.242  0.00  0.00    +0.004 A 
BRANCH  21   4
ATOM      4  O   UNL     1      -5.250 -13.224  15.978  0.00  0.00    -0.494 OA
ATOM     26  C   UNL     1      -6.313 -13.253  15.028  0.00  0.00    +0.277 C 
ENDBRANCH  21   4
ENDBRANCH  19  20
TORSDOF 3
ENDMDL
MODEL 3
REMARK VINA RESULT:      -6.3     26.533     29.868
REMARK  Name = 75368489
REMARK  4 active torsions:
REMARK  status: ('A' for Active; 'I' for Inactive)
REMARK    1  A    between atoms: O_4  and  C_21
REMARK    2  A    between atoms: O_4  and  C_26
REMARK    3  A    between atoms: N_5  and  C_10
REMARK    4  A    between atoms: C_19  and  C_20
REMARK                            x       y       z     vdW  Elec       q    Type
REMARK                         _______ _______ _______ _____ _____    ______ ____
ROOT
ATOM      2  O   UNL     1      -4.443 -11.712  18.545  0.00  0.00    -0.252 OA
ATOM      3  O   UNL     1     -11.054  -9.555  19.216  0.00  0.00    -0.270 OA
ATOM      5  N   UNL     1      -4.885 -10.703  16.460  0.00  0.00    -0.280 N 
ATOM      6  N   UNL     1      -6.458 -10.606  18.061  0.00  0.00    -0.278 N 
ATOM      7  N   UNL     1      -9.206 -10.212  17.944  0.00  0.00    -0.294 N 
ATOM      8  C   UNL     1      -6.991  -9.803  16.973  0.00  0.00    +0.112 C 
ATOM      9  C   UNL     1      -6.018 -10.054  15.825  0.00  0.00    +0.133 C 
ATOM     11  C   UNL     1      -8.435 -10.199  16.686  0.00  0.00    +0.132 C 
ATOM     12  C   UNL     1      -7.212 -10.744  19.295  0.00  0.00    +0.128 C 
ATOM     13  C   UNL     1      -5.169 -11.083  17.787  0.00  0.00    +0.305 C 
ATOM     14  C   UNL     1      -8.665 -11.099  18.984  0.00  0.00    +0.127 C 
ATOM     19  C   UNL     1     -10.389  -9.509  18.182  0.00  0.00    +0.250 C 
ENDROOT
BRANCH   5  10
ATOM      1  O   UNL     1      -1.457 -10.134  14.134  0.00  0.00    -0.380 OA
ATOM     10  C   UNL     1      -3.680 -11.020  15.733  0.00  0.00    +0.082 C 
ATOM     15  C   UNL     1      -3.822 -10.672  14.251  0.00  0.00    +0.050 C 
ATOM     16  C   UNL     1      -2.474 -10.297  16.334  0.00  0.00    +0.050 C 
ATOM     17  C   UNL     1      -2.503 -10.886  13.520  0.00  0.00    +0.161 C 
ATOM     18  C   UNL     1      -1.230 -10.530  15.486  0.00  0.00    +0.161 C 
ENDBRANCH   5  10
BRANCH  19  20
ATOM     20  C   UNL     1     -10.890  -8.622  17.124  0.00  0.00    +0.078 A 
ATOM     21  C   UNL     1     -11.785  -9.089  16.162  0.00  0.00    +0.132 A 
ATOM     22  C   UNL     1     -10.457  -7.296  17.089  0.00  0.00    +0.017 A 
ATOM     23  C   UNL     1     -12.248  -8.231  15.164  0.00  0.00    +0.046 A 
ATOM     24  C   UNL     1     -10.920  -6.439  16.091  0.00  0.00    +0.001 A 
ATOM     25  C   UNL     1     -11.815  -6.906  15.129  0.00  0.00    +0.004 A 
BRANCH  21   4
ATOM      4  O   UNL     1     -12.218 -10.382  16.178  0.00  0.00    -0.494 OA
ATOM     26  C   UNL     1     -11.753 -11.233  15.132  0.00  0.00    +0.277 C 
ENDBRANCH  21   4
ENDBRANCH  19  20
TORSDOF 3
ENDMDL
MODEL 4
REMARK VINA RESULT:      -6.2     26.956     29.720
REMARK  Name = 75368489
REMARK  4 active torsions:
REMARK  status: ('A' for Active; 'I' for Inactive)
REMARK    1  A    between atoms: O_4  and  C_21
REMARK    2  A    between atoms: O_4  and  C_26
REMARK    3  A    between atoms: N_5  and  C_10
REMARK    4  A    between atoms: C_19  and  C_20
REMARK                            x       y       z     vdW  Elec       q    Type
REMARK                         _______ _______ _______ _____ _____    ______ ____
ROOT
ATOM      2  O   UNL     1      -4.137 -11.867  17.893  0.00  0.00    -0.252 OA
ATOM      3  O   UNL     1      -1.060 -10.384  11.799  0.00  0.00    -0.270 OA
ATOM      5  N   UNL     1      -5.961 -11.691  16.408  0.00  0.00    -0.280 N 
ATOM      6  N   UNL     1      -3.877 -11.522  15.584  0.00  0.00    -0.278 N 
ATOM      7  N   UNL     1      -2.887 -10.373  13.255  0.00  0.00    -0.294 N 
ATOM      8  C   UNL     1      -4.738 -11.491  14.413  0.00  0.00    +0.112 C 
ATOM      9  C   UNL     1      -6.144 -11.390  14.999  0.00  0.00    +0.133 C 
ATOM     11  C   UNL     1      -4.342 -10.337  13.499  0.00  0.00    +0.132 C 
ATOM     12  C   UNL     1      -2.434 -11.461  15.422  0.00  0.00    +0.128 C 
ATOM     13  C   UNL     1      -4.599 -11.717  16.769  0.00  0.00    +0.305 C 
ATOM     14  C   UNL     1      -2.062 -10.326  14.470  0.00  0.00    +0.127 C 
ATOM     19  C   UNL     1      -2.272 -10.398  12.002  0.00  0.00    +0.250 C 
ENDROOT
BRANCH   5  10
ATOM      1  O   UNL     1      -8.079 -11.752  20.012  0.00  0.00    -0.380 OA
ATOM     10  C   UNL     1      -7.076 -11.807  17.315  0.00  0.00    +0.082 C 
ATOM     15  C   UNL     1      -6.874 -12.968  18.290  0.00  0.00    +0.050 C 
ATOM     16  C   UNL     1      -7.294 -10.503  18.082  0.00  0.00    +0.050 C 
ATOM     17  C   UNL     1      -7.991 -13.000  19.325  0.00  0.00    +0.161 C 
ATOM     18  C   UNL     1      -8.386 -10.672  19.131  0.00  0.00    +0.161 C 
ENDBRANCH   5  10
BRANCH  19  20
ATOM     20  C   UNL     1      -3.131 -10.459  10.812  0.00  0.00    +0.078 A 
ATOM     21  C   UNL     1      -3.613 -11.678  10.337  0.00  0.00    +0.132 A 
ATOM     22  C   UNL     1      -3.463  -9.274  10.153  0.00  0.00    +0.017 A 
ATOM     23  C   UNL     1      -4.425 -11.714   9.204  0.00  0.00    +0.046 A 
ATOM     24  C   UNL     1      -4.275  -9.310   9.020  0.00  0.00    +0.001 A 
ATOM     25  C   UNL     1      -4.757 -10.530   8.545  0.00  0.00    +0.004 A 
BRANCH  21   4
ATOM      4  O   UNL     1      -3.298 -12.847  10.965  0.00  0.00    -0.494 OA
ATOM     26  C   UNL     1      -4.385 -13.653  11.414  0.00  0.00    +0.277 C 
ENDBRANCH  21   4
ENDBRANCH  19  20
TORSDOF 3
ENDMDL
MODEL 5
REMARK VINA RESULT:      -6.1     27.572     29.658
REMARK  Name = 75368489
REMARK  4 active torsions:
REMARK  status: ('A' for Active; 'I' for Inactive)
REMARK    1  A    between atoms: O_4  and  C_21
REMARK    2  A    between atoms: O_4  and  C_26
REMARK    3  A    between atoms: N_5  and  C_10
REMARK    4  A    between atoms: C_19  and  C_20
REMARK                            x       y       z     vdW  Elec       q    Type
REMARK                         _______ _______ _______ _____ _____    ______ ____
ROOT
ATOM      2  O   UNL     1      -1.945 -10.836  13.680  0.00  0.00    -0.252 OA
ATOM      3  O   UNL     1      -6.112 -10.852  19.288  0.00  0.00    -0.270 OA
ATOM      5  N   UNL     1      -4.075 -10.414  12.759  0.00  0.00    -0.280 N 
ATOM      6  N   UNL     1      -3.872 -10.548  14.993  0.00  0.00    -0.278 N 
ATOM      7  N   UNL     1      -5.718 -11.092  16.997  0.00  0.00    -0.294 N 
ATOM      8  C   UNL     1      -5.258 -10.168  14.772  0.00  0.00    +0.112 C 
ATOM      9  C   UNL     1      -5.432 -10.291  13.261  0.00  0.00    +0.133 C 
ATOM     11  C   UNL     1      -6.184 -11.054  15.597  0.00  0.00    +0.132 C 
ATOM     12  C   UNL     1      -3.371 -10.700  16.348  0.00  0.00    +0.128 C 
ATOM     13  C   UNL     1      -3.144 -10.622  13.797  0.00  0.00    +0.305 C 
ATOM     14  C   UNL     1      -4.334 -11.555  17.169  0.00  0.00    +0.127 C 
ATOM     19  C   UNL     1      -6.487 -10.779  18.119  0.00  0.00    +0.250 C 
ENDROOT
BRANCH   5  10
ATOM      1  O   UNL     1      -4.728 -10.400   8.629  0.00  0.00    -0.380 OA
ATOM     10  C   UNL     1      -3.783 -10.448  11.347  0.00  0.00    +0.082 C 
ATOM     15  C   UNL     1      -4.425 -11.665  10.680  0.00  0.00    +0.050 C 
ATOM     16  C   UNL     1      -4.246  -9.161  10.663  0.00  0.00    +0.050 C 
ATOM     17  C   UNL     1      -4.222 -11.619   9.171  0.00  0.00    +0.161 C 
ATOM     18  C   UNL     1      -4.054  -9.257   9.154  0.00  0.00    +0.161 C 
ENDBRANCH   5  10
BRANCH  19  20
ATOM     20  C   UNL     1      -7.862 -10.306  17.906  0.00  0.00    +0.078 A 
ATOM     21  C   UNL     1      -8.951 -11.150  18.118  0.00  0.00    +0.132 A 
ATOM     22  C   UNL     1      -8.069  -8.993  17.482  0.00  0.00    +0.017 A 
ATOM     23  C   UNL     1     -10.248 -10.682  17.907  0.00  0.00    +0.046 A 
ATOM     24  C   UNL     1      -9.366  -8.525  17.272  0.00  0.00    +0.001 A 
ATOM     25  C   UNL     1     -10.455  -9.369  17.484  0.00  0.00    +0.004 A 
BRANCH  21   4
ATOM      4  O   UNL     1      -8.769 -12.438  18.529  0.00  0.00    -0.494 OA
ATOM     26  C   UNL     1      -9.140 -12.747  19.870  0.00  0.00    +0.277 C 
ENDBRANCH  21   4
ENDBRANCH  19  20
TORSDOF 3
ENDMDL
MODEL 6
REMARK VINA RESULT:      -6.0      0.988      2.022
REMARK  Name = 75368489
REMARK  4 active torsions:
REMARK  status: ('A' for Active; 'I' for Inactive)
REMARK    1  A    between atoms: O_4  and  C_21
REMARK    2  A    between atoms: O_4  and  C_26
REMARK    3  A    between atoms: N_5  and  C_10
REMARK    4  A    between atoms: C_19  and  C_20
REMARK                            x       y       z     vdW  Elec       q    Type
REMARK                         _______ _______ _______ _____ _____    ______ ____
ROOT
ATOM      2  O   UNL     1      18.341   5.925  19.638  0.00  0.00    -0.252 OA
ATOM      3  O   UNL     1      11.935   8.543  18.680  0.00  0.00    -0.270 OA
ATOM      5  N   UNL     1      18.254   7.695  21.195  0.00  0.00    -0.280 N 
ATOM      6  N   UNL     1      16.408   7.207  20.009  0.00  0.00    -0.278 N 
ATOM      7  N   UNL     1      14.163   8.713  19.365  0.00  0.00    -0.294 N 
ATOM      8  C   UNL     1      15.985   8.243  20.937  0.00  0.00    +0.112 C 
ATOM      9  C   UNL     1      17.289   8.709  21.580  0.00  0.00    +0.133 C 
ATOM     11  C   UNL     1      15.213   9.330  20.197  0.00  0.00    +0.132 C 
ATOM     12  C   UNL     1      15.446   6.624  19.090  0.00  0.00    +0.128 C 
ATOM     13  C   UNL     1      17.741   6.825  20.211  0.00  0.00    +0.305 C 
ATOM     14  C   UNL     1      14.654   7.728  18.391  0.00  0.00    +0.127 C 
ATOM     19  C   UNL     1      12.803   9.026  19.405  0.00  0.00    +0.250 C 
ENDROOT
BRANCH   5  10
ATOM      1  O   UNL     1      21.423   7.936  23.911  0.00  0.00    -0.380 OA
ATOM     10  C   UNL     1      19.608   7.701  21.690  0.00  0.00    +0.082 C 
ATOM     15  C   UNL     1      19.957   9.047  22.326  0.00  0.00    +0.050 C 
ATOM     16  C   UNL     1      19.828   6.567  22.692  0.00  0.00    +0.050 C 
ATOM     17  C   UNL     1      21.340   8.998  22.961  0.00  0.00    +0.161 C 
ATOM     18  C   UNL     1      21.218   6.658  23.309  0.00  0.00    +0.161 C 
ENDBRANCH   5  10
BRANCH  19  20
ATOM     20  C   UNL     1      12.348  10.005  20.401  0.00  0.00    +0.078 A 
ATOM     21  C   UNL     1      12.549  11.371  20.207  0.00  0.00    +0.132 A 
ATOM     22  C   UNL     1      11.710   9.551  21.555  0.00  0.00    +0.017 A 
ATOM     23  C   UNL     1      12.112  12.284  21.166  0.00  0.00    +0.046 A 
ATOM     24  C   UNL     1      11.273  10.465  22.515  0.00  0.00    +0.001 A 
ATOM     25  C   UNL     1      11.473  11.831  22.320  0.00  0.00    +0.004 A 
BRANCH  21   4
ATOM      4  O   UNL     1      13.174  11.834  19.086  0.00  0.00    -0.494 OA
ATOM     26  C   UNL     1      13.261  13.249  18.932  0.00  0.00    +0.277 C 
ENDBRANCH  21   4
ENDBRANCH  19  20
TORSDOF 3
ENDMDL
MODEL 7
REMARK VINA RESULT:      -6.0      1.661      7.829
REMARK  Name = 75368489
REMARK  4 active torsions:
REMARK  status: ('A' for Active; 'I' for Inactive)
REMARK    1  A    between atoms: O_4  and  C_21
REMARK    2  A    between atoms: O_4  and  C_26
REMARK    3  A    between atoms: N_5  and  C_10
REMARK    4  A    between atoms: C_19  and  C_20
REMARK                            x       y       z     vdW  Elec       q    Type
REMARK                         _______ _______ _______ _____ _____    ______ ____
ROOT
ATOM      2  O   UNL     1      13.975   6.494  18.615  0.00  0.00    -0.252 OA
ATOM      3  O   UNL     1      20.777   5.846  20.071  0.00  0.00    -0.270 OA
ATOM      5  N   UNL     1      14.213   7.745  20.601  0.00  0.00    -0.280 N 
ATOM      6  N   UNL     1      16.051   6.866  19.651  0.00  0.00    -0.278 N 
ATOM      7  N   UNL     1      18.555   6.242  20.678  0.00  0.00    -0.294 N 
ATOM      8  C   UNL     1      16.554   7.657  20.762  0.00  0.00    +0.112 C 
ATOM      9  C   UNL     1      15.292   8.067  21.517  0.00  0.00    +0.133 C 
ATOM     11  C   UNL     1      17.551   6.842  21.578  0.00  0.00    +0.132 C 
ATOM     12  C   UNL     1      16.980   6.166  18.781  0.00  0.00    +0.128 C 
ATOM     13  C   UNL     1      14.661   6.978  19.506  0.00  0.00    +0.305 C 
ATOM     14  C   UNL     1      17.996   5.391  19.618  0.00  0.00    +0.127 C 
ATOM     19  C   UNL     1      19.940   6.382  20.794  0.00  0.00    +0.250 C 
ENDROOT
BRANCH   5  10
ATOM      1  O   UNL     1      10.698   8.275  22.801  0.00  0.00    -0.380 OA
ATOM     10  C   UNL     1      12.840   8.079  20.890  0.00  0.00    +0.082 C 
ATOM     15  C   UNL     1      12.067   6.856  21.384  0.00  0.00    +0.050 C 
ATOM     16  C   UNL     1      12.758   9.210  21.916  0.00  0.00    +0.050 C 
ATOM     17  C   UNL     1      10.659   7.248  21.811  0.00  0.00    +0.161 C 
ATOM     18  C   UNL     1      11.311   9.469  22.315  0.00  0.00    +0.161 C 
ENDBRANCH   5  10
BRANCH  19  20
ATOM     20  C   UNL     1      20.459   7.252  21.858  0.00  0.00    +0.078 A 
ATOM     21  C   UNL     1      21.007   6.712  23.021  0.00  0.00    +0.132 A 
ATOM     22  C   UNL     1      20.398   8.635  21.693  0.00  0.00    +0.017 A 
ATOM     23  C   UNL     1      21.494   7.556  24.020  0.00  0.00    +0.046 A 
ATOM     24  C   UNL     1      20.884   9.479  22.692  0.00  0.00    +0.001 A 
ATOM     25  C   UNL     1      21.432   8.939  23.855  0.00  0.00    +0.004 A 
BRANCH  21   4
ATOM      4  O   UNL     1      21.074   5.362  23.202  0.00  0.00    -0.494 OA
ATOM     26  C   UNL     1      22.365   4.762  23.123  0.00  0.00    +0.277 C 
ENDBRANCH  21   4
ENDBRANCH  19  20
TORSDOF 3
ENDMDL
MODEL 8
REMARK VINA RESULT:      -5.9     27.661     30.110
REMARK  Name = 75368489
REMARK  4 active torsions:
REMARK  status: ('A' for Active; 'I' for Inactive)
REMARK    1  A    between atoms: O_4  and  C_21
REMARK    2  A    between atoms: O_4  and  C_26
REMARK    3  A    between atoms: N_5  and  C_10
REMARK    4  A    between atoms: C_19  and  C_20
REMARK                            x       y       z     vdW  Elec       q    Type
REMARK                         _______ _______ _______ _____ _____    ______ ____
ROOT
ATOM      2  O   UNL     1      -6.580 -10.607  19.260  0.00  0.00    -0.252 OA
ATOM      3  O   UNL     1      -1.615 -12.171  14.600  0.00  0.00    -0.270 OA
ATOM      5  N   UNL     1      -7.546  -9.943  17.213  0.00  0.00    -0.280 N 
ATOM      6  N   UNL     1      -5.543 -10.961  17.182  0.00  0.00    -0.278 N 
ATOM      7  N   UNL     1      -3.496 -10.975  15.303  0.00  0.00    -0.294 N 
ATOM      8  C   UNL     1      -5.895 -10.799  15.780  0.00  0.00    +0.112 C 
ATOM      9  C   UNL     1      -7.144  -9.922  15.818  0.00  0.00    +0.133 C 
ATOM     11  C   UNL     1      -4.721 -10.207  15.009  0.00  0.00    +0.132 C 
ATOM     12  C   UNL     1      -4.301 -11.621  17.543  0.00  0.00    +0.128 C 
ATOM     13  C   UNL     1      -6.560 -10.520  18.039  0.00  0.00    +0.305 C 
ATOM     14  C   UNL     1      -3.145 -11.043  16.728  0.00  0.00    +0.127 C 
ATOM     19  C   UNL     1      -2.660 -11.569  14.356  0.00  0.00    +0.250 C 
ENDROOT
BRANCH   5  10
ATOM      1  O   UNL     1     -11.554  -8.753  17.252  0.00  0.00    -0.380 OA
ATOM     10  C   UNL     1      -8.762  -9.314  17.667  0.00  0.00    +0.082 C 
ATOM     15  C   UNL     1      -9.249  -8.266  16.665  0.00  0.00    +0.050 C 
ATOM     16  C   UNL     1      -9.854 -10.355  17.918  0.00  0.00    +0.050 C 
ATOM     17  C   UNL     1     -10.599  -7.704  17.089  0.00  0.00    +0.161 C 
ATOM     18  C   UNL     1     -11.172  -9.676  18.270  0.00  0.00    +0.161 C 
ENDBRANCH   5  10
BRANCH  19  20
ATOM     20  C   UNL     1      -3.052 -11.491  12.942  0.00  0.00    +0.078 A 
ATOM     21  C   UNL     1      -3.863 -12.469  12.368  0.00  0.00    +0.132 A 
ATOM     22  C   UNL     1      -2.598 -10.420  12.171  0.00  0.00    +0.017 A 
ATOM     23  C   UNL     1      -4.222 -12.377  11.024  0.00  0.00    +0.046 A 
ATOM     24  C   UNL     1      -2.957 -10.328  10.827  0.00  0.00    +0.001 A 
ATOM     25  C   UNL     1      -3.769 -11.306  10.253  0.00  0.00    +0.004 A 
BRANCH  21   4
ATOM      4  O   UNL     1      -4.314 -13.524  13.105  0.00  0.00    -0.494 OA
ATOM     26  C   UNL     1      -5.722 -13.612  13.315  0.00  0.00    +0.277 C 
ENDBRANCH  21   4
ENDBRANCH  19  20
TORSDOF 3
ENDMDL
MODEL 9
REMARK VINA RESULT:      -5.8      2.607      9.083
REMARK  Name = 75368489
REMARK  4 active torsions:
REMARK  status: ('A' for Active; 'I' for Inactive)
REMARK    1  A    between atoms: O_4  and  C_21
REMARK    2  A    between atoms: O_4  and  C_26
REMARK    3  A    between atoms: N_5  and  C_10
REMARK    4  A    between atoms: C_19  and  C_20
REMARK                            x       y       z     vdW  Elec       q    Type
REMARK                         _______ _______ _______ _____ _____    ______ ____
ROOT
ATOM      2  O   UNL     1      17.228  10.321  21.758  0.00  0.00    -0.252 OA
ATOM      3  O   UNL     1      23.658   7.637  22.267  0.00  0.00    -0.270 OA
ATOM      5  N   UNL     1      16.890   8.040  21.265  0.00  0.00    -0.280 N 
ATOM      6  N   UNL     1      18.943   8.720  21.876  0.00  0.00    -0.278 N 
ATOM      7  N   UNL     1      21.463   7.621  21.467  0.00  0.00    -0.294 N 
ATOM      8  C   UNL     1      19.053   7.274  21.765  0.00  0.00    +0.112 C 
ATOM      9  C   UNL     1      17.722   6.855  21.147  0.00  0.00    +0.133 C 
ATOM     11  C   UNL     1      20.284   6.902  20.947  0.00  0.00    +0.132 C 
ATOM     12  C   UNL     1      20.095   9.503  22.288  0.00  0.00    +0.128 C 
ATOM     13  C   UNL     1      17.636   9.172  21.651  0.00  0.00    +0.305 C 
ATOM     14  C   UNL     1      21.326   9.084  21.486  0.00  0.00    +0.127 C 
ATOM     19  C   UNL     1      22.661   7.033  21.875  0.00  0.00    +0.250 C 
ENDROOT
BRANCH   5  10
ATOM      1  O   UNL     1      12.989   6.636  20.728  0.00  0.00    -0.380 OA
ATOM     10  C   UNL     1      15.498   8.036  20.889  0.00  0.00    +0.082 C 
ATOM     15  C   UNL     1      15.217   6.976  19.823  0.00  0.00    +0.050 C 
ATOM     16  C   UNL     1      14.604   7.812  22.109  0.00  0.00    +0.050 C 
ATOM     17  C   UNL     1      13.725   6.891  19.531  0.00  0.00    +0.161 C 
ATOM     18  C   UNL     1      13.146   7.678  21.689  0.00  0.00    +0.161 C 
ENDBRANCH   5  10
BRANCH  19  20
ATOM     20  C   UNL     1      22.754   5.567  21.855  0.00  0.00    +0.078 A 
ATOM     21  C   UNL     1      22.285   4.804  22.924  0.00  0.00    +0.132 A 
ATOM     22  C   UNL     1      23.322   4.939  20.746  0.00  0.00    +0.017 A 
ATOM     23  C   UNL     1      22.384   3.414  22.885  0.00  0.00    +0.046 A 
ATOM     24  C   UNL     1      23.421   3.549  20.707  0.00  0.00    +0.001 A 
ATOM     25  C   UNL     1      22.952   2.786  21.776  0.00  0.00    +0.004 A 
BRANCH  21   4
ATOM      4  O   UNL     1      21.729   5.400  24.017  0.00  0.00    -0.494 OA
ATOM     26  C   UNL     1      22.551   5.520  25.176  0.00  0.00    +0.277 C 
ENDBRANCH  21   4
ENDBRANCH  19  20
TORSDOF 3
ENDMDL
MODEL 10
REMARK VINA RESULT:      -5.8      3.771     10.318
REMARK  Name = 75368489
REMARK  4 active torsions:
REMARK  status: ('A' for Active; 'I' for Inactive)
REMARK    1  A    between atoms: O_4  and  C_21
REMARK    2  A    between atoms: O_4  and  C_26
REMARK    3  A    between atoms: N_5  and  C_10
REMARK    4  A    between atoms: C_19  and  C_20
REMARK                            x       y       z     vdW  Elec       q    Type
REMARK                         _______ _______ _______ _____ _____    ______ ____
ROOT
ATOM      2  O   UNL     1      18.981   9.529  21.801  0.00  0.00    -0.252 OA
ATOM      3  O   UNL     1      25.124   6.245  22.335  0.00  0.00    -0.270 OA
ATOM      5  N   UNL     1      18.524   7.400  20.894  0.00  0.00    -0.280 N 
ATOM      6  N   UNL     1      20.557   7.786  21.772  0.00  0.00    -0.278 N 
ATOM      7  N   UNL     1      23.016   6.555  21.376  0.00  0.00    -0.294 N 
ATOM      8  C   UNL     1      20.570   6.376  21.420  0.00  0.00    +0.112 C 
ATOM      9  C   UNL     1      19.275   6.183  20.637  0.00  0.00    +0.133 C 
ATOM     11  C   UNL     1      21.840   6.039  20.648  0.00  0.00    +0.132 C 
ATOM     12  C   UNL     1      21.720   8.386  22.402  0.00  0.00    +0.128 C 
ATOM     13  C   UNL     1      19.311   8.382  21.528  0.00  0.00    +0.305 C 
ATOM     14  C   UNL     1      22.985   8.001  21.639  0.00  0.00    +0.127 C 
ATOM     19  C   UNL     1      24.126   5.805  21.768  0.00  0.00    +0.250 C 
ENDROOT
BRANCH   5  10
ATOM      1  O   UNL     1      14.470   6.617  20.240  0.00  0.00    -0.380 OA
ATOM     10  C   UNL     1      17.175   7.581  20.416  0.00  0.00    +0.082 C 
ATOM     15  C   UNL     1      16.768   6.448  19.474  0.00  0.00    +0.050 C 
ATOM     16  C   UNL     1      16.192   7.681  21.583  0.00  0.00    +0.050 C 
ATOM     17  C   UNL     1      15.302   6.578  19.081  0.00  0.00    +0.161 C 
ATOM     18  C   UNL     1      14.758   7.740  21.072  0.00  0.00    +0.161 C 
ENDBRANCH   5  10
BRANCH  19  20
ATOM     20  C   UNL     1      24.113   4.360  21.500  0.00  0.00    +0.078 A 
ATOM     21  C   UNL     1      24.657   3.845  20.324  0.00  0.00    +0.132 A 
ATOM     22  C   UNL     1      23.545   3.502  22.441  0.00  0.00    +0.017 A 
ATOM     23  C   UNL     1      24.632   2.470  20.088  0.00  0.00    +0.046 A 
ATOM     24  C   UNL     1      23.520   2.127  22.205  0.00  0.00    +0.001 A 
ATOM     25  C   UNL     1      24.064   1.611  21.029  0.00  0.00    +0.004 A 
BRANCH  21   4
ATOM      4  O   UNL     1      25.214   4.668  19.391  0.00  0.00    -0.494 OA
ATOM     26  C   UNL     1      26.617   4.542  19.172  0.00  0.00    +0.277 C 
ENDBRANCH  21   4
ENDBRANCH  19  20
TORSDOF 3
ENDMDL
