MODEL 1
REMARK VINA RESULT:      -7.0      0.000      0.000
REMARK  Name = 7672478
REMARK  5 active torsions:
REMARK  status: ('A' for Active; 'I' for Inactive)
REMARK    1  A    between atoms: S_1  and  N_7
REMARK    2  A    between atoms: S_1  and  C_21
REMARK    3  A    between atoms: N_9  and  C_28
REMARK    4  A    between atoms: C_19  and  C_22
REMARK    5  A    between atoms: C_35  and  C_36
REMARK                            x       y       z     vdW  Elec       q    Type
REMARK                         _______ _______ _______ _____ _____    ______ ____
ROOT
ATOM      5  O   UNL     1      -8.837  -9.234  13.859  0.00  0.00    -0.267 OA
ATOM      7  N   UNL     1      -9.727 -11.819  18.023  0.00  0.00    -0.176 NA
ATOM      8  N   UNL     1      -9.781 -11.064  14.957  0.00  0.00    -0.311 N 
ATOM     10  C   UNL     1     -11.612 -10.814  16.730  0.00  0.00    +0.025 C 
ATOM     11  C   UNL     1     -10.784 -13.050  16.139  0.00  0.00    +0.052 C 
ATOM     12  C   UNL     1     -12.046 -12.201  16.275  0.00  0.00    +0.017 C 
ATOM     13  C   UNL     1     -10.892 -10.891  18.086  0.00  0.00    +0.114 C 
ATOM     14  C   UNL     1     -10.096 -13.173  17.511  0.00  0.00    +0.119 C 
ATOM     15  C   UNL     1     -10.739 -10.183  15.639  0.00  0.00    +0.130 C 
ATOM     16  C   UNL     1      -9.830 -12.451  15.122  0.00  0.00    +0.026 A 
ATOM     17  C   UNL     1      -9.024 -13.245  14.401  0.00  0.00    +0.022 A 
ATOM     18  C   UNL     1      -8.888 -10.450  14.056  0.00  0.00    +0.260 A 
ATOM     19  C   UNL     1      -7.974 -11.367  13.290  0.00  0.00    +0.053 A 
ATOM     20  C   UNL     1      -8.078 -12.691  13.473  0.00  0.00    +0.016 A 
ENDROOT
BRANCH  19  22
ATOM      2  S   UNL     1      -7.506 -10.325  10.825  0.00  0.00    -0.088 S 
ATOM     22  C   UNL     1      -7.011 -10.839  12.377  0.00  0.00    +0.026 A 
ATOM     25  C   UNL     1      -5.653 -10.664  12.558  0.00  0.00    +0.024 A 
ATOM     29  C   UNL     1      -4.998 -10.101  11.412  0.00  0.00    -0.010 A 
ATOM     30  C   UNL     1      -5.907  -9.862  10.376  0.00  0.00    +0.020 A 
ATOM     31  C   UNL     1      -3.638  -9.772  11.198  0.00  0.00    +0.009 A 
ATOM     32  C   UNL     1      -5.495  -9.311   9.147  0.00  0.00    +0.015 A 
ATOM     33  C   UNL     1      -3.226  -9.224   9.980  0.00  0.00    +0.001 A 
ATOM     34  C   UNL     1      -4.146  -8.998   8.967  0.00  0.00    +0.001 A 
ENDBRANCH  19  22
BRANCH   7   1
ATOM      1  S   UNL     1      -8.691 -11.801  19.385  0.00  0.00    +0.061 S 
ATOM      3  O   UNL     1      -8.541 -13.153  19.883  0.00  0.00    -0.153 OA
ATOM      4  O   UNL     1      -9.087 -10.722  20.265  0.00  0.00    -0.153 OA
BRANCH   1  21
ATOM     21  C   UNL     1      -7.171 -11.341  18.613  0.00  0.00    +0.106 A 
ATOM     23  C   UNL     1      -5.974 -11.647  19.238  0.00  0.00    +0.030 A 
ATOM     24  C   UNL     1      -7.202 -10.680  17.396  0.00  0.00    +0.030 A 
ATOM     26  C   UNL     1      -4.773 -11.284  18.628  0.00  0.00    +0.025 A 
ATOM     27  C   UNL     1      -6.001 -10.317  16.786  0.00  0.00    +0.025 A 
ATOM     28  C   UNL     1      -4.787 -10.619  17.403  0.00  0.00    +0.033 A 
BRANCH  28   9
ATOM      6  O   UNL     1      -3.152 -12.034  15.307  0.00  0.00    -0.276 OA
ATOM      9  N   UNL     1      -3.585 -10.256  16.793  0.00  0.00    -0.286 N 
ATOM     35  C   UNL     1      -2.862 -10.957  15.819  0.00  0.00    +0.214 C 
ATOM     36  C   UNL     1      -1.608 -10.223  15.416  0.00  0.00    +0.109 C 
ATOM     37  H   UNL     1      -3.192  -9.369  17.102  0.00  0.00    +0.155 HD
ENDBRANCH  28   9
ENDBRANCH   1  21
ENDBRANCH   7   1
TORSDOF 4
ENDMDL
MODEL 2
REMARK VINA RESULT:      -6.9     19.423     21.824
REMARK  Name = 7672478
REMARK  5 active torsions:
REMARK  status: ('A' for Active; 'I' for Inactive)
REMARK    1  A    between atoms: S_1  and  N_7
REMARK    2  A    between atoms: S_1  and  C_21
REMARK    3  A    between atoms: N_9  and  C_28
REMARK    4  A    between atoms: C_19  and  C_22
REMARK    5  A    between atoms: C_35  and  C_36
REMARK                            x       y       z     vdW  Elec       q    Type
REMARK                         _______ _______ _______ _____ _____    ______ ____
ROOT
ATOM      5  O   UNL     1     -14.919   9.373  19.853  0.00  0.00    -0.267 OA
ATOM      7  N   UNL     1     -11.366   9.542  16.365  0.00  0.00    -0.176 NA
ATOM      8  N   UNL     1     -12.670   9.501  19.241  0.00  0.00    -0.311 N 
ATOM     10  C   UNL     1     -11.713  11.471  17.912  0.00  0.00    +0.025 C 
ATOM     11  C   UNL     1     -10.242   9.622  18.581  0.00  0.00    +0.052 C 
ATOM     12  C   UNL     1     -10.411  11.138  18.627  0.00  0.00    +0.017 C 
ATOM     13  C   UNL     1     -11.662  11.000  16.449  0.00  0.00    +0.114 C 
ATOM     14  C   UNL     1     -10.133   9.160  17.117  0.00  0.00    +0.119 C 
ATOM     15  C   UNL     1     -12.880  10.846  18.687  0.00  0.00    +0.130 C 
ATOM     16  C   UNL     1     -11.399   8.922  19.271  0.00  0.00    +0.026 A 
ATOM     17  C   UNL     1     -11.209   7.744  19.885  0.00  0.00    +0.022 A 
ATOM     18  C   UNL     1     -13.789   8.880  19.830  0.00  0.00    +0.260 A 
ATOM     19  C   UNL     1     -13.547   7.544  20.480  0.00  0.00    +0.053 A 
ATOM     20  C   UNL     1     -12.304   7.044  20.496  0.00  0.00    +0.016 A 
ENDROOT
BRANCH  19  22
ATOM      2  S   UNL     1     -14.822   6.836  22.772  0.00  0.00    -0.088 S 
ATOM     22  C   UNL     1     -14.624   6.819  21.075  0.00  0.00    +0.026 A 
ATOM     25  C   UNL     1     -15.596   6.055  20.461  0.00  0.00    +0.024 A 
ATOM     29  C   UNL     1     -16.523   5.469  21.386  0.00  0.00    -0.010 A 
ATOM     30  C   UNL     1     -16.213   5.819  22.704  0.00  0.00    +0.020 A 
ATOM     31  C   UNL     1     -17.644   4.634  21.162  0.00  0.00    +0.009 A 
ATOM     32  C   UNL     1     -16.984   5.361  23.789  0.00  0.00    +0.015 A 
ATOM     33  C   UNL     1     -18.413   4.178  22.237  0.00  0.00    +0.001 A 
ATOM     34  C   UNL     1     -18.084   4.538  23.535  0.00  0.00    +0.001 A 
ENDBRANCH  19  22
BRANCH   7   1
ATOM      1  S   UNL     1     -11.533   8.840  14.813  0.00  0.00    +0.061 S 
ATOM      3  O   UNL     1     -10.629   7.714  14.703  0.00  0.00    -0.153 OA
ATOM      4  O   UNL     1     -11.538   9.892  13.818  0.00  0.00    -0.153 OA
BRANCH   1  21
ATOM     21  C   UNL     1     -13.174   8.202  14.936  0.00  0.00    +0.106 A 
ATOM     23  C   UNL     1     -13.774   7.654  13.813  0.00  0.00    +0.030 A 
ATOM     24  C   UNL     1     -13.836   8.260  16.151  0.00  0.00    +0.030 A 
ATOM     26  C   UNL     1     -15.070   7.149  13.910  0.00  0.00    +0.025 A 
ATOM     27  C   UNL     1     -15.132   7.755  16.248  0.00  0.00    +0.025 A 
ATOM     28  C   UNL     1     -15.749   7.200  15.127  0.00  0.00    +0.033 A 
BRANCH  28   9
ATOM      6  O   UNL     1     -16.734   4.359  15.283  0.00  0.00    -0.276 OA
ATOM      9  N   UNL     1     -17.047   6.695  15.223  0.00  0.00    -0.286 N 
ATOM     35  C   UNL     1     -17.451   5.355  15.291  0.00  0.00    +0.214 C 
ATOM     36  C   UNL     1     -18.950   5.226  15.388  0.00  0.00    +0.109 C 
ATOM     37  H   UNL     1     -17.785   7.395  15.245  0.00  0.00    +0.155 HD
ENDBRANCH  28   9
ENDBRANCH   1  21
ENDBRANCH   7   1
TORSDOF 4
ENDMDL
MODEL 3
REMARK VINA RESULT:      -6.8      2.728      6.854
REMARK  Name = 7672478
REMARK  5 active torsions:
REMARK  status: ('A' for Active; 'I' for Inactive)
REMARK    1  A    between atoms: S_1  and  N_7
REMARK    2  A    between atoms: S_1  and  C_21
REMARK    3  A    between atoms: N_9  and  C_28
REMARK    4  A    between atoms: C_19  and  C_22
REMARK    5  A    between atoms: C_35  and  C_36
REMARK                            x       y       z     vdW  Elec       q    Type
REMARK                         _______ _______ _______ _____ _____    ______ ____
ROOT
ATOM      5  O   UNL     1      -7.746  -8.918  17.346  0.00  0.00    -0.267 OA
ATOM      7  N   UNL     1      -3.889 -11.719  15.897  0.00  0.00    -0.176 NA
ATOM      8  N   UNL     1      -6.661 -10.981  17.218  0.00  0.00    -0.311 N 
ATOM     10  C   UNL     1      -4.392 -11.417  18.324  0.00  0.00    +0.025 C 
ATOM     11  C   UNL     1      -5.499 -13.211  17.064  0.00  0.00    +0.052 C 
ATOM     12  C   UNL     1      -4.869 -12.860  18.410  0.00  0.00    +0.017 C 
ATOM     13  C   UNL     1      -3.347 -11.258  17.207  0.00  0.00    +0.114 C 
ATOM     14  C   UNL     1      -4.436 -13.108  15.955  0.00  0.00    +0.119 C 
ATOM     15  C   UNL     1      -5.607 -10.502  18.123  0.00  0.00    +0.130 C 
ATOM     16  C   UNL     1      -6.673 -12.299  16.757  0.00  0.00    +0.026 A 
ATOM     17  C   UNL     1      -7.706 -12.749  16.027  0.00  0.00    +0.022 A 
ATOM     18  C   UNL     1      -7.705 -10.078  16.931  0.00  0.00    +0.260 A 
ATOM     19  C   UNL     1      -8.829 -10.605  16.082  0.00  0.00    +0.053 A 
ATOM     20  C   UNL     1      -8.800 -11.884  15.683  0.00  0.00    +0.016 A 
ENDROOT
BRANCH  19  22
ATOM      2  S   UNL     1     -10.072  -9.244  14.086  0.00  0.00    -0.088 S 
ATOM     22  C   UNL     1      -9.917  -9.758  15.708  0.00  0.00    +0.026 A 
ATOM     25  C   UNL     1     -10.932  -9.255  16.497  0.00  0.00    +0.024 A 
ATOM     29  C   UNL     1     -11.857  -8.432  15.771  0.00  0.00    -0.010 A 
ATOM     30  C   UNL     1     -11.501  -8.340  14.422  0.00  0.00    +0.020 A 
ATOM     31  C   UNL     1     -13.014  -7.742  16.208  0.00  0.00    +0.009 A 
ATOM     32  C   UNL     1     -12.263  -7.583  13.510  0.00  0.00    +0.015 A 
ATOM     33  C   UNL     1     -13.773  -6.992  15.305  0.00  0.00    +0.001 A 
ATOM     34  C   UNL     1     -13.399  -6.914  13.971  0.00  0.00    +0.001 A 
ENDBRANCH  19  22
BRANCH   7   1
ATOM      1  S   UNL     1      -2.925 -11.362  14.529  0.00  0.00    +0.061 S 
ATOM      3  O   UNL     1      -2.508 -12.602  13.907  0.00  0.00    -0.153 OA
ATOM      4  O   UNL     1      -1.957 -10.346  14.887  0.00  0.00    -0.153 OA
BRANCH   1  21
ATOM     21  C   UNL     1      -4.134 -10.615  13.483  0.00  0.00    +0.106 A 
ATOM     23  C   UNL     1      -3.815 -10.350  12.161  0.00  0.00    +0.030 A 
ATOM     24  C   UNL     1      -5.380 -10.304  14.001  0.00  0.00    +0.030 A 
ATOM     26  C   UNL     1      -4.771  -9.760  11.334  0.00  0.00    +0.025 A 
ATOM     27  C   UNL     1      -6.336  -9.714  13.174  0.00  0.00    +0.025 A 
ATOM     28  C   UNL     1      -6.031  -9.442  11.840  0.00  0.00    +0.033 A 
BRANCH  28   9
ATOM      6  O   UNL     1      -8.502 -10.602  10.570  0.00  0.00    -0.276 OA
ATOM      9  N   UNL     1      -6.986  -8.851  11.012  0.00  0.00    -0.286 N 
ATOM     35  C   UNL     1      -8.123  -9.442  10.444  0.00  0.00    +0.214 C 
ATOM     36  C   UNL     1      -8.904  -8.461   9.606  0.00  0.00    +0.109 C 
ATOM     37  H   UNL     1      -6.829  -7.868  10.799  0.00  0.00    +0.155 HD
ENDBRANCH  28   9
ENDBRANCH   1  21
ENDBRANCH   7   1
TORSDOF 4
ENDMDL
MODEL 4
REMARK VINA RESULT:      -6.8     26.165     29.064
REMARK  Name = 7672478
REMARK  5 active torsions:
REMARK  status: ('A' for Active; 'I' for Inactive)
REMARK    1  A    between atoms: S_1  and  N_7
REMARK    2  A    between atoms: S_1  and  C_21
REMARK    3  A    between atoms: N_9  and  C_28
REMARK    4  A    between atoms: C_19  and  C_22
REMARK    5  A    between atoms: C_35  and  C_36
REMARK                            x       y       z     vdW  Elec       q    Type
REMARK                         _______ _______ _______ _____ _____    ______ ____
ROOT
ATOM      5  O   UNL     1      10.091   6.876   1.051  0.00  0.00    -0.267 OA
ATOM      7  N   UNL     1      11.051   7.265   5.924  0.00  0.00    -0.176 NA
ATOM      8  N   UNL     1       9.811   6.138   3.247  0.00  0.00    -0.311 N 
ATOM     10  C   UNL     1       8.731   7.588   5.061  0.00  0.00    +0.025 C 
ATOM     11  C   UNL     1       9.521   5.329   5.615  0.00  0.00    +0.052 C 
ATOM     12  C   UNL     1       8.312   6.259   5.676  0.00  0.00    +0.017 C 
ATOM     13  C   UNL     1       9.897   8.205   5.850  0.00  0.00    +0.114 C 
ATOM     14  C   UNL     1      10.668   5.921   6.454  0.00  0.00    +0.119 C 
ATOM     15  C   UNL     1       9.076   7.366   3.583  0.00  0.00    +0.130 C 
ATOM     16  C   UNL     1       9.972   5.113   4.182  0.00  0.00    +0.026 A 
ATOM     17  C   UNL     1      10.543   3.953   3.820  0.00  0.00    +0.022 A 
ATOM     18  C   UNL     1      10.245   6.008   1.912  0.00  0.00    +0.260 A 
ATOM     19  C   UNL     1      10.912   4.709   1.550  0.00  0.00    +0.053 A 
ATOM     20  C   UNL     1      11.022   3.752   2.482  0.00  0.00    +0.016 A 
ENDROOT
BRANCH  19  22
ATOM      2  S   UNL     1      13.026   4.927  -0.142  0.00  0.00    -0.088 S 
ATOM     22  C   UNL     1      11.417   4.493   0.231  0.00  0.00    +0.026 A 
ATOM     25  C   UNL     1      10.772   3.953  -0.864  0.00  0.00    +0.024 A 
ATOM     29  C   UNL     1      11.601   3.891  -2.034  0.00  0.00    -0.010 A 
ATOM     30  C   UNL     1      12.878   4.398  -1.776  0.00  0.00    +0.020 A 
ATOM     31  C   UNL     1      11.320   3.413  -3.336  0.00  0.00    +0.009 A 
ATOM     32  C   UNL     1      13.869   4.440  -2.776  0.00  0.00    +0.015 A 
ATOM     33  C   UNL     1      12.302   3.452  -4.331  0.00  0.00    +0.001 A 
ATOM     34  C   UNL     1      13.561   3.961  -4.052  0.00  0.00    +0.001 A 
ENDBRANCH  19  22
BRANCH   7   1
ATOM      1  S   UNL     1      12.503   7.921   6.550  0.00  0.00    +0.061 S 
ATOM      3  O   UNL     1      12.954   7.100   7.655  0.00  0.00    -0.153 OA
ATOM      4  O   UNL     1      12.346   9.352   6.701  0.00  0.00    -0.153 OA
BRANCH   1  21
ATOM     21  C   UNL     1      13.587   7.633   5.188  0.00  0.00    +0.106 A 
ATOM     23  C   UNL     1      13.051   7.329   3.947  0.00  0.00    +0.030 A 
ATOM     24  C   UNL     1      14.956   7.715   5.381  0.00  0.00    +0.030 A 
ATOM     26  C   UNL     1      13.907   7.101   2.870  0.00  0.00    +0.025 A 
ATOM     27  C   UNL     1      15.813   7.488   4.305  0.00  0.00    +0.025 A 
ATOM     28  C   UNL     1      15.288   7.181   3.049  0.00  0.00    +0.033 A 
BRANCH  28   9
ATOM      6  O   UNL     1      15.842   8.851   0.606  0.00  0.00    -0.276 OA
ATOM      9  N   UNL     1      16.145   6.953   1.971  0.00  0.00    -0.286 N 
ATOM     35  C   UNL     1      16.364   7.768   0.853  0.00  0.00    +0.214 C 
ATOM     36  C   UNL     1      17.373   7.164  -0.092  0.00  0.00    +0.109 C 
ATOM     37  H   UNL     1      16.672   6.083   2.011  0.00  0.00    +0.155 HD
ENDBRANCH  28   9
ENDBRANCH   1  21
ENDBRANCH   7   1
TORSDOF 4
ENDMDL
MODEL 5
REMARK VINA RESULT:      -6.8     21.235     24.736
REMARK  Name = 7672478
REMARK  5 active torsions:
REMARK  status: ('A' for Active; 'I' for Inactive)
REMARK    1  A    between atoms: S_1  and  N_7
REMARK    2  A    between atoms: S_1  and  C_21
REMARK    3  A    between atoms: N_9  and  C_28
REMARK    4  A    between atoms: C_19  and  C_22
REMARK    5  A    between atoms: C_35  and  C_36
REMARK                            x       y       z     vdW  Elec       q    Type
REMARK                         _______ _______ _______ _____ _____    ______ ____
ROOT
ATOM      5  O   UNL     1       9.292  -9.569  33.204  0.00  0.00    -0.267 OA
ATOM      7  N   UNL     1       8.273  -5.817  36.318  0.00  0.00    -0.176 NA
ATOM      8  N   UNL     1       8.680  -7.350  33.587  0.00  0.00    -0.311 N 
ATOM     10  C   UNL     1      10.223  -5.678  34.765  0.00  0.00    +0.025 C 
ATOM     11  C   UNL     1       8.003  -4.959  33.999  0.00  0.00    +0.052 C 
ATOM     12  C   UNL     1       9.492  -4.633  33.933  0.00  0.00    +0.017 C 
ATOM     13  C   UNL     1       9.749  -5.633  36.227  0.00  0.00    +0.114 C 
ATOM     14  C   UNL     1       7.518  -4.856  35.457  0.00  0.00    +0.119 C 
ATOM     15  C   UNL     1      10.016  -7.057  34.125  0.00  0.00    +0.130 C 
ATOM     16  C   UNL     1       7.721  -6.344  33.446  0.00  0.00    +0.026 A 
ATOM     17  C   UNL     1       6.551  -6.608  32.845  0.00  0.00    +0.022 A 
ATOM     18  C   UNL     1       8.460  -8.664  33.127  0.00  0.00    +0.260 A 
ATOM     19  C   UNL     1       7.124  -8.933  32.491  0.00  0.00    +0.053 A 
ATOM     20  C   UNL     1       6.248  -7.926  32.363  0.00  0.00    +0.016 A 
ENDROOT
BRANCH  19  22
ATOM      2  S   UNL     1       6.184 -11.404  33.118  0.00  0.00    -0.088 S 
ATOM     22  C   UNL     1       6.791 -10.242  32.023  0.00  0.00    +0.026 A 
ATOM     25  C   UNL     1       6.886 -10.752  30.744  0.00  0.00    +0.024 A 
ATOM     29  C   UNL     1       6.457 -12.119  30.648  0.00  0.00    -0.010 A 
ATOM     30  C   UNL     1       6.041 -12.607  31.891  0.00  0.00    +0.020 A 
ATOM     31  C   UNL     1       6.400 -12.989  29.533  0.00  0.00    +0.009 A 
ATOM     32  C   UNL     1       5.576 -13.927  32.045  0.00  0.00    +0.015 A 
ATOM     33  C   UNL     1       5.938 -14.300  29.683  0.00  0.00    +0.001 A 
ATOM     34  C   UNL     1       5.532 -14.762  30.926  0.00  0.00    +0.001 A 
ENDBRANCH  19  22
BRANCH   7   1
ATOM      1  S   UNL     1       7.649  -6.042  37.895  0.00  0.00    +0.061 S 
ATOM      3  O   UNL     1       7.079  -4.795  38.362  0.00  0.00    -0.153 OA
ATOM      4  O   UNL     1       8.626  -6.758  38.690  0.00  0.00    -0.153 OA
BRANCH   1  21
ATOM     21  C   UNL     1       6.317  -7.147  37.548  0.00  0.00    +0.106 A 
ATOM     23  C   UNL     1       6.452  -8.071  36.525  0.00  0.00    +0.030 A 
ATOM     24  C   UNL     1       5.159  -7.071  38.303  0.00  0.00    +0.030 A 
ATOM     26  C   UNL     1       5.400  -8.944  36.250  0.00  0.00    +0.025 A 
ATOM     27  C   UNL     1       4.106  -7.944  38.029  0.00  0.00    +0.025 A 
ATOM     28  C   UNL     1       4.227  -8.880  37.002  0.00  0.00    +0.033 A 
BRANCH  28   9
ATOM      6  O   UNL     1       3.634 -11.628  38.081  0.00  0.00    -0.276 OA
ATOM      9  N   UNL     1       3.174  -9.754  36.727  0.00  0.00    -0.286 N 
ATOM     35  C   UNL     1       2.947 -11.029  37.259  0.00  0.00    +0.214 C 
ATOM     36  C   UNL     1       1.691 -11.653  36.704  0.00  0.00    +0.109 C 
ATOM     37  H   UNL     1       2.491  -9.413  36.053  0.00  0.00    +0.155 HD
ENDBRANCH  28   9
ENDBRANCH   1  21
ENDBRANCH   7   1
TORSDOF 4
ENDMDL
MODEL 6
REMARK VINA RESULT:      -6.8      3.342      8.021
REMARK  Name = 7672478
REMARK  5 active torsions:
REMARK  status: ('A' for Active; 'I' for Inactive)
REMARK    1  A    between atoms: S_1  and  N_7
REMARK    2  A    between atoms: S_1  and  C_21
REMARK    3  A    between atoms: N_9  and  C_28
REMARK    4  A    between atoms: C_19  and  C_22
REMARK    5  A    between atoms: C_35  and  C_36
REMARK                            x       y       z     vdW  Elec       q    Type
REMARK                         _______ _______ _______ _____ _____    ______ ____
ROOT
ATOM      5  O   UNL     1      -6.705 -10.418  14.245  0.00  0.00    -0.267 OA
ATOM      7  N   UNL     1      -2.568 -13.043  13.343  0.00  0.00    -0.176 NA
ATOM      8  N   UNL     1      -4.381 -10.634  14.282  0.00  0.00    -0.311 N 
ATOM     10  C   UNL     1      -2.986 -10.891  12.149  0.00  0.00    +0.025 C 
ATOM     11  C   UNL     1      -1.874 -10.873  14.338  0.00  0.00    +0.052 C 
ATOM     12  C   UNL     1      -1.883 -10.222  12.958  0.00  0.00    +0.017 C 
ATOM     13  C   UNL     1      -2.715 -12.397  12.008  0.00  0.00    +0.114 C 
ATOM     14  C   UNL     1      -1.545 -12.370  14.199  0.00  0.00    +0.119 C 
ATOM     15  C   UNL     1      -4.338 -10.599  12.813  0.00  0.00    +0.130 C 
ATOM     16  C   UNL     1      -3.208 -10.688  15.038  0.00  0.00    +0.026 A 
ATOM     17  C   UNL     1      -3.264 -10.601  16.376  0.00  0.00    +0.022 A 
ATOM     18  C   UNL     1      -5.651 -10.502  14.879  0.00  0.00    +0.260 A 
ATOM     19  C   UNL     1      -5.680 -10.443  16.382  0.00  0.00    +0.053 A 
ATOM     20  C   UNL     1      -4.523 -10.480  17.057  0.00  0.00    +0.016 A 
ENDROOT
BRANCH  19  22
ATOM      2  S   UNL     1      -7.224 -11.367  18.416  0.00  0.00    -0.088 S 
ATOM     22  C   UNL     1      -6.921 -10.344  17.083  0.00  0.00    +0.026 A 
ATOM     25  C   UNL     1      -7.985  -9.498  16.841  0.00  0.00    +0.024 A 
ATOM     29  C   UNL     1      -9.073  -9.683  17.758  0.00  0.00    -0.010 A 
ATOM     30  C   UNL     1      -8.787 -10.689  18.687  0.00  0.00    +0.020 A 
ATOM     31  C   UNL     1     -10.324  -9.026  17.847  0.00  0.00    +0.009 A 
ATOM     32  C   UNL     1      -9.708 -11.050  19.689  0.00  0.00    +0.015 A 
ATOM     33  C   UNL     1     -11.240  -9.381  18.841  0.00  0.00    +0.001 A 
ATOM     34  C   UNL     1     -10.934 -10.383  19.750  0.00  0.00    +0.001 A 
ENDBRANCH  19  22
BRANCH   7   1
ATOM      1  S   UNL     1      -2.518 -14.753  13.338  0.00  0.00    +0.061 S 
ATOM      3  O   UNL     1      -1.266 -15.192  13.920  0.00  0.00    -0.153 OA
ATOM      4  O   UNL     1      -2.944 -15.234  12.040  0.00  0.00    -0.153 OA
BRANCH   1  21
ATOM     21  C   UNL     1      -3.803 -15.105  14.496  0.00  0.00    +0.106 A 
ATOM     23  C   UNL     1      -4.093 -16.424  14.805  0.00  0.00    +0.030 A 
ATOM     24  C   UNL     1      -4.500 -14.058  15.074  0.00  0.00    +0.030 A 
ATOM     26  C   UNL     1      -5.108 -16.703  15.720  0.00  0.00    +0.025 A 
ATOM     27  C   UNL     1      -5.515 -14.336  15.989  0.00  0.00    +0.025 A 
ATOM     28  C   UNL     1      -5.819 -15.659  16.312  0.00  0.00    +0.033 A 
BRANCH  28   9
ATOM      6  O   UNL     1      -8.756 -16.163  15.881  0.00  0.00    -0.276 OA
ATOM      9  N   UNL     1      -6.834 -15.938  17.228  0.00  0.00    -0.286 N 
ATOM     35  C   UNL     1      -8.193 -16.164  16.972  0.00  0.00    +0.214 C 
ATOM     36  C   UNL     1      -8.965 -16.434  18.239  0.00  0.00    +0.109 C 
ATOM     37  H   UNL     1      -6.542 -15.981  18.202  0.00  0.00    +0.155 HD
ENDBRANCH  28   9
ENDBRANCH   1  21
ENDBRANCH   7   1
TORSDOF 4
ENDMDL
MODEL 7
REMARK VINA RESULT:      -6.8      2.947      6.383
REMARK  Name = 7672478
REMARK  5 active torsions:
REMARK  status: ('A' for Active; 'I' for Inactive)
REMARK    1  A    between atoms: S_1  and  N_7
REMARK    2  A    between atoms: S_1  and  C_21
REMARK    3  A    between atoms: N_9  and  C_28
REMARK    4  A    between atoms: C_19  and  C_22
REMARK    5  A    between atoms: C_35  and  C_36
REMARK                            x       y       z     vdW  Elec       q    Type
REMARK                         _______ _______ _______ _____ _____    ______ ____
ROOT
ATOM      5  O   UNL     1      -6.001 -12.195  10.548  0.00  0.00    -0.267 OA
ATOM      7  N   UNL     1      -3.491 -12.178  14.852  0.00  0.00    -0.176 NA
ATOM      8  N   UNL     1      -3.992 -12.258  11.735  0.00  0.00    -0.311 N 
ATOM     10  C   UNL     1      -3.398 -14.163  13.340  0.00  0.00    +0.025 C 
ATOM     11  C   UNL     1      -1.822 -12.307  13.013  0.00  0.00    +0.052 C 
ATOM     12  C   UNL     1      -1.956 -13.827  12.981  0.00  0.00    +0.017 C 
ATOM     13  C   UNL     1      -3.739 -13.644  14.746  0.00  0.00    +0.114 C 
ATOM     14  C   UNL     1      -2.108 -11.796  14.437  0.00  0.00    +0.119 C 
ATOM     15  C   UNL     1      -4.326 -13.588  12.263  0.00  0.00    +0.130 C 
ATOM     16  C   UNL     1      -2.764 -11.654  12.019  0.00  0.00    +0.026 A 
ATOM     17  C   UNL     1      -2.432 -10.494  11.433  0.00  0.00    +0.022 A 
ATOM     18  C   UNL     1      -4.923 -11.678  10.849  0.00  0.00    +0.260 A 
ATOM     19  C   UNL     1      -4.533 -10.361  10.238  0.00  0.00    +0.053 A 
ATOM     20  C   UNL     1      -3.334  -9.836  10.530  0.00  0.00    +0.016 A 
ENDROOT
BRANCH  19  22
ATOM      2  S   UNL     1      -5.515 -10.145   7.714  0.00  0.00    -0.088 S 
ATOM     22  C   UNL     1      -5.423  -9.676   9.354  0.00  0.00    +0.026 A 
ATOM     25  C   UNL     1      -6.278  -8.628   9.629  0.00  0.00    +0.024 A 
ATOM     29  C   UNL     1      -7.025  -8.193   8.483  0.00  0.00    -0.010 A 
ATOM     30  C   UNL     1      -6.702  -8.948   7.351  0.00  0.00    +0.020 A 
ATOM     31  C   UNL     1      -7.990  -7.166   8.349  0.00  0.00    +0.009 A 
ATOM     32  C   UNL     1      -7.310  -8.704   6.105  0.00  0.00    +0.015 A 
ATOM     33  C   UNL     1      -8.596  -6.921   7.113  0.00  0.00    +0.001 A 
ATOM     34  C   UNL     1      -8.258  -7.683   6.004  0.00  0.00    +0.001 A 
ENDBRANCH  19  22
BRANCH   7   1
ATOM      1  S   UNL     1      -4.069 -11.429  16.278  0.00  0.00    +0.061 S 
ATOM      3  O   UNL     1      -3.185 -10.337  16.630  0.00  0.00    -0.153 OA
ATOM      4  O   UNL     1      -4.408 -12.453  17.244  0.00  0.00    -0.153 OA
BRANCH   1  21
ATOM     21  C   UNL     1      -5.574 -10.731  15.675  0.00  0.00    +0.106 A 
ATOM     23  C   UNL     1      -6.574 -10.400  16.574  0.00  0.00    +0.030 A 
ATOM     24  C   UNL     1      -5.729 -10.528  14.314  0.00  0.00    +0.030 A 
ATOM     26  C   UNL     1      -7.763  -9.848  16.098  0.00  0.00    +0.025 A 
ATOM     27  C   UNL     1      -6.918  -9.976  13.838  0.00  0.00    +0.025 A 
ATOM     28  C   UNL     1      -7.936  -9.636  14.731  0.00  0.00    +0.033 A 
BRANCH  28   9
ATOM      6  O   UNL     1     -10.474 -10.964  13.803  0.00  0.00    -0.276 OA
ATOM      9  N   UNL     1      -9.126  -9.083  14.255  0.00  0.00    -0.286 N 
ATOM     35  C   UNL     1     -10.282  -9.752  13.833  0.00  0.00    +0.214 C 
ATOM     36  C   UNL     1     -11.355  -8.790  13.389  0.00  0.00    +0.109 C 
ATOM     37  H   UNL     1      -9.146  -8.066  14.213  0.00  0.00    +0.155 HD
ENDBRANCH  28   9
ENDBRANCH   1  21
ENDBRANCH   7   1
TORSDOF 4
ENDMDL
MODEL 8
REMARK VINA RESULT:      -6.7     25.855     30.404
REMARK  Name = 7672478
REMARK  5 active torsions:
REMARK  status: ('A' for Active; 'I' for Inactive)
REMARK    1  A    between atoms: S_1  and  N_7
REMARK    2  A    between atoms: S_1  and  C_21
REMARK    3  A    between atoms: N_9  and  C_28
REMARK    4  A    between atoms: C_19  and  C_22
REMARK    5  A    between atoms: C_35  and  C_36
REMARK                            x       y       z     vdW  Elec       q    Type
REMARK                         _______ _______ _______ _____ _____    ______ ____
ROOT
ATOM      5  O   UNL     1      12.349   3.399   2.073  0.00  0.00    -0.267 OA
ATOM      7  N   UNL     1      13.341   5.368  -2.394  0.00  0.00    -0.176 NA
ATOM      8  N   UNL     1      11.665   4.065  -0.057  0.00  0.00    -0.311 N 
ATOM     10  C   UNL     1      12.582   2.998  -2.197  0.00  0.00    +0.025 C 
ATOM     11  C   UNL     1      10.921   4.801  -2.348  0.00  0.00    +0.052 C 
ATOM     12  C   UNL     1      11.233   3.375  -2.795  0.00  0.00    +0.017 C 
ATOM     13  C   UNL     1      13.680   3.949  -2.698  0.00  0.00    +0.114 C 
ATOM     14  C   UNL     1      11.991   5.760  -2.901  0.00  0.00    +0.119 C 
ATOM     15  C   UNL     1      12.465   2.994  -0.667  0.00  0.00    +0.130 C 
ATOM     16  C   UNL     1      10.856   4.897  -0.835  0.00  0.00    +0.026 A 
ATOM     17  C   UNL     1      10.045   5.791  -0.248  0.00  0.00    +0.022 A 
ATOM     18  C   UNL     1      11.675   4.136   1.351  0.00  0.00    +0.260 A 
ATOM     19  C   UNL     1      10.781   5.172   1.975  0.00  0.00    +0.053 A 
ATOM     20  C   UNL     1      10.011   5.931   1.181  0.00  0.00    +0.016 A 
ENDROOT
BRANCH  19  22
ATOM      2  S   UNL     1      11.705   6.556   4.122  0.00  0.00    -0.088 S 
ATOM     22  C   UNL     1      10.746   5.346   3.392  0.00  0.00    +0.026 A 
ATOM     25  C   UNL     1      10.012   4.648   4.330  0.00  0.00    +0.024 A 
ATOM     29  C   UNL     1      10.233   5.104   5.673  0.00  0.00    -0.010 A 
ATOM     30  C   UNL     1      11.150   6.159   5.705  0.00  0.00    +0.020 A 
ATOM     31  C   UNL     1       9.681   4.658   6.899  0.00  0.00    +0.009 A 
ATOM     32  C   UNL     1      11.526   6.772   6.917  0.00  0.00    +0.015 A 
ATOM     33  C   UNL     1      10.051   5.265   8.103  0.00  0.00    +0.001 A 
ATOM     34  C   UNL     1      10.964   6.309   8.109  0.00  0.00    +0.001 A 
ENDBRANCH  19  22
BRANCH   7   1
ATOM      1  S   UNL     1      14.591   6.505  -2.668  0.00  0.00    +0.061 S 
ATOM      3  O   UNL     1      14.012   7.731  -3.176  0.00  0.00    -0.153 OA
ATOM      4  O   UNL     1      15.679   5.850  -3.364  0.00  0.00    -0.153 OA
BRANCH   1  21
ATOM     21  C   UNL     1      15.110   6.802  -1.007  0.00  0.00    +0.106 A 
ATOM     23  C   UNL     1      14.249   6.500   0.036  0.00  0.00    +0.030 A 
ATOM     24  C   UNL     1      16.367   7.334  -0.774  0.00  0.00    +0.030 A 
ATOM     26  C   UNL     1      14.659   6.735   1.348  0.00  0.00    +0.025 A 
ATOM     27  C   UNL     1      16.777   7.568   0.538  0.00  0.00    +0.025 A 
ATOM     28  C   UNL     1      15.922   7.269   1.599  0.00  0.00    +0.033 A 
BRANCH  28   9
ATOM      6  O   UNL     1      14.878   9.204   3.656  0.00  0.00    -0.276 OA
ATOM      9  N   UNL     1      16.332   7.504   2.913  0.00  0.00    -0.286 N 
ATOM     35  C   UNL     1      15.808   8.423   3.831  0.00  0.00    +0.214 C 
ATOM     36  C   UNL     1      16.532   8.368   5.153  0.00  0.00    +0.109 C 
ATOM     37  H   UNL     1      17.109   6.931   3.235  0.00  0.00    +0.155 HD
ENDBRANCH  28   9
ENDBRANCH   1  21
ENDBRANCH   7   1
TORSDOF 4
ENDMDL
MODEL 9
REMARK VINA RESULT:      -6.7     27.635     29.730
REMARK  Name = 7672478
REMARK  5 active torsions:
REMARK  status: ('A' for Active; 'I' for Inactive)
REMARK    1  A    between atoms: S_1  and  N_7
REMARK    2  A    between atoms: S_1  and  C_21
REMARK    3  A    between atoms: N_9  and  C_28
REMARK    4  A    between atoms: C_19  and  C_22
REMARK    5  A    between atoms: C_35  and  C_36
REMARK                            x       y       z     vdW  Elec       q    Type
REMARK                         _______ _______ _______ _____ _____    ______ ____
ROOT
ATOM      5  O   UNL     1      11.975   7.927   1.510  0.00  0.00    -0.267 OA
ATOM      7  N   UNL     1      13.168   3.707  -0.854  0.00  0.00    -0.176 NA
ATOM      8  N   UNL     1      12.677   5.701   1.545  0.00  0.00    -0.311 N 
ATOM     10  C   UNL     1      14.879   4.932   0.489  0.00  0.00    +0.025 C 
ATOM     11  C   UNL     1      13.416   3.293   1.586  0.00  0.00    +0.052 C 
ATOM     12  C   UNL     1      14.841   3.837   1.546  0.00  0.00    +0.017 C 
ATOM     13  C   UNL     1      14.504   4.365  -0.890  0.00  0.00    +0.114 C 
ATOM     14  C   UNL     1      13.063   2.674   0.221  0.00  0.00    +0.119 C 
ATOM     15  C   UNL     1      13.954   6.076   0.923  0.00  0.00    +0.130 C 
ATOM     16  C   UNL     1      12.424   4.386   1.942  0.00  0.00    +0.026 A 
ATOM     17  C   UNL     1      11.301   4.087   2.613  0.00  0.00    +0.022 A 
ATOM     18  C   UNL     1      11.774   6.750   1.814  0.00  0.00    +0.260 A 
ATOM     19  C   UNL     1      10.509   6.374   2.537  0.00  0.00    +0.053 A 
ATOM     20  C   UNL     1      10.327   5.100   2.912  0.00  0.00    +0.016 A 
ENDROOT
BRANCH  19  22
ATOM      2  S   UNL     1       9.264   7.861   4.439  0.00  0.00    -0.088 S 
ATOM     22  C   UNL     1       9.516   7.360   2.826  0.00  0.00    +0.026 A 
ATOM     25  C   UNL     1       8.670   8.016   1.954  0.00  0.00    +0.024 A 
ATOM     29  C   UNL     1       7.797   8.948   2.609  0.00  0.00    -0.010 A 
ATOM     30  C   UNL     1       8.018   8.965   3.990  0.00  0.00    +0.020 A 
ATOM     31  C   UNL     1       6.800   9.803   2.080  0.00  0.00    +0.009 A 
ATOM     32  C   UNL     1       7.277   9.804   4.844  0.00  0.00    +0.015 A 
ATOM     33  C   UNL     1       6.063  10.638   2.925  0.00  0.00    +0.001 A 
ATOM     34  C   UNL     1       6.300  10.636   4.292  0.00  0.00    +0.001 A 
ENDBRANCH  19  22
BRANCH   7   1
ATOM      1  S   UNL     1      12.519   3.260  -2.373  0.00  0.00    +0.061 S 
ATOM      3  O   UNL     1      12.113   1.871  -2.324  0.00  0.00    -0.153 OA
ATOM      4  O   UNL     1      13.395   3.744  -3.420  0.00  0.00    -0.153 OA
BRANCH   1  21
ATOM     21  C   UNL     1      11.057   4.249  -2.389  0.00  0.00    +0.106 A 
ATOM     23  C   UNL     1      10.753   5.027  -1.284  0.00  0.00    +0.030 A 
ATOM     24  C   UNL     1      10.237   4.229  -3.505  0.00  0.00    +0.030 A 
ATOM     26  C   UNL     1       9.598   5.808  -1.297  0.00  0.00    +0.025 A 
ATOM     27  C   UNL     1       9.082   5.010  -3.518  0.00  0.00    +0.025 A 
ATOM     28  C   UNL     1       8.762   5.799  -2.413  0.00  0.00    +0.033 A 
BRANCH  28   9
ATOM      6  O   UNL     1       8.370   8.698  -3.128  0.00  0.00    -0.276 OA
ATOM      9  N   UNL     1       7.606   6.581  -2.425  0.00  0.00    -0.286 N 
ATOM     35  C   UNL     1       7.480   7.934  -2.766  0.00  0.00    +0.214 C 
ATOM     36  C   UNL     1       6.053   8.410  -2.651  0.00  0.00    +0.109 C 
ATOM     37  H   UNL     1       6.753   6.099  -2.149  0.00  0.00    +0.155 HD
ENDBRANCH  28   9
ENDBRANCH   1  21
ENDBRANCH   7   1
TORSDOF 4
ENDMDL
MODEL 10
REMARK VINA RESULT:      -6.6     26.527     29.747
REMARK  Name = 7672478
REMARK  5 active torsions:
REMARK  status: ('A' for Active; 'I' for Inactive)
REMARK    1  A    between atoms: S_1  and  N_7
REMARK    2  A    between atoms: S_1  and  C_21
REMARK    3  A    between atoms: N_9  and  C_28
REMARK    4  A    between atoms: C_19  and  C_22
REMARK    5  A    between atoms: C_35  and  C_36
REMARK                            x       y       z     vdW  Elec       q    Type
REMARK                         _______ _______ _______ _____ _____    ______ ____
ROOT
ATOM      5  O   UNL     1      11.630   7.270   0.789  0.00  0.00    -0.267 OA
ATOM      7  N   UNL     1      11.807   3.786  -2.768  0.00  0.00    -0.176 NA
ATOM      8  N   UNL     1      12.689   5.463  -0.241  0.00  0.00    -0.311 N 
ATOM     10  C   UNL     1      13.558   5.562  -2.648  0.00  0.00    +0.025 C 
ATOM     11  C   UNL     1      13.823   3.500  -1.341  0.00  0.00    +0.052 C 
ATOM     12  C   UNL     1      14.575   4.534  -2.174  0.00  0.00    +0.017 C 
ATOM     13  C   UNL     1      12.474   4.893  -3.510  0.00  0.00    +0.114 C 
ATOM     14  C   UNL     1      12.778   2.791  -2.221  0.00  0.00    +0.119 C 
ATOM     15  C   UNL     1      12.972   6.283  -1.427  0.00  0.00    +0.130 C 
ATOM     16  C   UNL     1      13.152   4.149  -0.143  0.00  0.00    +0.026 A 
ATOM     17  C   UNL     1      12.983   3.457   0.995  0.00  0.00    +0.022 A 
ATOM     18  C   UNL     1      12.024   6.103   0.825  0.00  0.00    +0.260 A 
ATOM     19  C   UNL     1      11.821   5.288   2.072  0.00  0.00    +0.053 A 
ATOM     20  C   UNL     1      12.304   4.038   2.119  0.00  0.00    +0.016 A 
ENDROOT
BRANCH  19  22
ATOM      2  S   UNL     1      11.978   6.789   4.331  0.00  0.00    -0.088 S 
ATOM     22  C   UNL     1      11.129   5.835   3.196  0.00  0.00    +0.026 A 
ATOM     25  C   UNL     1       9.797   5.711   3.535  0.00  0.00    +0.024 A 
ATOM     29  C   UNL     1       9.455   6.404   4.744  0.00  0.00    -0.010 A 
ATOM     30  C   UNL     1      10.569   7.047   5.292  0.00  0.00    +0.020 A 
ATOM     31  C   UNL     1       8.215   6.521   5.418  0.00  0.00    +0.009 A 
ATOM     32  C   UNL     1      10.478   7.793   6.483  0.00  0.00    +0.015 A 
ATOM     33  C   UNL     1       8.121   7.261   6.600  0.00  0.00    +0.001 A 
ATOM     34  C   UNL     1       9.241   7.889   7.125  0.00  0.00    +0.001 A 
ENDBRANCH  19  22
BRANCH   7   1
ATOM      1  S   UNL     1      10.415   3.128  -3.514  0.00  0.00    +0.061 S 
ATOM      3  O   UNL     1       9.925   2.025  -2.712  0.00  0.00    -0.153 OA
ATOM      4  O   UNL     1      10.671   2.963  -4.929  0.00  0.00    -0.153 OA
BRANCH   1  21
ATOM     21  C   UNL     1       9.291   4.475  -3.318  0.00  0.00    +0.106 A 
ATOM     23  C   UNL     1       8.373   4.742  -4.321  0.00  0.00    +0.030 A 
ATOM     24  C   UNL     1       9.346   5.243  -2.167  0.00  0.00    +0.030 A 
ATOM     26  C   UNL     1       7.484   5.805  -4.167  0.00  0.00    +0.025 A 
ATOM     27  C   UNL     1       8.458   6.307  -2.013  0.00  0.00    +0.025 A 
ATOM     28  C   UNL     1       7.527   6.588  -3.013  0.00  0.00    +0.033 A 
BRANCH  28   9
ATOM      6  O   UNL     1       4.540   6.601  -2.634  0.00  0.00    -0.276 OA
ATOM      9  N   UNL     1       6.637   7.653  -2.859  0.00  0.00    -0.286 N 
ATOM     35  C   UNL     1       5.248   7.602  -2.687  0.00  0.00    +0.214 C 
ATOM     36  C   UNL     1       4.649   8.980  -2.557  0.00  0.00    +0.109 C 
ATOM     37  H   UNL     1       7.061   8.578  -2.877  0.00  0.00    +0.155 HD
ENDBRANCH  28   9
ENDBRANCH   1  21
ENDBRANCH   7   1
TORSDOF 4
ENDMDL
