MODEL 1
REMARK VINA RESULT:      -6.3      0.000      0.000
REMARK  Name = 40533521
REMARK  7 active torsions:
REMARK  status: ('A' for Active; 'I' for Inactive)
REMARK    1  A    between atoms: N_4  and  C_19
REMARK    2  A    between atoms: C_6  and  C_15
REMARK    3  A    between atoms: C_7  and  C_16
REMARK    4  A    between atoms: C_8  and  C_14
REMARK    5  A    between atoms: C_15  and  C_17
REMARK    6  A    between atoms: C_16  and  C_18
REMARK    7  A    between atoms: C_19  and  C_20
REMARK                            x       y       z     vdW  Elec       q    Type
REMARK                         _______ _______ _______ _____ _____    ______ ____
ROOT
ATOM      1  O   UNL     1      21.148   6.920  21.860  0.00  0.00    -0.275 OA
ATOM      3  N   UNL     1      19.161   6.171  20.903  0.00  0.00    -0.301 N 
ATOM      6  C   UNL     1      17.424   7.924  20.703  0.00  0.00    +0.010 C 
ATOM      7  C   UNL     1      16.595   7.006  19.771  0.00  0.00    +0.004 C 
ATOM      9  C   UNL     1      18.324   7.114  21.648  0.00  0.00    +0.111 C 
ATOM     12  C   UNL     1      17.539   6.026  19.050  0.00  0.00    +0.023 C 
ATOM     13  C   UNL     1      18.437   5.255  20.016  0.00  0.00    +0.108 C 
ATOM     14  C   UNL     1      20.543   6.151  21.117  0.00  0.00    +0.219 C 
ENDROOT
BRANCH  14   8
ATOM      8  C   UNL     1      21.338   5.120  20.384  0.00  0.00    +0.075 C 
ATOM     10  C   UNL     1      21.912   3.962  21.146  0.00  0.00    +0.013 C 
ATOM     11  C   UNL     1      22.818   5.035  20.617  0.00  0.00    +0.013 C 
ENDBRANCH  14   8
BRANCH   6  15
ATOM     15  C   UNL     1      16.563   8.909  21.495  0.00  0.00    +0.002 C 
ATOM     17  C   UNL     1      16.478  10.248  20.792  0.00  0.00    +0.004 C 
ENDBRANCH   6  15
BRANCH   7  16
ATOM     16  C   UNL     1      15.462   6.255  20.480  0.00  0.00    +0.099 C 
BRANCH  16  18
ATOM      2  O   UNL     1      13.854   7.148  18.909  0.00  0.00    -0.276 OA
ATOM      4  N   UNL     1      13.175   6.640  21.073  0.00  0.00    -0.311 N 
ATOM     18  C   UNL     1      14.095   6.733  20.039  0.00  0.00    +0.214 C 
ATOM     25  H   UNL     1      13.457   6.248  21.965  0.00  0.00    +0.149 HD
BRANCH   4  19
ATOM     19  C   UNL     1      11.790   7.030  20.934  0.00  0.00    +0.141 C 
BRANCH  19  20
ATOM      5  N   UNL     1      11.708  10.810  20.996  0.00  0.00    -0.263 NA
ATOM     20  C   UNL     1      11.552   8.434  21.412  0.00  0.00    -0.012 A 
ATOM     21  C   UNL     1      10.982   8.682  22.655  0.00  0.00    +0.008 A 
ATOM     22  C   UNL     1      11.894   9.524  20.626  0.00  0.00    +0.115 A 
ATOM     23  C   UNL     1      10.776   9.992  23.071  0.00  0.00    +0.020 A 
ATOM     24  C   UNL     1      11.152  11.012  22.212  0.00  0.00    +0.111 A 
ENDBRANCH  19  20
ENDBRANCH   4  19
ENDBRANCH  16  18
ENDBRANCH   7  16
TORSDOF 6
ENDMDL
MODEL 2
REMARK VINA RESULT:      -6.2     17.409     19.753
REMARK  Name = 40533521
REMARK  7 active torsions:
REMARK  status: ('A' for Active; 'I' for Inactive)
REMARK    1  A    between atoms: N_4  and  C_19
REMARK    2  A    between atoms: C_6  and  C_15
REMARK    3  A    between atoms: C_7  and  C_16
REMARK    4  A    between atoms: C_8  and  C_14
REMARK    5  A    between atoms: C_15  and  C_17
REMARK    6  A    between atoms: C_16  and  C_18
REMARK    7  A    between atoms: C_19  and  C_20
REMARK                            x       y       z     vdW  Elec       q    Type
REMARK                         _______ _______ _______ _____ _____    ______ ____
ROOT
ATOM      1  O   UNL     1      10.350   7.421   7.889  0.00  0.00    -0.275 OA
ATOM      3  N   UNL     1       9.983   6.220   5.927  0.00  0.00    -0.301 N 
ATOM      6  C   UNL     1      11.752   6.526   4.222  0.00  0.00    +0.010 C 
ATOM      7  C   UNL     1      11.190   5.330   3.415  0.00  0.00    +0.004 C 
ATOM      9  C   UNL     1      10.667   7.197   5.077  0.00  0.00    +0.111 C 
ATOM     12  C   UNL     1      10.461   4.367   4.370  0.00  0.00    +0.023 C 
ATOM     13  C   UNL     1       9.406   5.071   5.222  0.00  0.00    +0.108 C 
ATOM     14  C   UNL     1       9.865   6.458   7.301  0.00  0.00    +0.219 C 
ENDROOT
BRANCH  14   8
ATOM      8  C   UNL     1       9.094   5.464   8.107  0.00  0.00    +0.075 C 
ATOM     10  C   UNL     1       9.395   5.317   9.569  0.00  0.00    +0.013 C 
ATOM     11  C   UNL     1       9.790   4.233   8.610  0.00  0.00    +0.013 C 
ENDBRANCH  14   8
BRANCH   6  15
ATOM     15  C   UNL     1      12.462   7.559   3.347  0.00  0.00    +0.002 C 
ATOM     17  C   UNL     1      13.673   6.958   2.665  0.00  0.00    +0.004 C 
ENDBRANCH   6  15
BRANCH   7  16
ATOM     16  C   UNL     1      10.283   5.736   2.247  0.00  0.00    +0.099 C 
BRANCH  16  18
ATOM      2  O   UNL     1       9.729   4.798   0.086  0.00  0.00    -0.276 OA
ATOM      4  N   UNL     1      11.768   4.272   1.071  0.00  0.00    -0.311 N 
ATOM     18  C   UNL     1      10.532   4.899   1.011  0.00  0.00    +0.214 C 
ATOM     25  H   UNL     1      12.383   4.445   1.859  0.00  0.00    +0.149 HD
BRANCH   4  19
ATOM     19  C   UNL     1      12.267   3.409   0.025  0.00  0.00    +0.141 C 
BRANCH  19  20
ATOM      5  N   UNL     1      15.168   4.495  -2.144  0.00  0.00    -0.263 NA
ATOM     20  C   UNL     1      13.660   3.782  -0.395  0.00  0.00    -0.012 A 
ATOM     21  C   UNL     1      14.710   3.770   0.516  0.00  0.00    +0.008 A 
ATOM     22  C   UNL     1      13.939   4.149  -1.702  0.00  0.00    +0.115 A 
ATOM     23  C   UNL     1      15.990   4.119   0.098  0.00  0.00    +0.020 A 
ATOM     24  C   UNL     1      16.164   4.471  -1.230  0.00  0.00    +0.111 A 
ENDBRANCH  19  20
ENDBRANCH   4  19
ENDBRANCH  16  18
ENDBRANCH   7  16
TORSDOF 6
ENDMDL
MODEL 3
REMARK VINA RESULT:      -6.1     26.884     29.397
REMARK  Name = 40533521
REMARK  7 active torsions:
REMARK  status: ('A' for Active; 'I' for Inactive)
REMARK    1  A    between atoms: N_4  and  C_19
REMARK    2  A    between atoms: C_6  and  C_15
REMARK    3  A    between atoms: C_7  and  C_16
REMARK    4  A    between atoms: C_8  and  C_14
REMARK    5  A    between atoms: C_15  and  C_17
REMARK    6  A    between atoms: C_16  and  C_18
REMARK    7  A    between atoms: C_19  and  C_20
REMARK                            x       y       z     vdW  Elec       q    Type
REMARK                         _______ _______ _______ _____ _____    ______ ____
ROOT
ATOM      1  O   UNL     1      -8.582 -10.336  18.902  0.00  0.00    -0.275 OA
ATOM      3  N   UNL     1      -6.861 -10.065  17.356  0.00  0.00    -0.301 N 
ATOM      6  C   UNL     1      -5.301 -11.985  17.249  0.00  0.00    +0.010 C 
ATOM      7  C   UNL     1      -4.689 -11.422  15.942  0.00  0.00    +0.004 C 
ATOM      9  C   UNL     1      -5.907 -10.873  18.118  0.00  0.00    +0.111 C 
ATOM     12  C   UNL     1      -5.739 -10.561  15.216  0.00  0.00    +0.023 C 
ATOM     13  C   UNL     1      -6.339  -9.482  16.116  0.00  0.00    +0.108 C 
ATOM     14  C   UNL     1      -8.147  -9.847  17.863  0.00  0.00    +0.219 C 
ENDROOT
BRANCH  14   8
ATOM      8  C   UNL     1      -9.053  -8.954  17.079  0.00  0.00    +0.075 C 
ATOM     10  C   UNL     1     -10.480  -8.797  17.514  0.00  0.00    +0.013 C 
ATOM     11  C   UNL     1     -10.157  -9.565  16.266  0.00  0.00    +0.013 C 
ENDBRANCH  14   8
BRANCH   6  15
ATOM     15  C   UNL     1      -4.315 -12.824  18.061  0.00  0.00    +0.002 C 
ATOM     17  C   UNL     1      -3.944 -12.129  19.355  0.00  0.00    +0.004 C 
ENDBRANCH   6  15
BRANCH   7  16
ATOM     16  C   UNL     1      -3.386 -10.641  16.149  0.00  0.00    +0.099 C 
BRANCH  16  18
ATOM      2  O   UNL     1      -1.397 -11.661  15.223  0.00  0.00    -0.276 OA
ATOM      4  N   UNL     1      -2.684 -10.254  13.893  0.00  0.00    -0.311 N 
ATOM     18  C   UNL     1      -2.369 -10.927  15.064  0.00  0.00    +0.214 C 
ATOM     25  H   UNL     1      -3.531  -9.698  13.842  0.00  0.00    +0.149 HD
BRANCH   4  19
ATOM     19  C   UNL     1      -1.884 -10.342  12.692  0.00  0.00    +0.141 C 
BRANCH  19  20
ATOM      5  N   UNL     1      -4.010 -11.916   9.990  0.00  0.00    -0.263 NA
ATOM     20  C   UNL     1      -2.733 -10.486  11.462  0.00  0.00    -0.012 A 
ATOM     21  C   UNL     1      -3.031  -9.386  10.665  0.00  0.00    +0.008 A 
ATOM     22  C   UNL     1      -3.242 -11.718  11.084  0.00  0.00    +0.115 A 
ATOM     23  C   UNL     1      -3.818  -9.550   9.530  0.00  0.00    +0.020 A 
ATOM     24  C   UNL     1      -4.279 -10.824   9.239  0.00  0.00    +0.111 A 
ENDBRANCH  19  20
ENDBRANCH   4  19
ENDBRANCH  16  18
ENDBRANCH   7  16
TORSDOF 6
ENDMDL
MODEL 4
REMARK VINA RESULT:      -6.1     17.491     19.864
REMARK  Name = 40533521
REMARK  7 active torsions:
REMARK  status: ('A' for Active; 'I' for Inactive)
REMARK    1  A    between atoms: N_4  and  C_19
REMARK    2  A    between atoms: C_6  and  C_15
REMARK    3  A    between atoms: C_7  and  C_16
REMARK    4  A    between atoms: C_8  and  C_14
REMARK    5  A    between atoms: C_15  and  C_17
REMARK    6  A    between atoms: C_16  and  C_18
REMARK    7  A    between atoms: C_19  and  C_20
REMARK                            x       y       z     vdW  Elec       q    Type
REMARK                         _______ _______ _______ _____ _____    ______ ____
ROOT
ATOM      1  O   UNL     1       8.305   7.338   7.409  0.00  0.00    -0.275 OA
ATOM      3  N   UNL     1       9.219   6.456   5.456  0.00  0.00    -0.301 N 
ATOM      6  C   UNL     1       9.689   8.154   3.716  0.00  0.00    +0.010 C 
ATOM      7  C   UNL     1      10.522   7.118   2.922  0.00  0.00    +0.004 C 
ATOM      9  C   UNL     1       8.623   7.476   4.591  0.00  0.00    +0.111 C 
ATOM     12  C   UNL     1      11.086   6.064   3.892  0.00  0.00    +0.023 C 
ATOM     13  C   UNL     1      10.005   5.429   4.764  0.00  0.00    +0.108 C 
ATOM     14  C   UNL     1       8.963   6.476   6.831  0.00  0.00    +0.219 C 
ENDROOT
BRANCH  14   8
ATOM      8  C   UNL     1       9.537   5.368   7.654  0.00  0.00    +0.075 C 
ATOM     10  C   UNL     1       9.279   5.346   9.132  0.00  0.00    +0.013 C 
ATOM     11  C   UNL     1      10.650   5.671   8.614  0.00  0.00    +0.013 C 
ENDBRANCH  14   8
BRANCH   6  15
ATOM     15  C   UNL     1       9.053   9.221   2.826  0.00  0.00    +0.002 C 
ATOM     17  C   UNL     1       7.542   9.200   2.942  0.00  0.00    +0.004 C 
ENDBRANCH   6  15
BRANCH   7  16
ATOM     16  C   UNL     1       9.758   6.451   1.772  0.00  0.00    +0.099 C 
BRANCH  16  18
ATOM      2  O   UNL     1      11.289   6.778  -0.073  0.00  0.00    -0.276 OA
ATOM      4  N   UNL     1      10.731   4.618   0.578  0.00  0.00    -0.311 N 
ATOM     18  C   UNL     1      10.679   6.002   0.657  0.00  0.00    +0.214 C 
ATOM     25  H   UNL     1      10.222   4.055   1.251  0.00  0.00    +0.149 HD
BRANCH   4  19
ATOM     19  C   UNL     1      11.532   3.913  -0.397  0.00  0.00    +0.141 C 
BRANCH  19  20
ATOM      5  N   UNL     1      14.614   3.271   1.698  0.00  0.00    -0.263 NA
ATOM     20  C   UNL     1      12.975   3.833   0.013  0.00  0.00    -0.012 A 
ATOM     21  C   UNL     1      13.989   4.227  -0.853  0.00  0.00    +0.008 A 
ATOM     22  C   UNL     1      13.337   3.367   1.267  0.00  0.00    +0.115 A 
ATOM     23  C   UNL     1      15.315   4.144  -0.444  0.00  0.00    +0.020 A 
ATOM     24  C   UNL     1      15.572   3.664   0.829  0.00  0.00    +0.111 A 
ENDBRANCH  19  20
ENDBRANCH   4  19
ENDBRANCH  16  18
ENDBRANCH   7  16
TORSDOF 6
ENDMDL
MODEL 5
REMARK VINA RESULT:      -6.1     26.487     29.509
REMARK  Name = 40533521
REMARK  7 active torsions:
REMARK  status: ('A' for Active; 'I' for Inactive)
REMARK    1  A    between atoms: N_4  and  C_19
REMARK    2  A    between atoms: C_6  and  C_15
REMARK    3  A    between atoms: C_7  and  C_16
REMARK    4  A    between atoms: C_8  and  C_14
REMARK    5  A    between atoms: C_15  and  C_17
REMARK    6  A    between atoms: C_16  and  C_18
REMARK    7  A    between atoms: C_19  and  C_20
REMARK                            x       y       z     vdW  Elec       q    Type
REMARK                         _______ _______ _______ _____ _____    ______ ____
ROOT
ATOM      1  O   UNL     1      -7.758 -13.254  18.652  0.00  0.00    -0.275 OA
ATOM      3  N   UNL     1      -6.151 -11.767  17.857  0.00  0.00    -0.301 N 
ATOM      6  C   UNL     1      -5.054 -12.505  15.763  0.00  0.00    +0.010 C 
ATOM      7  C   UNL     1      -4.444 -11.094  15.578  0.00  0.00    +0.004 C 
ATOM      9  C   UNL     1      -5.334 -12.815  17.241  0.00  0.00    +0.111 C 
ATOM     12  C   UNL     1      -5.339 -10.055  16.278  0.00  0.00    +0.023 C 
ATOM     13  C   UNL     1      -5.618 -10.406  17.738  0.00  0.00    +0.108 C 
ATOM     14  C   UNL     1      -7.313 -12.113  18.554  0.00  0.00    +0.219 C 
ENDROOT
BRANCH  14   8
ATOM      8  C   UNL     1      -8.067 -11.010  19.224  0.00  0.00    +0.075 C 
ATOM     10  C   UNL     1      -9.460 -11.271  19.716  0.00  0.00    +0.013 C 
ATOM     11  C   UNL     1      -9.240 -10.393  18.519  0.00  0.00    +0.013 C 
ENDBRANCH  14   8
BRANCH   6  15
ATOM     15  C   UNL     1      -4.209 -13.612  15.133  0.00  0.00    +0.002 C 
ATOM     17  C   UNL     1      -4.790 -14.054  13.806  0.00  0.00    +0.004 C 
ENDBRANCH   6  15
BRANCH   7  16
ATOM     16  C   UNL     1      -2.991 -10.975  16.053  0.00  0.00    +0.099 C 
BRANCH  16  18
ATOM      2  O   UNL     1      -1.045  -9.817  15.201  0.00  0.00    -0.276 OA
ATOM      4  N   UNL     1      -2.562 -10.749  13.708  0.00  0.00    -0.311 N 
ATOM     18  C   UNL     1      -2.077 -10.441  14.971  0.00  0.00    +0.214 C 
ATOM     25  H   UNL     1      -3.406 -11.304  13.614  0.00  0.00    +0.149 HD
BRANCH   4  19
ATOM     19  C   UNL     1      -1.892 -10.361  12.488  0.00  0.00    +0.141 C 
BRANCH  19  20
ATOM      5  N   UNL     1      -4.567 -11.418  10.034  0.00  0.00    -0.263 NA
ATOM     20  C   UNL     1      -2.831 -10.331  11.317  0.00  0.00    -0.012 A 
ATOM     21  C   UNL     1      -2.857  -9.247  10.446  0.00  0.00    +0.008 A 
ATOM     22  C   UNL     1      -3.699 -11.382  11.069  0.00  0.00    +0.115 A 
ATOM     23  C   UNL     1      -3.736  -9.247   9.369  0.00  0.00    +0.020 A 
ATOM     24  C   UNL     1      -4.563 -10.347   9.209  0.00  0.00    +0.111 A 
ENDBRANCH  19  20
ENDBRANCH   4  19
ENDBRANCH  16  18
ENDBRANCH   7  16
TORSDOF 6
ENDMDL
MODEL 6
REMARK VINA RESULT:      -5.9     27.939     29.629
REMARK  Name = 40533521
REMARK  7 active torsions:
REMARK  status: ('A' for Active; 'I' for Inactive)
REMARK    1  A    between atoms: N_4  and  C_19
REMARK    2  A    between atoms: C_6  and  C_15
REMARK    3  A    between atoms: C_7  and  C_16
REMARK    4  A    between atoms: C_8  and  C_14
REMARK    5  A    between atoms: C_15  and  C_17
REMARK    6  A    between atoms: C_16  and  C_18
REMARK    7  A    between atoms: C_19  and  C_20
REMARK                            x       y       z     vdW  Elec       q    Type
REMARK                         _______ _______ _______ _____ _____    ______ ____
ROOT
ATOM      1  O   UNL     1      -2.302 -12.195  14.863  0.00  0.00    -0.275 OA
ATOM      3  N   UNL     1      -4.539 -11.723  15.304  0.00  0.00    -0.301 N 
ATOM      6  C   UNL     1      -4.948 -10.863  17.590  0.00  0.00    +0.010 C 
ATOM      7  C   UNL     1      -6.382 -10.442  17.182  0.00  0.00    +0.004 C 
ATOM      9  C   UNL     1      -4.432 -12.028  16.732  0.00  0.00    +0.111 C 
ATOM     12  C   UNL     1      -6.422 -10.171  15.667  0.00  0.00    +0.023 C 
ATOM     13  C   UNL     1      -5.878 -11.338  14.845  0.00  0.00    +0.108 C 
ATOM     14  C   UNL     1      -3.422 -11.872  14.476  0.00  0.00    +0.219 C 
ENDROOT
BRANCH  14   8
ATOM      8  C   UNL     1      -3.610 -11.618  13.016  0.00  0.00    +0.075 C 
ATOM     10  C   UNL     1      -2.406 -11.575  12.121  0.00  0.00    +0.013 C 
ATOM     11  C   UNL     1      -3.152 -10.311  12.436  0.00  0.00    +0.013 C 
ENDBRANCH  14   8
BRANCH   6  15
ATOM     15  C   UNL     1      -4.821 -11.194  19.077  0.00  0.00    +0.002 C 
ATOM     17  C   UNL     1      -3.713 -12.197  19.320  0.00  0.00    +0.004 C 
ENDBRANCH   6  15
BRANCH   7  16
ATOM     16  C   UNL     1      -7.467 -11.446  17.588  0.00  0.00    +0.099 C 
BRANCH  16  18
ATOM      2  O   UNL     1      -8.509 -10.915  19.707  0.00  0.00    -0.276 OA
ATOM      4  N   UNL     1      -9.474 -10.148  17.736  0.00  0.00    -0.311 N 
ATOM     18  C   UNL     1      -8.518 -10.822  18.482  0.00  0.00    +0.214 C 
ATOM     25  H   UNL     1      -9.379 -10.091  16.727  0.00  0.00    +0.149 HD
BRANCH   4  19
ATOM     19  C   UNL     1     -10.597  -9.458  18.330  0.00  0.00    +0.141 C 
BRANCH  19  20
ATOM      5  N   UNL     1     -13.076  -7.722  16.063  0.00  0.00    -0.263 NA
ATOM     20  C   UNL     1     -11.192  -8.446  17.393  0.00  0.00    -0.012 A 
ATOM     21  C   UNL     1     -10.466  -7.333  16.985  0.00  0.00    +0.008 A 
ATOM     22  C   UNL     1     -12.482  -8.593  16.908  0.00  0.00    +0.115 A 
ATOM     23  C   UNL     1     -11.043  -6.414  16.116  0.00  0.00    +0.020 A 
ATOM     24  C   UNL     1     -12.340  -6.652  15.688  0.00  0.00    +0.111 A 
ENDBRANCH  19  20
ENDBRANCH   4  19
ENDBRANCH  16  18
ENDBRANCH   7  16
TORSDOF 6
ENDMDL
MODEL 7
REMARK VINA RESULT:      -5.9     27.819     31.465
REMARK  Name = 40533521
REMARK  7 active torsions:
REMARK  status: ('A' for Active; 'I' for Inactive)
REMARK    1  A    between atoms: N_4  and  C_19
REMARK    2  A    between atoms: C_6  and  C_15
REMARK    3  A    between atoms: C_7  and  C_16
REMARK    4  A    between atoms: C_8  and  C_14
REMARK    5  A    between atoms: C_15  and  C_17
REMARK    6  A    between atoms: C_16  and  C_18
REMARK    7  A    between atoms: C_19  and  C_20
REMARK                            x       y       z     vdW  Elec       q    Type
REMARK                         _______ _______ _______ _____ _____    ______ ____
ROOT
ATOM      1  O   UNL     1     -12.958   9.405  20.761  0.00  0.00    -0.275 OA
ATOM      3  N   UNL     1     -13.216   7.283  21.685  0.00  0.00    -0.301 N 
ATOM      6  C   UNL     1     -15.548   6.744  22.319  0.00  0.00    +0.010 C 
ATOM      7  C   UNL     1     -15.162   5.255  22.497  0.00  0.00    +0.004 C 
ATOM      9  C   UNL     1     -14.344   7.673  22.533  0.00  0.00    +0.111 C 
ATOM     12  C   UNL     1     -13.953   4.930  21.601  0.00  0.00    +0.023 C 
ATOM     13  C   UNL     1     -12.783   5.888  21.821  0.00  0.00    +0.108 C 
ATOM     14  C   UNL     1     -12.594   8.237  20.874  0.00  0.00    +0.219 C 
ENDROOT
BRANCH  14   8
ATOM      8  C   UNL     1     -11.402   7.799  20.086  0.00  0.00    +0.075 C 
ATOM     10  C   UNL     1     -10.881   8.686  18.994  0.00  0.00    +0.013 C 
ATOM     11  C   UNL     1     -11.580   7.403  18.650  0.00  0.00    +0.013 C 
ENDBRANCH  14   8
BRANCH   6  15
ATOM     15  C   UNL     1     -16.719   7.170  23.204  0.00  0.00    +0.002 C 
ATOM     17  C   UNL     1     -18.020   6.565  22.716  0.00  0.00    +0.004 C 
ENDBRANCH   6  15
BRANCH   7  16
ATOM     16  C   UNL     1     -14.893   4.849  23.951  0.00  0.00    +0.099 C 
BRANCH  16  18
ATOM      2  O   UNL     1     -16.210   2.853  23.587  0.00  0.00    -0.276 OA
ATOM      4  N   UNL     1     -15.861   3.610  25.756  0.00  0.00    -0.311 N 
ATOM     18  C   UNL     1     -15.725   3.659  24.377  0.00  0.00    +0.214 C 
ATOM     25  H   UNL     1     -15.390   4.300  26.334  0.00  0.00    +0.149 HD
BRANCH   4  19
ATOM     19  C   UNL     1     -16.607   2.579  26.441  0.00  0.00    +0.141 C 
BRANCH  19  20
ATOM      5  N   UNL     1     -15.191   3.331  29.865  0.00  0.00    -0.263 NA
ATOM     20  C   UNL     1     -16.126   2.380  27.850  0.00  0.00    -0.012 A 
ATOM     21  C   UNL     1     -16.155   1.124  28.446  0.00  0.00    +0.008 A 
ATOM     22  C   UNL     1     -15.640   3.442  28.595  0.00  0.00    +0.115 A 
ATOM     23  C   UNL     1     -15.701   0.970  29.751  0.00  0.00    +0.020 A 
ATOM     24  C   UNL     1     -15.234   2.095  30.412  0.00  0.00    +0.111 A 
ENDBRANCH  19  20
ENDBRANCH   4  19
ENDBRANCH  16  18
ENDBRANCH   7  16
TORSDOF 6
ENDMDL
MODEL 8
REMARK VINA RESULT:      -5.7      1.869      2.426
REMARK  Name = 40533521
REMARK  7 active torsions:
REMARK  status: ('A' for Active; 'I' for Inactive)
REMARK    1  A    between atoms: N_4  and  C_19
REMARK    2  A    between atoms: C_6  and  C_15
REMARK    3  A    between atoms: C_7  and  C_16
REMARK    4  A    between atoms: C_8  and  C_14
REMARK    5  A    between atoms: C_15  and  C_17
REMARK    6  A    between atoms: C_16  and  C_18
REMARK    7  A    between atoms: C_19  and  C_20
REMARK                            x       y       z     vdW  Elec       q    Type
REMARK                         _______ _______ _______ _____ _____    ______ ____
ROOT
ATOM      1  O   UNL     1      22.359   8.210  23.659  0.00  0.00    -0.275 OA
ATOM      3  N   UNL     1      20.710   6.977  22.570  0.00  0.00    -0.301 N 
ATOM      6  C   UNL     1      19.029   8.370  21.400  0.00  0.00    +0.010 C 
ATOM      7  C   UNL     1      18.497   7.118  20.660  0.00  0.00    +0.004 C 
ATOM      9  C   UNL     1      19.680   8.004  22.742  0.00  0.00    +0.111 C 
ATOM     12  C   UNL     1      19.624   6.075  20.547  0.00  0.00    +0.023 C 
ATOM     13  C   UNL     1      20.266   5.753  21.895  0.00  0.00    +0.108 C 
ATOM     14  C   UNL     1      21.990   7.183  23.094  0.00  0.00    +0.219 C 
ENDROOT
BRANCH  14   8
ATOM      8  C   UNL     1      22.977   6.070  22.953  0.00  0.00    +0.075 C 
ATOM     10  C   UNL     1      24.431   6.347  23.201  0.00  0.00    +0.013 C 
ATOM     11  C   UNL     1      23.944   6.093  21.805  0.00  0.00    +0.013 C 
ENDBRANCH  14   8
BRANCH   6  15
ATOM     15  C   UNL     1      17.964   9.449  21.596  0.00  0.00    +0.002 C 
ATOM     17  C   UNL     1      18.575  10.727  22.131  0.00  0.00    +0.004 C 
ENDBRANCH   6  15
BRANCH   7  16
ATOM     16  C   UNL     1      17.243   6.504  21.293  0.00  0.00    +0.099 C 
BRANCH  16  18
ATOM      2  O   UNL     1      16.190   6.411  19.117  0.00  0.00    -0.276 OA
ATOM      4  N   UNL     1      14.866   6.562  21.021  0.00  0.00    -0.311 N 
ATOM     18  C   UNL     1      16.070   6.484  20.337  0.00  0.00    +0.214 C 
ATOM     25  H   UNL     1      14.862   6.581  22.035  0.00  0.00    +0.149 HD
BRANCH   4  19
ATOM     19  C   UNL     1      13.581   6.565  20.359  0.00  0.00    +0.141 C 
BRANCH  19  20
ATOM      5  N   UNL     1      10.334   7.463  22.078  0.00  0.00    -0.263 NA
ATOM     20  C   UNL     1      12.554   7.346  21.129  0.00  0.00    -0.012 A 
ATOM     21  C   UNL     1      12.831   8.624  21.600  0.00  0.00    +0.008 A 
ATOM     22  C   UNL     1      11.302   6.814  21.393  0.00  0.00    +0.115 A 
ATOM     23  C   UNL     1      11.861   9.324  22.308  0.00  0.00    +0.020 A 
ATOM     24  C   UNL     1      10.639   8.704  22.519  0.00  0.00    +0.111 A 
ENDBRANCH  19  20
ENDBRANCH   4  19
ENDBRANCH  16  18
ENDBRANCH   7  16
TORSDOF 6
ENDMDL
MODEL 9
REMARK VINA RESULT:      -5.6     27.328     30.220
REMARK  Name = 40533521
REMARK  7 active torsions:
REMARK  status: ('A' for Active; 'I' for Inactive)
REMARK    1  A    between atoms: N_4  and  C_19
REMARK    2  A    between atoms: C_6  and  C_15
REMARK    3  A    between atoms: C_7  and  C_16
REMARK    4  A    between atoms: C_8  and  C_14
REMARK    5  A    between atoms: C_15  and  C_17
REMARK    6  A    between atoms: C_16  and  C_18
REMARK    7  A    between atoms: C_19  and  C_20
REMARK                            x       y       z     vdW  Elec       q    Type
REMARK                         _______ _______ _______ _____ _____    ______ ____
ROOT
ATOM      1  O   UNL     1     -10.093 -12.076  18.734  0.00  0.00    -0.275 OA
ATOM      3  N   UNL     1      -8.223 -10.866  18.051  0.00  0.00    -0.301 N 
ATOM      6  C   UNL     1      -6.719 -12.121  16.537  0.00  0.00    +0.010 C 
ATOM      7  C   UNL     1      -5.967 -10.813  16.189  0.00  0.00    +0.004 C 
ATOM      9  C   UNL     1      -7.372 -12.051  17.925  0.00  0.00    +0.111 C 
ATOM     12  C   UNL     1      -6.915  -9.614  16.376  0.00  0.00    +0.023 C 
ATOM     13  C   UNL     1      -7.566  -9.588  17.758  0.00  0.00    +0.108 C 
ATOM     14  C   UNL     1      -9.544 -11.004  18.490  0.00  0.00    +0.219 C 
ENDROOT
BRANCH  14   8
ATOM      8  C   UNL     1     -10.343  -9.754  18.670  0.00  0.00    +0.075 C 
ATOM     10  C   UNL     1     -11.828  -9.856  18.858  0.00  0.00    +0.013 C 
ATOM     11  C   UNL     1     -11.270  -9.315  17.575  0.00  0.00    +0.013 C 
ENDBRANCH  14   8
BRANCH   6  15
ATOM     15  C   UNL     1      -5.841 -13.367  16.419  0.00  0.00    +0.002 C 
ATOM     17  C   UNL     1      -6.604 -14.515  15.790  0.00  0.00    +0.004 C 
ENDBRANCH   6  15
BRANCH   7  16
ATOM     16  C   UNL     1      -4.667 -10.612  16.977  0.00  0.00    +0.099 C 
BRANCH  16  18
ATOM      2  O   UNL     1      -2.297 -10.766  16.515  0.00  0.00    -0.276 OA
ATOM      4  N   UNL     1      -3.795 -10.589  14.747  0.00  0.00    -0.311 N 
ATOM     18  C   UNL     1      -3.444 -10.667  16.087  0.00  0.00    +0.214 C 
ATOM     25  H   UNL     1      -4.774 -10.549  14.484  0.00  0.00    +0.149 HD
BRANCH   4  19
ATOM     19  C   UNL     1      -2.827 -10.617  13.674  0.00  0.00    +0.141 C 
BRANCH  19  20
ATOM      5  N   UNL     1      -5.417  -9.780  11.048  0.00  0.00    -0.263 NA
ATOM     20  C   UNL     1      -3.434 -10.211  12.361  0.00  0.00    -0.012 A 
ATOM     21  C   UNL     1      -2.633  -9.898  11.268  0.00  0.00    +0.008 A 
ATOM     22  C   UNL     1      -4.808 -10.138  12.201  0.00  0.00    +0.115 A 
ATOM     23  C   UNL     1      -3.223  -9.527  10.065  0.00  0.00    +0.020 A 
ATOM     24  C   UNL     1      -4.607  -9.484  10.008  0.00  0.00    +0.111 A 
ENDBRANCH  19  20
ENDBRANCH   4  19
ENDBRANCH  16  18
ENDBRANCH   7  16
TORSDOF 6
ENDMDL
MODEL 10
REMARK VINA RESULT:      -5.6     18.497     21.146
REMARK  Name = 40533521
REMARK  7 active torsions:
REMARK  status: ('A' for Active; 'I' for Inactive)
REMARK    1  A    between atoms: N_4  and  C_19
REMARK    2  A    between atoms: C_6  and  C_15
REMARK    3  A    between atoms: C_7  and  C_16
REMARK    4  A    between atoms: C_8  and  C_14
REMARK    5  A    between atoms: C_15  and  C_17
REMARK    6  A    between atoms: C_16  and  C_18
REMARK    7  A    between atoms: C_19  and  C_20
REMARK                            x       y       z     vdW  Elec       q    Type
REMARK                         _______ _______ _______ _____ _____    ______ ____
ROOT
ATOM      1  O   UNL     1       5.978   9.948   3.870  0.00  0.00    -0.275 OA
ATOM      3  N   UNL     1       8.015   8.978   3.292  0.00  0.00    -0.301 N 
ATOM      6  C   UNL     1       8.462   6.830   4.441  0.00  0.00    +0.010 C 
ATOM      7  C   UNL     1       9.637   6.549   3.472  0.00  0.00    +0.004 C 
ATOM      9  C   UNL     1       8.199   8.336   4.595  0.00  0.00    +0.111 C 
ATOM     12  C   UNL     1       9.387   7.281   2.141  0.00  0.00    +0.023 C 
ATOM     13  C   UNL     1       9.104   8.770   2.332  0.00  0.00    +0.108 C 
ATOM     14  C   UNL     1       6.889   9.776   3.064  0.00  0.00    +0.219 C 
ENDROOT
BRANCH  14   8
ATOM      8  C   UNL     1       6.790  10.465   1.742  0.00  0.00    +0.075 C 
ATOM     10  C   UNL     1       5.443  10.893   1.239  0.00  0.00    +0.013 C 
ATOM     11  C   UNL     1       6.156   9.744   0.588  0.00  0.00    +0.013 C 
ENDBRANCH  14   8
BRANCH   6  15
ATOM     15  C   UNL     1       8.643   6.174   5.810  0.00  0.00    +0.002 C 
ATOM     17  C   UNL     1       8.551   7.198   6.922  0.00  0.00    +0.004 C 
ENDBRANCH   6  15
BRANCH   7  16
ATOM     16  C   UNL     1      11.015   6.903   4.042  0.00  0.00    +0.099 C 
BRANCH  16  18
ATOM      2  O   UNL     1      13.133   6.990   2.875  0.00  0.00    -0.276 OA
ATOM      4  N   UNL     1      11.903   5.018   2.863  0.00  0.00    -0.311 N 
ATOM     18  C   UNL     1      12.143   6.341   3.203  0.00  0.00    +0.214 C 
ATOM     25  H   UNL     1      11.074   4.550   3.213  0.00  0.00    +0.149 HD
BRANCH   4  19
ATOM     19  C   UNL     1      12.814   4.230   2.064  0.00  0.00    +0.141 C 
BRANCH  19  20
ATOM      5  N   UNL     1      10.408   4.087  -0.850  0.00  0.00    -0.263 NA
ATOM     20  C   UNL     1      12.260   3.945   0.698  0.00  0.00    -0.012 A 
ATOM     21  C   UNL     1      13.026   3.301  -0.267  0.00  0.00    +0.008 A 
ATOM     22  C   UNL     1      10.968   4.315   0.359  0.00  0.00    +0.115 A 
ATOM     23  C   UNL     1      12.485   3.049  -1.523  0.00  0.00    +0.020 A 
ATOM     24  C   UNL     1      11.183   3.458  -1.762  0.00  0.00    +0.111 A 
ENDBRANCH  19  20
ENDBRANCH   4  19
ENDBRANCH  16  18
ENDBRANCH   7  16
TORSDOF 6
ENDMDL
