MODEL 1
REMARK VINA RESULT:      -6.9      0.000      0.000
REMARK  Name = 45783615
REMARK  8 active torsions:
REMARK  status: ('A' for Active; 'I' for Inactive)
REMARK    1  A    between atoms: O_2  and  C_30
REMARK    2  A    between atoms: O_2  and  C_31
REMARK    3  A    between atoms: N_4  and  C_15
REMARK    4  A    between atoms: C_11  and  C_16
REMARK    5  A    between atoms: C_15  and  C_17
REMARK    6  A    between atoms: C_20  and  C_23
REMARK    7  A    between atoms: C_24  and  C_27
REMARK    8  A    between atoms: C_29  and  C_30
REMARK                            x       y       z     vdW  Elec       q    Type
REMARK                         _______ _______ _______ _____ _____    ______ ____
ROOT
ATOM      1  O   UNL     1      14.149   6.589  20.311  0.00  0.00    -0.336 OA
ATOM      5  N   UNL     1      15.790   7.757  19.330  0.00  0.00    -0.190 NA
ATOM      6  N   UNL     1      15.255   6.499  21.165  0.00  0.00    -0.056 NA
ATOM     16  C   UNL     1      14.550   7.346  19.256  0.00  0.00    +0.245 A 
ATOM     20  C   UNL     1      16.182   7.213  20.519  0.00  0.00    +0.207 A 
ENDROOT
BRANCH  20  23
ATOM      3  O   UNL     1      18.308  11.270  22.898  0.00  0.00    -0.273 OA
ATOM      7  N   UNL     1      17.035   9.622  21.798  0.00  0.00    -0.268 N 
ATOM      8  N   UNL     1      19.184   8.731  22.134  0.00  0.00    -0.220 NA
ATOM      9  N   UNL     1      19.714   6.502  21.386  0.00  0.00    -0.243 NA
ATOM     23  C   UNL     1      17.509   7.400  21.032  0.00  0.00    +0.081 A 
ATOM     25  C   UNL     1      17.936   8.556  21.651  0.00  0.00    +0.139 A 
ATOM     26  C   UNL     1      18.449   6.396  20.927  0.00  0.00    +0.127 A 
ATOM     28  C   UNL     1      20.009   7.679  21.970  0.00  0.00    +0.223 A 
ATOM     29  C   UNL     1      17.267  10.866  22.389  0.00  0.00    +0.244 C 
ATOM     32  H   UNL     1      16.096   9.467  21.444  0.00  0.00    +0.156 HD
BRANCH  29  30
ATOM     30  C   UNL     1      16.035  11.744  22.360  0.00  0.00    +0.255 C 
BRANCH  30   2
ATOM      2  O   UNL     1      14.967  11.051  22.972  0.00  0.00    -0.374 OA
ATOM     31  C   UNL     1      14.722  11.516  24.295  0.00  0.00    +0.194 C 
ENDBRANCH  30   2
ENDBRANCH  29  30
ENDBRANCH  20  23
BRANCH  16  11
ATOM      4  N   UNL     1      12.574   8.673  18.528  0.00  0.00    -0.287 NA
ATOM     11  C   UNL     1      13.519   7.596  18.175  0.00  0.00    +0.146 C 
ATOM     12  C   UNL     1      14.150   8.051  16.846  0.00  0.00    +0.030 C 
ATOM     13  C   UNL     1      13.454   9.360  16.503  0.00  0.00    +0.017 C 
ATOM     14  C   UNL     1      12.149   9.282  17.268  0.00  0.00    +0.085 C 
BRANCH   4  15
ATOM     15  C   UNL     1      11.443   8.207  19.322  0.00  0.00    +0.120 C 
BRANCH  15  17
ATOM     17  C   UNL     1      11.338   8.941  20.632  0.00  0.00    -0.033 A 
ATOM     18  C   UNL     1      11.826  10.243  20.743  0.00  0.00    +0.006 A 
ATOM     19  C   UNL     1      10.755   8.318  21.736  0.00  0.00    +0.006 A 
ATOM     21  C   UNL     1      11.729  10.923  21.957  0.00  0.00    +0.019 A 
ATOM     22  C   UNL     1      10.658   8.999  22.950  0.00  0.00    +0.019 A 
ATOM     24  C   UNL     1      11.145  10.301  23.060  0.00  0.00    +0.052 A 
BRANCH  24  27
ATOM     10  N   UNL     1      10.967  11.564  25.313  0.00  0.00    -0.191 NA
ATOM     27  C   UNL     1      11.046  10.998  24.304  0.00  0.00    +0.099 C 
ENDBRANCH  24  27
ENDBRANCH  15  17
ENDBRANCH   4  15
ENDBRANCH  16  11
TORSDOF 7
ENDMDL
MODEL 2
REMARK VINA RESULT:      -6.8      2.235      5.390
REMARK  Name = 45783615
REMARK  8 active torsions:
REMARK  status: ('A' for Active; 'I' for Inactive)
REMARK    1  A    between atoms: O_2  and  C_30
REMARK    2  A    between atoms: O_2  and  C_31
REMARK    3  A    between atoms: N_4  and  C_15
REMARK    4  A    between atoms: C_11  and  C_16
REMARK    5  A    between atoms: C_15  and  C_17
REMARK    6  A    between atoms: C_20  and  C_23
REMARK    7  A    between atoms: C_24  and  C_27
REMARK    8  A    between atoms: C_29  and  C_30
REMARK                            x       y       z     vdW  Elec       q    Type
REMARK                         _______ _______ _______ _____ _____    ______ ____
ROOT
ATOM      1  O   UNL     1      16.023  12.168  21.278  0.00  0.00    -0.336 OA
ATOM      5  N   UNL     1      14.521  10.516  21.084  0.00  0.00    -0.190 NA
ATOM      6  N   UNL     1      16.739  11.036  20.872  0.00  0.00    -0.056 NA
ATOM     16  C   UNL     1      14.725  11.775  21.379  0.00  0.00    +0.245 A 
ATOM     20  C   UNL     1      15.786  10.104  20.779  0.00  0.00    +0.207 A 
ENDROOT
BRANCH  20  23
ATOM      3  O   UNL     1      13.869   7.287  16.903  0.00  0.00    -0.273 OA
ATOM      7  N   UNL     1      14.526   8.838  18.548  0.00  0.00    -0.268 N 
ATOM      8  N   UNL     1      15.725   6.855  18.943  0.00  0.00    -0.220 NA
ATOM      9  N   UNL     1      17.284   6.715  20.776  0.00  0.00    -0.243 NA
ATOM     23  C   UNL     1      16.063   8.752  20.386  0.00  0.00    +0.081 A 
ATOM     25  C   UNL     1      15.463   8.127  19.313  0.00  0.00    +0.139 A 
ATOM     26  C   UNL     1      16.974   7.990  21.088  0.00  0.00    +0.127 A 
ATOM     28  C   UNL     1      16.632   6.218  19.708  0.00  0.00    +0.223 A 
ATOM     29  C   UNL     1      13.813   8.392  17.433  0.00  0.00    +0.244 C 
ATOM     32  H   UNL     1      14.354   9.799  18.830  0.00  0.00    +0.156 HD
BRANCH  29  30
ATOM     30  C   UNL     1      12.901   9.465  16.879  0.00  0.00    +0.255 C 
BRANCH  30   2
ATOM      2  O   UNL     1      11.996   8.869  15.973  0.00  0.00    -0.374 OA
ATOM     31  C   UNL     1      10.711   8.676  16.556  0.00  0.00    +0.194 C 
ENDBRANCH  30   2
ENDBRANCH  29  30
ENDBRANCH  20  23
BRANCH  16  11
ATOM      4  N   UNL     1      12.553  12.264  22.491  0.00  0.00    -0.287 NA
ATOM     11  C   UNL     1      13.731  12.834  21.809  0.00  0.00    +0.146 C 
ATOM     12  C   UNL     1      14.325  13.830  22.822  0.00  0.00    +0.030 C 
ATOM     13  C   UNL     1      13.379  13.795  24.014  0.00  0.00    +0.017 C 
ATOM     14  C   UNL     1      12.081  13.285  23.425  0.00  0.00    +0.085 C 
BRANCH   4  15
ATOM     15  C   UNL     1      11.507  11.837  21.569  0.00  0.00    +0.120 C 
BRANCH  15  17
ATOM     17  C   UNL     1      11.350  10.340  21.555  0.00  0.00    -0.033 A 
ATOM     18  C   UNL     1      11.537   9.631  20.367  0.00  0.00    +0.006 A 
ATOM     19  C   UNL     1      11.016   9.661  22.727  0.00  0.00    +0.006 A 
ATOM     21  C   UNL     1      11.391   8.245  20.353  0.00  0.00    +0.019 A 
ATOM     22  C   UNL     1      10.871   8.274  22.712  0.00  0.00    +0.019 A 
ATOM     24  C   UNL     1      11.059   7.565  21.525  0.00  0.00    +0.052 A 
BRANCH  24  27
ATOM     10  N   UNL     1      10.788   4.991  21.497  0.00  0.00    -0.191 NA
ATOM     27  C   UNL     1      10.910   6.144  21.510  0.00  0.00    +0.099 C 
ENDBRANCH  24  27
ENDBRANCH  15  17
ENDBRANCH   4  15
ENDBRANCH  16  11
TORSDOF 7
ENDMDL
MODEL 3
REMARK VINA RESULT:      -6.8      2.045      3.610
REMARK  Name = 45783615
REMARK  8 active torsions:
REMARK  status: ('A' for Active; 'I' for Inactive)
REMARK    1  A    between atoms: O_2  and  C_30
REMARK    2  A    between atoms: O_2  and  C_31
REMARK    3  A    between atoms: N_4  and  C_15
REMARK    4  A    between atoms: C_11  and  C_16
REMARK    5  A    between atoms: C_15  and  C_17
REMARK    6  A    between atoms: C_20  and  C_23
REMARK    7  A    between atoms: C_24  and  C_27
REMARK    8  A    between atoms: C_29  and  C_30
REMARK                            x       y       z     vdW  Elec       q    Type
REMARK                         _______ _______ _______ _____ _____    ______ ____
ROOT
ATOM      1  O   UNL     1      15.188   6.567  19.474  0.00  0.00    -0.336 OA
ATOM      5  N   UNL     1      15.500   8.786  19.424  0.00  0.00    -0.190 NA
ATOM      6  N   UNL     1      16.214   6.837  20.388  0.00  0.00    -0.056 NA
ATOM     16  C   UNL     1      14.825   7.769  18.951  0.00  0.00    +0.245 A 
ATOM     20  C   UNL     1      16.340   8.164  20.303  0.00  0.00    +0.207 A 
ENDROOT
BRANCH  20  23
ATOM      3  O   UNL     1      21.109   6.896  21.814  0.00  0.00    -0.273 OA
ATOM      7  N   UNL     1      18.928   7.147  20.965  0.00  0.00    -0.268 N 
ATOM      8  N   UNL     1      19.448   9.117  22.136  0.00  0.00    -0.220 NA
ATOM      9  N   UNL     1      17.846  10.912  22.280  0.00  0.00    -0.243 NA
ATOM     23  C   UNL     1      17.296   8.901  21.078  0.00  0.00    +0.081 A 
ATOM     25  C   UNL     1      18.549   8.423  21.407  0.00  0.00    +0.139 A 
ATOM     26  C   UNL     1      16.997  10.163  21.546  0.00  0.00    +0.127 A 
ATOM     28  C   UNL     1      19.036  10.336  22.534  0.00  0.00    +0.223 A 
ATOM     29  C   UNL     1      20.138   6.487  21.187  0.00  0.00    +0.244 C 
ATOM     32  H   UNL     1      18.245   6.646  20.403  0.00  0.00    +0.156 HD
BRANCH  29  30
ATOM     30  C   UNL     1      20.165   5.121  20.535  0.00  0.00    +0.255 C 
BRANCH  30   2
ATOM      2  O   UNL     1      21.505   4.680  20.457  0.00  0.00    -0.374 OA
ATOM     31  C   UNL     1      21.707   3.468  21.178  0.00  0.00    +0.194 C 
ENDBRANCH  30   2
ENDBRANCH  29  30
ENDBRANCH  20  23
BRANCH  16  11
ATOM      4  N   UNL     1      12.605   8.660  18.264  0.00  0.00    -0.287 NA
ATOM     11  C   UNL     1      13.714   7.749  17.921  0.00  0.00    +0.146 C 
ATOM     12  C   UNL     1      14.186   8.213  16.531  0.00  0.00    +0.030 C 
ATOM     13  C   UNL     1      13.244   9.346  16.150  0.00  0.00    +0.017 C 
ATOM     14  C   UNL     1      12.015   9.089  16.997  0.00  0.00    +0.085 C 
BRANCH   4  15
ATOM     15  C   UNL     1      11.619   8.055  19.152  0.00  0.00    +0.120 C 
BRANCH  15  17
ATOM     17  C   UNL     1      11.424   8.865  20.407  0.00  0.00    -0.033 A 
ATOM     18  C   UNL     1      11.992  10.136  20.511  0.00  0.00    +0.006 A 
ATOM     19  C   UNL     1      10.678   8.346  21.464  0.00  0.00    +0.006 A 
ATOM     21  C   UNL     1      11.812  10.885  21.673  0.00  0.00    +0.019 A 
ATOM     22  C   UNL     1      10.499   9.096  22.626  0.00  0.00    +0.019 A 
ATOM     24  C   UNL     1      11.065  10.367  22.730  0.00  0.00    +0.052 A 
BRANCH  24  27
ATOM     10  N   UNL     1      10.731  11.761  24.886  0.00  0.00    -0.191 NA
ATOM     27  C   UNL     1      10.881  11.136  23.920  0.00  0.00    +0.099 C 
ENDBRANCH  24  27
ENDBRANCH  15  17
ENDBRANCH   4  15
ENDBRANCH  16  11
TORSDOF 7
ENDMDL
MODEL 4
REMARK VINA RESULT:      -6.5      2.874      6.224
REMARK  Name = 45783615
REMARK  8 active torsions:
REMARK  status: ('A' for Active; 'I' for Inactive)
REMARK    1  A    between atoms: O_2  and  C_30
REMARK    2  A    between atoms: O_2  and  C_31
REMARK    3  A    between atoms: N_4  and  C_15
REMARK    4  A    between atoms: C_11  and  C_16
REMARK    5  A    between atoms: C_15  and  C_17
REMARK    6  A    between atoms: C_20  and  C_23
REMARK    7  A    between atoms: C_24  and  C_27
REMARK    8  A    between atoms: C_29  and  C_30
REMARK                            x       y       z     vdW  Elec       q    Type
REMARK                         _______ _______ _______ _____ _____    ______ ____
ROOT
ATOM      1  O   UNL     1      12.045   8.090  17.074  0.00  0.00    -0.336 OA
ATOM      5  N   UNL     1      13.485   9.476  18.087  0.00  0.00    -0.190 NA
ATOM      6  N   UNL     1      12.615   8.869  16.060  0.00  0.00    -0.056 NA
ATOM     16  C   UNL     1      12.612   8.512  18.235  0.00  0.00    +0.245 A 
ATOM     20  C   UNL     1      13.453   9.661  16.735  0.00  0.00    +0.207 A 
ENDROOT
BRANCH  20  23
ATOM      3  O   UNL     1      14.238  14.629  17.892  0.00  0.00    -0.273 OA
ATOM      7  N   UNL     1      13.660  12.359  17.655  0.00  0.00    -0.268 N 
ATOM      8  N   UNL     1      15.152  12.881  15.915  0.00  0.00    -0.220 NA
ATOM      9  N   UNL     1      15.802  11.199  14.317  0.00  0.00    -0.243 NA
ATOM     23  C   UNL     1      14.271  10.648  16.091  0.00  0.00    +0.081 A 
ATOM     25  C   UNL     1      14.381  11.954  16.522  0.00  0.00    +0.139 A 
ATOM     26  C   UNL     1      15.012  10.324  14.973  0.00  0.00    +0.127 A 
ATOM     28  C   UNL     1      15.824  12.442  14.835  0.00  0.00    +0.223 A 
ATOM     29  C   UNL     1      13.633  13.623  18.248  0.00  0.00    +0.244 C 
ATOM     32  H   UNL     1      13.098  11.644  18.108  0.00  0.00    +0.156 HD
BRANCH  29  30
ATOM     30  C   UNL     1      12.735  13.658  19.465  0.00  0.00    +0.255 C 
BRANCH  30   2
ATOM      2  O   UNL     1      12.684  12.364  20.031  0.00  0.00    -0.374 OA
ATOM     31  C   UNL     1      11.886  12.331  21.210  0.00  0.00    +0.194 C 
ENDBRANCH  30   2
ENDBRANCH  29  30
ENDBRANCH  20  23
BRANCH  16  11
ATOM      4  N   UNL     1      13.157   7.893  20.584  0.00  0.00    -0.287 NA
ATOM     11  C   UNL     1      12.156   7.815  19.501  0.00  0.00    +0.146 C 
ATOM     12  C   UNL     1      10.884   8.442  20.099  0.00  0.00    +0.030 C 
ATOM     13  C   UNL     1      11.247   8.785  21.537  0.00  0.00    +0.017 C 
ATOM     14  C   UNL     1      12.410   7.862  21.840  0.00  0.00    +0.085 C 
BRANCH   4  15
ATOM     15  C   UNL     1      14.160   6.837  20.515  0.00  0.00    +0.120 C 
BRANCH  15  17
ATOM     17  C   UNL     1      15.544   7.361  20.791  0.00  0.00    -0.033 A 
ATOM     18  C   UNL     1      15.759   8.735  20.907  0.00  0.00    +0.006 A 
ATOM     19  C   UNL     1      16.612   6.474  20.930  0.00  0.00    +0.006 A 
ATOM     21  C   UNL     1      17.041   9.220  21.162  0.00  0.00    +0.019 A 
ATOM     22  C   UNL     1      17.894   6.961  21.186  0.00  0.00    +0.019 A 
ATOM     24  C   UNL     1      18.109   8.334  21.303  0.00  0.00    +0.052 A 
BRANCH  24  27
ATOM     10  N   UNL     1      20.488   9.236  21.777  0.00  0.00    -0.191 NA
ATOM     27  C   UNL     1      19.422   8.832  21.564  0.00  0.00    +0.099 C 
ENDBRANCH  24  27
ENDBRANCH  15  17
ENDBRANCH   4  15
ENDBRANCH  16  11
TORSDOF 7
ENDMDL
MODEL 5
REMARK VINA RESULT:      -6.5     27.815     29.620
REMARK  Name = 45783615
REMARK  8 active torsions:
REMARK  status: ('A' for Active; 'I' for Inactive)
REMARK    1  A    between atoms: O_2  and  C_30
REMARK    2  A    between atoms: O_2  and  C_31
REMARK    3  A    between atoms: N_4  and  C_15
REMARK    4  A    between atoms: C_11  and  C_16
REMARK    5  A    between atoms: C_15  and  C_17
REMARK    6  A    between atoms: C_20  and  C_23
REMARK    7  A    between atoms: C_24  and  C_27
REMARK    8  A    between atoms: C_29  and  C_30
REMARK                            x       y       z     vdW  Elec       q    Type
REMARK                         _______ _______ _______ _____ _____    ______ ____
ROOT
ATOM      1  O   UNL     1      -7.450 -10.479  11.349  0.00  0.00    -0.336 OA
ATOM      5  N   UNL     1      -5.963  -9.083  12.278  0.00  0.00    -0.190 NA
ATOM      6  N   UNL     1      -7.273 -10.919  12.667  0.00  0.00    -0.056 NA
ATOM     16  C   UNL     1      -6.642  -9.395  11.204  0.00  0.00    +0.245 A 
ATOM     20  C   UNL     1      -6.384 -10.047  13.150  0.00  0.00    +0.207 A 
ENDROOT
BRANCH  20  23
ATOM      3  O   UNL     1      -8.648  -8.743  17.600  0.00  0.00    -0.273 OA
ATOM      7  N   UNL     1      -7.927  -9.232  15.413  0.00  0.00    -0.268 N 
ATOM      8  N   UNL     1      -6.162  -9.781  16.865  0.00  0.00    -0.220 NA
ATOM      9  N   UNL     1      -4.096 -10.668  15.998  0.00  0.00    -0.243 NA
ATOM     23  C   UNL     1      -5.893 -10.110  14.496  0.00  0.00    +0.081 A 
ATOM     25  C   UNL     1      -6.625  -9.720  15.599  0.00  0.00    +0.139 A 
ATOM     26  C   UNL     1      -4.622 -10.580  14.759  0.00  0.00    +0.127 A 
ATOM     28  C   UNL     1      -4.909 -10.257  16.990  0.00  0.00    +0.223 A 
ATOM     29  C   UNL     1      -8.825  -8.790  16.388  0.00  0.00    +0.244 C 
ATOM     32  H   UNL     1      -8.265  -9.209  14.455  0.00  0.00    +0.156 HD
BRANCH  29  30
ATOM     30  C   UNL     1     -10.140  -8.347  15.785  0.00  0.00    +0.255 C 
BRANCH  30   2
ATOM      2  O   UNL     1     -10.110  -6.946  15.608  0.00  0.00    -0.374 OA
ATOM     31  C   UNL     1     -11.212  -6.307  16.246  0.00  0.00    +0.194 C 
ENDBRANCH  30   2
ENDBRANCH  29  30
ENDBRANCH  20  23
BRANCH  16  11
ATOM      4  N   UNL     1      -6.015  -9.549   8.800  0.00  0.00    -0.287 NA
ATOM     11  C   UNL     1      -6.652  -8.724   9.846  0.00  0.00    +0.146 C 
ATOM     12  C   UNL     1      -8.076  -8.462   9.322  0.00  0.00    +0.030 C 
ATOM     13  C   UNL     1      -8.125  -9.125   7.953  0.00  0.00    +0.017 C 
ATOM     14  C   UNL     1      -6.669  -9.199   7.540  0.00  0.00    +0.085 C 
BRANCH   4  15
ATOM     15  C   UNL     1      -4.569  -9.376   8.734  0.00  0.00    +0.120 C 
BRANCH  15  17
ATOM     17  C   UNL     1      -3.862 -10.148   9.817  0.00  0.00    -0.033 A 
ATOM     18  C   UNL     1      -4.174 -11.491  10.032  0.00  0.00    +0.006 A 
ATOM     19  C   UNL     1      -2.897  -9.521  10.605  0.00  0.00    +0.006 A 
ATOM     21  C   UNL     1      -3.520 -12.206  11.034  0.00  0.00    +0.019 A 
ATOM     22  C   UNL     1      -2.243 -10.237  11.608  0.00  0.00    +0.019 A 
ATOM     24  C   UNL     1      -2.554 -11.580  11.822  0.00  0.00    +0.052 A 
BRANCH  24  27
ATOM     10  N   UNL     1      -1.341 -12.909  13.684  0.00  0.00    -0.191 NA
ATOM     27  C   UNL     1      -1.885 -12.313  12.849  0.00  0.00    +0.099 C 
ENDBRANCH  24  27
ENDBRANCH  15  17
ENDBRANCH   4  15
ENDBRANCH  16  11
TORSDOF 7
ENDMDL
MODEL 6
REMARK VINA RESULT:      -6.4      2.241      7.614
REMARK  Name = 45783615
REMARK  8 active torsions:
REMARK  status: ('A' for Active; 'I' for Inactive)
REMARK    1  A    between atoms: O_2  and  C_30
REMARK    2  A    between atoms: O_2  and  C_31
REMARK    3  A    between atoms: N_4  and  C_15
REMARK    4  A    between atoms: C_11  and  C_16
REMARK    5  A    between atoms: C_15  and  C_17
REMARK    6  A    between atoms: C_20  and  C_23
REMARK    7  A    between atoms: C_24  and  C_27
REMARK    8  A    between atoms: C_29  and  C_30
REMARK                            x       y       z     vdW  Elec       q    Type
REMARK                         _______ _______ _______ _____ _____    ______ ____
ROOT
ATOM      1  O   UNL     1      13.779  12.544  21.630  0.00  0.00    -0.336 OA
ATOM      5  N   UNL     1      14.374  10.440  21.143  0.00  0.00    -0.190 NA
ATOM      6  N   UNL     1      12.618  11.772  21.757  0.00  0.00    -0.056 NA
ATOM     16  C   UNL     1      14.765  11.683  21.265  0.00  0.00    +0.245 A 
ATOM     20  C   UNL     1      13.049  10.544  21.455  0.00  0.00    +0.207 A 
ENDROOT
BRANCH  20  23
ATOM      3  O   UNL     1      12.223   6.979  17.816  0.00  0.00    -0.273 OA
ATOM      7  N   UNL     1      12.834   8.752  19.239  0.00  0.00    -0.268 N 
ATOM      8  N   UNL     1      11.254   7.450  20.392  0.00  0.00    -0.220 NA
ATOM      9  N   UNL     1      10.565   8.054  22.621  0.00  0.00    -0.243 NA
ATOM     23  C   UNL     1      12.183   9.400  21.454  0.00  0.00    +0.081 A 
ATOM     25  C   UNL     1      12.068   8.526  20.392  0.00  0.00    +0.139 A 
ATOM     26  C   UNL     1      11.401   9.111  22.553  0.00  0.00    +0.127 A 
ATOM     28  C   UNL     1      10.542   7.277  21.522  0.00  0.00    +0.223 A 
ATOM     29  C   UNL     1      12.864   7.994  18.066  0.00  0.00    +0.244 C 
ATOM     32  H   UNL     1      13.454   9.557  19.262  0.00  0.00    +0.156 HD
BRANCH  29  30
ATOM     30  C   UNL     1      13.831   8.562  17.050  0.00  0.00    +0.255 C 
BRANCH  30   2
ATOM      2  O   UNL     1      13.233   8.506  15.772  0.00  0.00    -0.374 OA
ATOM     31  C   UNL     1      12.362   9.611  15.545  0.00  0.00    +0.194 C 
ENDBRANCH  30   2
ENDBRANCH  29  30
ENDBRANCH  20  23
BRANCH  16  11
ATOM      4  N   UNL     1      17.159  11.264  20.730  0.00  0.00    -0.287 NA
ATOM     11  C   UNL     1      16.142  12.281  21.061  0.00  0.00    +0.146 C 
ATOM     12  C   UNL     1      16.189  13.277  19.888  0.00  0.00    +0.030 C 
ATOM     13  C   UNL     1      17.302  12.772  18.981  0.00  0.00    +0.017 C 
ATOM     14  C   UNL     1      18.163  11.936  19.905  0.00  0.00    +0.085 C 
BRANCH   4  15
ATOM     15  C   UNL     1      17.747  10.635  21.906  0.00  0.00    +0.120 C 
BRANCH  15  17
ATOM     17  C   UNL     1      18.385   9.312  21.574  0.00  0.00    -0.033 A 
ATOM     18  C   UNL     1      17.593   8.242  21.154  0.00  0.00    +0.006 A 
ATOM     19  C   UNL     1      19.766   9.154  21.688  0.00  0.00    +0.006 A 
ATOM     21  C   UNL     1      18.183   7.017  20.847  0.00  0.00    +0.019 A 
ATOM     22  C   UNL     1      20.356   7.928  21.380  0.00  0.00    +0.019 A 
ATOM     24  C   UNL     1      19.565   6.860  20.959  0.00  0.00    +0.052 A 
BRANCH  24  27
ATOM     10  N   UNL     1      20.659   4.584  20.389  0.00  0.00    -0.191 NA
ATOM     27  C   UNL     1      20.169   5.604  20.644  0.00  0.00    +0.099 C 
ENDBRANCH  24  27
ENDBRANCH  15  17
ENDBRANCH   4  15
ENDBRANCH  16  11
TORSDOF 7
ENDMDL
MODEL 7
REMARK VINA RESULT:      -6.3     16.760     20.971
REMARK  Name = 45783615
REMARK  8 active torsions:
REMARK  status: ('A' for Active; 'I' for Inactive)
REMARK    1  A    between atoms: O_2  and  C_30
REMARK    2  A    between atoms: O_2  and  C_31
REMARK    3  A    between atoms: N_4  and  C_15
REMARK    4  A    between atoms: C_11  and  C_16
REMARK    5  A    between atoms: C_15  and  C_17
REMARK    6  A    between atoms: C_20  and  C_23
REMARK    7  A    between atoms: C_24  and  C_27
REMARK    8  A    between atoms: C_29  and  C_30
REMARK                            x       y       z     vdW  Elec       q    Type
REMARK                         _______ _______ _______ _____ _____    ______ ____
ROOT
ATOM      1  O   UNL     1      11.466   3.355   2.712  0.00  0.00    -0.336 OA
ATOM      5  N   UNL     1      11.728   5.478   2.047  0.00  0.00    -0.190 NA
ATOM      6  N   UNL     1      10.417   4.078   3.294  0.00  0.00    -0.056 NA
ATOM     16  C   UNL     1      12.190   4.255   1.996  0.00  0.00    +0.245 A 
ATOM     20  C   UNL     1      10.639   5.320   2.856  0.00  0.00    +0.207 A 
ENDROOT
BRANCH  20  23
ATOM      3  O   UNL     1       8.713   6.737   7.429  0.00  0.00    -0.273 OA
ATOM      7  N   UNL     1       9.747   5.816   5.525  0.00  0.00    -0.268 N 
ATOM      8  N   UNL     1       8.563   7.720   4.820  0.00  0.00    -0.220 NA
ATOM      9  N   UNL     1       8.579   8.379   2.502  0.00  0.00    -0.243 NA
ATOM     23  C   UNL     1       9.795   6.426   3.207  0.00  0.00    +0.081 A 
ATOM     25  C   UNL     1       9.356   6.679   4.490  0.00  0.00    +0.139 A 
ATOM     26  C   UNL     1       9.372   7.319   2.244  0.00  0.00    +0.127 A 
ATOM     28  C   UNL     1       8.217   8.518   3.792  0.00  0.00    +0.223 A 
ATOM     29  C   UNL     1       9.415   5.895   6.880  0.00  0.00    +0.244 C 
ATOM     32  H   UNL     1      10.357   5.047   5.262  0.00  0.00    +0.156 HD
BRANCH  29  30
ATOM     30  C   UNL     1      10.043   4.776   7.682  0.00  0.00    +0.255 C 
BRANCH  30   2
ATOM      2  O   UNL     1      10.278   5.236   8.996  0.00  0.00    -0.374 OA
ATOM     31  C   UNL     1       9.408   4.617   9.939  0.00  0.00    +0.194 C 
ENDBRANCH  30   2
ENDBRANCH  29  30
ENDBRANCH  20  23
BRANCH  16  11
ATOM      4  N   UNL     1      13.310   3.916  -0.201  0.00  0.00    -0.287 NA
ATOM     11  C   UNL     1      13.398   3.715   1.259  0.00  0.00    +0.146 C 
ATOM     12  C   UNL     1      14.707   4.414   1.671  0.00  0.00    +0.030 C 
ATOM     13  C   UNL     1      15.312   4.923   0.370  0.00  0.00    +0.017 C 
ATOM     14  C   UNL     1      14.684   4.037  -0.686  0.00  0.00    +0.085 C 
BRANCH   4  15
ATOM     15  C   UNL     1      12.579   2.855  -0.883  0.00  0.00    +0.120 C 
BRANCH  15  17
ATOM     17  C   UNL     1      11.458   3.401  -1.728  0.00  0.00    -0.033 A 
ATOM     18  C   UNL     1      10.907   4.648  -1.433  0.00  0.00    +0.006 A 
ATOM     19  C   UNL     1      10.970   2.660  -2.804  0.00  0.00    +0.006 A 
ATOM     21  C   UNL     1       9.869   5.154  -2.215  0.00  0.00    +0.019 A 
ATOM     22  C   UNL     1       9.932   3.166  -3.586  0.00  0.00    +0.019 A 
ATOM     24  C   UNL     1       9.382   4.413  -3.292  0.00  0.00    +0.052 A 
BRANCH  24  27
ATOM     10  N   UNL     1       7.454   5.353  -4.742  0.00  0.00    -0.191 NA
ATOM     27  C   UNL     1       8.318   4.932  -4.093  0.00  0.00    +0.099 C 
ENDBRANCH  24  27
ENDBRANCH  15  17
ENDBRANCH   4  15
ENDBRANCH  16  11
TORSDOF 7
ENDMDL
MODEL 8
REMARK VINA RESULT:      -6.3     26.573     29.744
REMARK  Name = 45783615
REMARK  8 active torsions:
REMARK  status: ('A' for Active; 'I' for Inactive)
REMARK    1  A    between atoms: O_2  and  C_30
REMARK    2  A    between atoms: O_2  and  C_31
REMARK    3  A    between atoms: N_4  and  C_15
REMARK    4  A    between atoms: C_11  and  C_16
REMARK    5  A    between atoms: C_15  and  C_17
REMARK    6  A    between atoms: C_20  and  C_23
REMARK    7  A    between atoms: C_24  and  C_27
REMARK    8  A    between atoms: C_29  and  C_30
REMARK                            x       y       z     vdW  Elec       q    Type
REMARK                         _______ _______ _______ _____ _____    ______ ____
ROOT
ATOM      1  O   UNL     1      -5.181  -9.570  16.005  0.00  0.00    -0.336 OA
ATOM      5  N   UNL     1      -5.487 -11.508  17.087  0.00  0.00    -0.190 NA
ATOM      6  N   UNL     1      -6.365  -9.424  16.738  0.00  0.00    -0.056 NA
ATOM     16  C   UNL     1      -4.730 -10.826  16.266  0.00  0.00    +0.245 A 
ATOM     20  C   UNL     1      -6.478 -10.607  17.350  0.00  0.00    +0.207 A 
ENDROOT
BRANCH  20  23
ATOM      3  O   UNL     1     -11.199  -8.550  17.690  0.00  0.00    -0.273 OA
ATOM      7  N   UNL     1      -8.991  -9.249  17.265  0.00  0.00    -0.268 N 
ATOM      8  N   UNL     1      -9.813 -10.573  19.025  0.00  0.00    -0.220 NA
ATOM      9  N   UNL     1      -8.426 -12.269  20.028  0.00  0.00    -0.243 NA
ATOM     23  C   UNL     1      -7.568 -10.921  18.227  0.00  0.00    +0.081 A 
ATOM     25  C   UNL     1      -8.787 -10.275  18.199  0.00  0.00    +0.139 A 
ATOM     26  C   UNL     1      -7.444 -11.920  19.171  0.00  0.00    +0.127 A 
ATOM     28  C   UNL     1      -9.566 -11.565  19.901  0.00  0.00    +0.223 A 
ATOM     29  C   UNL     1     -10.141  -8.478  17.074  0.00  0.00    +0.244 C 
ATOM     32  H   UNL     1      -8.215  -9.050  16.640  0.00  0.00    +0.156 HD
BRANCH  29  30
ATOM     30  C   UNL     1      -9.969  -7.474  15.955  0.00  0.00    +0.255 C 
BRANCH  30   2
ATOM      2  O   UNL     1     -10.743  -6.330  16.248  0.00  0.00    -0.374 OA
ATOM     31  C   UNL     1     -11.525  -5.918  15.131  0.00  0.00    +0.194 C 
ENDBRANCH  30   2
ENDBRANCH  29  30
ENDBRANCH  20  23
BRANCH  16  11
ATOM      4  N   UNL     1      -3.318 -10.676  14.222  0.00  0.00    -0.287 NA
ATOM     11  C   UNL     1      -3.442 -11.236  15.582  0.00  0.00    +0.146 C 
ATOM     12  C   UNL     1      -2.189 -10.737  16.326  0.00  0.00    +0.030 C 
ATOM     13  C   UNL     1      -1.394  -9.959  15.287  0.00  0.00    +0.017 C 
ATOM     14  C   UNL     1      -1.886 -10.518  13.968  0.00  0.00    +0.085 C 
BRANCH   4  15
ATOM     15  C   UNL     1      -3.969 -11.491  13.204  0.00  0.00    +0.120 C 
BRANCH  15  17
ATOM     17  C   UNL     1      -4.708 -10.648  12.199  0.00  0.00    -0.033 A 
ATOM     18  C   UNL     1      -4.358 -10.706  10.849  0.00  0.00    +0.006 A 
ATOM     19  C   UNL     1      -5.739  -9.807  12.616  0.00  0.00    +0.006 A 
ATOM     21  C   UNL     1      -5.042  -9.925   9.918  0.00  0.00    +0.019 A 
ATOM     22  C   UNL     1      -6.422  -9.025  11.684  0.00  0.00    +0.019 A 
ATOM     24  C   UNL     1      -6.074  -9.085  10.335  0.00  0.00    +0.052 A 
BRANCH  24  27
ATOM     10  N   UNL     1      -7.342  -7.634   8.606  0.00  0.00    -0.191 NA
ATOM     27  C   UNL     1      -6.774  -8.285   9.380  0.00  0.00    +0.099 C 
ENDBRANCH  24  27
ENDBRANCH  15  17
ENDBRANCH   4  15
ENDBRANCH  16  11
TORSDOF 7
ENDMDL
MODEL 9
REMARK VINA RESULT:      -6.0     26.228     29.406
REMARK  Name = 45783615
REMARK  8 active torsions:
REMARK  status: ('A' for Active; 'I' for Inactive)
REMARK    1  A    between atoms: O_2  and  C_30
REMARK    2  A    between atoms: O_2  and  C_31
REMARK    3  A    between atoms: N_4  and  C_15
REMARK    4  A    between atoms: C_11  and  C_16
REMARK    5  A    between atoms: C_15  and  C_17
REMARK    6  A    between atoms: C_20  and  C_23
REMARK    7  A    between atoms: C_24  and  C_27
REMARK    8  A    between atoms: C_29  and  C_30
REMARK                            x       y       z     vdW  Elec       q    Type
REMARK                         _______ _______ _______ _____ _____    ______ ____
ROOT
ATOM      1  O   UNL     1      -4.765 -12.778  14.387  0.00  0.00    -0.336 OA
ATOM      5  N   UNL     1      -5.111 -10.780  15.340  0.00  0.00    -0.190 NA
ATOM      6  N   UNL     1      -6.139 -12.703  14.647  0.00  0.00    -0.056 NA
ATOM     16  C   UNL     1      -4.235 -11.606  14.826  0.00  0.00    +0.245 A 
ATOM     20  C   UNL     1      -6.265 -11.498  15.208  0.00  0.00    +0.207 A 
ENDROOT
BRANCH  20  23
ATOM      3  O   UNL     1      -8.060 -10.670  19.976  0.00  0.00    -0.273 OA
ATOM      7  N   UNL     1      -6.938 -11.165  17.965  0.00  0.00    -0.268 N 
ATOM      8  N   UNL     1      -9.057 -10.326  17.390  0.00  0.00    -0.220 NA
ATOM      9  N   UNL     1      -9.701 -10.116  15.077  0.00  0.00    -0.243 NA
ATOM     23  C   UNL     1      -7.528 -10.980  15.649  0.00  0.00    +0.081 A 
ATOM     25  C   UNL     1      -7.868 -10.814  16.976  0.00  0.00    +0.139 A 
ATOM     26  C   UNL     1      -8.493 -10.610  14.735  0.00  0.00    +0.127 A 
ATOM     28  C   UNL     1      -9.913 -10.002  16.402  0.00  0.00    +0.223 A 
ATOM     29  C   UNL     1      -7.085 -11.076  19.352  0.00  0.00    +0.244 C 
ATOM     32  H   UNL     1      -6.043 -11.515  17.636  0.00  0.00    +0.156 HD
BRANCH  29  30
ATOM     30  C   UNL     1      -5.847 -11.547  20.083  0.00  0.00    +0.255 C 
BRANCH  30   2
ATOM      2  O   UNL     1      -4.707 -11.157  19.347  0.00  0.00    -0.374 OA
ATOM     31  C   UNL     1      -3.707 -12.172  19.339  0.00  0.00    +0.194 C 
ENDBRANCH  30   2
ENDBRANCH  29  30
ENDBRANCH  20  23
BRANCH  16  11
ATOM      4  N   UNL     1      -2.395 -10.355  13.711  0.00  0.00    -0.287 NA
ATOM     11  C   UNL     1      -2.740 -11.435  14.656  0.00  0.00    +0.146 C 
ATOM     12  C   UNL     1      -2.033 -11.047  15.968  0.00  0.00    +0.030 C 
ATOM     13  C   UNL     1      -1.269  -9.771  15.644  0.00  0.00    +0.017 C 
ATOM     14  C   UNL     1      -1.101  -9.826  14.140  0.00  0.00    +0.085 C 
BRANCH   4  15
ATOM     15  C   UNL     1      -2.375 -10.794  12.320  0.00  0.00    +0.120 C 
BRANCH  15  17
ATOM     17  C   UNL     1      -3.439 -10.112  11.502  0.00  0.00    -0.033 A 
ATOM     18  C   UNL     1      -3.091  -9.429  10.336  0.00  0.00    +0.006 A 
ATOM     19  C   UNL     1      -4.772 -10.160  11.910  0.00  0.00    +0.006 A 
ATOM     21  C   UNL     1      -4.077  -8.797   9.579  0.00  0.00    +0.019 A 
ATOM     22  C   UNL     1      -5.757  -9.528  11.152  0.00  0.00    +0.019 A 
ATOM     24  C   UNL     1      -5.410  -8.847   9.986  0.00  0.00    +0.052 A 
BRANCH  24  27
ATOM     10  N   UNL     1      -7.238  -7.672   8.578  0.00  0.00    -0.191 NA
ATOM     27  C   UNL     1      -6.419  -8.199   9.209  0.00  0.00    +0.099 C 
ENDBRANCH  24  27
ENDBRANCH  15  17
ENDBRANCH   4  15
ENDBRANCH  16  11
TORSDOF 7
ENDMDL
MODEL 10
REMARK VINA RESULT:      -6.0     14.084     18.359
REMARK  Name = 45783615
REMARK  8 active torsions:
REMARK  status: ('A' for Active; 'I' for Inactive)
REMARK    1  A    between atoms: O_2  and  C_30
REMARK    2  A    between atoms: O_2  and  C_31
REMARK    3  A    between atoms: N_4  and  C_15
REMARK    4  A    between atoms: C_11  and  C_16
REMARK    5  A    between atoms: C_15  and  C_17
REMARK    6  A    between atoms: C_20  and  C_23
REMARK    7  A    between atoms: C_24  and  C_27
REMARK    8  A    between atoms: C_29  and  C_30
REMARK                            x       y       z     vdW  Elec       q    Type
REMARK                         _______ _______ _______ _____ _____    ______ ____
ROOT
ATOM      1  O   UNL     1      11.134   4.550   3.185  0.00  0.00    -0.336 OA
ATOM      5  N   UNL     1      10.964   6.674   2.494  0.00  0.00    -0.190 NA
ATOM      6  N   UNL     1      10.099   5.121   3.934  0.00  0.00    -0.056 NA
ATOM     16  C   UNL     1      11.589   5.532   2.363  0.00  0.00    +0.245 A 
ATOM     20  C   UNL     1      10.058   6.373   3.470  0.00  0.00    +0.207 A 
ENDROOT
BRANCH  20  23
ATOM      3  O   UNL     1       8.603   7.480   8.297  0.00  0.00    -0.273 OA
ATOM      7  N   UNL     1       9.481   6.723   6.248  0.00  0.00    -0.268 N 
ATOM      8  N   UNL     1       7.962   8.447   5.757  0.00  0.00    -0.220 NA
ATOM      9  N   UNL     1       7.569   9.117   3.476  0.00  0.00    -0.243 NA
ATOM     23  C   UNL     1       9.127   7.348   3.960  0.00  0.00    +0.081 A 
ATOM     25  C   UNL     1       8.837   7.529   5.297  0.00  0.00    +0.139 A 
ATOM     26  C   UNL     1       8.456   8.179   3.086  0.00  0.00    +0.127 A 
ATOM     28  C   UNL     1       7.372   9.196   4.806  0.00  0.00    +0.223 A 
ATOM     29  C   UNL     1       9.331   6.746   7.636  0.00  0.00    +0.244 C 
ATOM     32  H   UNL     1      10.149   6.049   5.885  0.00  0.00    +0.156 HD
BRANCH  29  30
ATOM     30  C   UNL     1      10.211   5.721   8.318  0.00  0.00    +0.255 C 
BRANCH  30   2
ATOM      2  O   UNL     1       9.422   4.602   8.664  0.00  0.00    -0.374 OA
ATOM     31  C   UNL     1       9.063   4.613  10.043  0.00  0.00    +0.194 C 
ENDBRANCH  30   2
ENDBRANCH  29  30
ENDBRANCH  20  23
BRANCH  16  11
ATOM      4  N   UNL     1      14.050   5.514   1.989  0.00  0.00    -0.287 NA
ATOM     11  C   UNL     1      12.728   5.162   1.435  0.00  0.00    +0.146 C 
ATOM     12  C   UNL     1      12.807   3.648   1.165  0.00  0.00    +0.030 C 
ATOM     13  C   UNL     1      14.227   3.251   1.541  0.00  0.00    +0.017 C 
ATOM     14  C   UNL     1      15.000   4.550   1.436  0.00  0.00    +0.085 C 
BRANCH   4  15
ATOM     15  C   UNL     1      14.440   6.891   1.713  0.00  0.00    +0.120 C 
BRANCH  15  17
ATOM     17  C   UNL     1      15.384   7.425   2.758  0.00  0.00    -0.033 A 
ATOM     18  C   UNL     1      16.591   8.011   2.372  0.00  0.00    +0.006 A 
ATOM     19  C   UNL     1      15.055   7.333   4.110  0.00  0.00    +0.006 A 
ATOM     21  C   UNL     1      17.465   8.506   3.339  0.00  0.00    +0.019 A 
ATOM     22  C   UNL     1      15.930   7.828   5.076  0.00  0.00    +0.019 A 
ATOM     24  C   UNL     1      17.135   8.415   4.691  0.00  0.00    +0.052 A 
BRANCH  24  27
ATOM     10  N   UNL     1      18.759   9.334   6.485  0.00  0.00    -0.191 NA
ATOM     27  C   UNL     1      18.032   8.922   5.681  0.00  0.00    +0.099 C 
ENDBRANCH  24  27
ENDBRANCH  15  17
ENDBRANCH   4  15
ENDBRANCH  16  11
TORSDOF 7
ENDMDL
