MODEL 1
REMARK VINA RESULT:      -6.6      0.000      0.000
REMARK  Name = 40779129
REMARK  9 active torsions:
REMARK  status: ('A' for Active; 'I' for Inactive)
REMARK    1  A    between atoms: O_1  and  C_16
REMARK    2  A    between atoms: O_1  and  C_20
REMARK    3  A    between atoms: N_5  and  C_19
REMARK    4  A    between atoms: N_7  and  C_23
REMARK    5  A    between atoms: C_9  and  C_15
REMARK    6  A    between atoms: C_10  and  C_16
REMARK    7  A    between atoms: C_18  and  C_21
REMARK    8  A    between atoms: C_23  and  C_26
REMARK    9  A    between atoms: C_23  and  C_27
REMARK                            x       y       z     vdW  Elec       q    Type
REMARK                         _______ _______ _______ _____ _____    ______ ____
ROOT
ATOM      4  N   UNL     1      -5.348 -12.741  17.061  0.00  0.00    -0.296 NA
ATOM      8  C   UNL     1      -5.553 -10.626  18.568  0.00  0.00    +0.002 C 
ATOM      9  C   UNL     1      -6.935 -11.319  18.412  0.00  0.00    +0.055 C 
ATOM     10  C   UNL     1      -4.708 -11.577  16.394  0.00  0.00    +0.095 C 
ATOM     11  C   UNL     1      -4.999 -10.276  17.171  0.00  0.00    +0.026 C 
ATOM     12  C   UNL     1      -4.599 -11.670  19.186  0.00  0.00    +0.019 C 
ATOM     13  C   UNL     1      -6.774 -12.442  17.348  0.00  0.00    +0.094 C 
ATOM     14  C   UNL     1      -4.654 -12.962  18.352  0.00  0.00    +0.085 C 
ENDROOT
BRANCH   9  15
ATOM      5  N   UNL     1      -9.331 -10.585  18.821  0.00  0.00    -0.270 N 
ATOM      6  N   UNL     1     -10.282  -9.715  18.438  0.00  0.00    -0.168 NA
ATOM     15  C   UNL     1      -8.152 -10.443  18.147  0.00  0.00    +0.044 A 
ATOM     17  C   UNL     1      -8.346  -9.410  17.263  0.00  0.00    +0.056 A 
ATOM     18  C   UNL     1      -9.674  -9.000  17.487  0.00  0.00    +0.128 A 
ATOM     19  C   UNL     1      -9.628 -11.543  19.860  0.00  0.00    +0.172 C 
BRANCH  18  21
ATOM      2  O   UNL     1      -9.745  -7.000  15.980  0.00  0.00    -0.461 OA
ATOM     21  C   UNL     1     -10.366  -7.909  16.777  0.00  0.00    +0.155 A 
ATOM     22  C   UNL     1     -11.718  -7.665  16.825  0.00  0.00    +0.051 A 
ATOM     24  C   UNL     1     -11.944  -6.534  16.006  0.00  0.00    +0.042 A 
ATOM     25  C   UNL     1     -10.712  -6.167  15.514  0.00  0.00    +0.196 A 
ENDBRANCH  18  21
ENDBRANCH   9  15
BRANCH  10  16
ATOM     16  C   UNL     1      -5.103 -11.461  14.920  0.00  0.00    +0.252 C 
BRANCH  16   1
ATOM      1  O   UNL     1      -4.365 -10.402  14.342  0.00  0.00    -0.449 OA
BRANCH   1  20
ATOM      3  O   UNL     1      -2.464 -11.404  13.533  0.00  0.00    -0.226 OA
ATOM      7  N   UNL     1      -3.902 -10.235  12.136  0.00  0.00    -0.279 N 
ATOM     20  C   UNL     1      -3.479 -10.742  13.347  0.00  0.00    +0.401 C 
ATOM     28  H   UNL     1      -4.789  -9.742  12.114  0.00  0.00    +0.152 HD
BRANCH   7  23
ATOM     23  C   UNL     1      -3.185 -10.421  10.895  0.00  0.00    +0.070 C 
ATOM     26  C   UNL     1      -3.306  -9.179  10.023  0.00  0.00    +0.027 C 
ATOM     27  C   UNL     1      -3.692 -11.660  10.167  0.00  0.00    +0.027 C 
ENDBRANCH   7  23
ENDBRANCH   1  20
ENDBRANCH  16   1
ENDBRANCH  10  16
TORSDOF 6
ENDMDL
MODEL 2
REMARK VINA RESULT:      -6.5      2.050      7.030
REMARK  Name = 40779129
REMARK  9 active torsions:
REMARK  status: ('A' for Active; 'I' for Inactive)
REMARK    1  A    between atoms: O_1  and  C_16
REMARK    2  A    between atoms: O_1  and  C_20
REMARK    3  A    between atoms: N_5  and  C_19
REMARK    4  A    between atoms: N_7  and  C_23
REMARK    5  A    between atoms: C_9  and  C_15
REMARK    6  A    between atoms: C_10  and  C_16
REMARK    7  A    between atoms: C_18  and  C_21
REMARK    8  A    between atoms: C_23  and  C_26
REMARK    9  A    between atoms: C_23  and  C_27
REMARK                            x       y       z     vdW  Elec       q    Type
REMARK                         _______ _______ _______ _____ _____    ______ ____
ROOT
ATOM      4  N   UNL     1      -5.428 -10.649  18.233  0.00  0.00    -0.296 NA
ATOM      8  C   UNL     1      -5.173 -12.524  16.442  0.00  0.00    +0.002 C 
ATOM      9  C   UNL     1      -4.036 -11.476  16.297  0.00  0.00    +0.055 C 
ATOM     10  C   UNL     1      -6.720 -10.860  17.529  0.00  0.00    +0.095 C 
ATOM     11  C   UNL     1      -6.539 -11.815  16.330  0.00  0.00    +0.026 C 
ATOM     12  C   UNL     1      -5.074 -13.092  17.875  0.00  0.00    +0.019 C 
ATOM     13  C   UNL     1      -4.368 -10.295  17.254  0.00  0.00    +0.094 C 
ATOM     14  C   UNL     1      -5.050 -11.928  18.880  0.00  0.00    +0.085 C 
ENDROOT
BRANCH   9  15
ATOM      5  N   UNL     1      -2.389 -10.782  14.494  0.00  0.00    -0.270 N 
ATOM      6  N   UNL     1      -2.282 -10.362  13.221  0.00  0.00    -0.168 NA
ATOM     15  C   UNL     1      -3.675 -10.998  14.897  0.00  0.00    +0.044 A 
ATOM     17  C   UNL     1      -4.463 -10.699  13.813  0.00  0.00    +0.056 A 
ATOM     18  C   UNL     1      -3.553 -10.313  12.811  0.00  0.00    +0.128 A 
ATOM     19  C   UNL     1      -1.190 -10.958  15.281  0.00  0.00    +0.172 C 
BRANCH  18  21
ATOM      2  O   UNL     1      -5.178  -9.870  10.957  0.00  0.00    -0.461 OA
ATOM     21  C   UNL     1      -3.909  -9.894  11.444  0.00  0.00    +0.155 A 
ATOM     22  C   UNL     1      -3.016  -9.475  10.486  0.00  0.00    +0.051 A 
ATOM     24  C   UNL     1      -3.784  -9.174   9.336  0.00  0.00    +0.042 A 
ATOM     25  C   UNL     1      -5.093  -9.431   9.674  0.00  0.00    +0.196 A 
ENDBRANCH  18  21
ENDBRANCH   9  15
BRANCH  10  16
ATOM     16  C   UNL     1      -7.378  -9.542  17.113  0.00  0.00    +0.252 C 
BRANCH  16   1
ATOM      1  O   UNL     1      -7.602  -9.575  15.717  0.00  0.00    -0.449 OA
BRANCH   1  20
ATOM      3  O   UNL     1      -9.464  -9.936  14.421  0.00  0.00    -0.226 OA
ATOM      7  N   UNL     1      -9.395  -8.226  15.989  0.00  0.00    -0.279 N 
ATOM     20  C   UNL     1      -8.881  -9.301  15.294  0.00  0.00    +0.401 C 
ATOM     28  H   UNL     1      -8.822  -7.819  16.721  0.00  0.00    +0.152 HD
BRANCH   7  23
ATOM     23  C   UNL     1     -10.721  -7.692  15.773  0.00  0.00    +0.070 C 
ATOM     26  C   UNL     1     -10.659  -6.182  15.588  0.00  0.00    +0.027 C 
ATOM     27  C   UNL     1     -11.642  -8.071  16.926  0.00  0.00    +0.027 C 
ENDBRANCH   7  23
ENDBRANCH   1  20
ENDBRANCH  16   1
ENDBRANCH  10  16
TORSDOF 6
ENDMDL
MODEL 3
REMARK VINA RESULT:      -6.5      2.876      5.167
REMARK  Name = 40779129
REMARK  9 active torsions:
REMARK  status: ('A' for Active; 'I' for Inactive)
REMARK    1  A    between atoms: O_1  and  C_16
REMARK    2  A    between atoms: O_1  and  C_20
REMARK    3  A    between atoms: N_5  and  C_19
REMARK    4  A    between atoms: N_7  and  C_23
REMARK    5  A    between atoms: C_9  and  C_15
REMARK    6  A    between atoms: C_10  and  C_16
REMARK    7  A    between atoms: C_18  and  C_21
REMARK    8  A    between atoms: C_23  and  C_26
REMARK    9  A    between atoms: C_23  and  C_27
REMARK                            x       y       z     vdW  Elec       q    Type
REMARK                         _______ _______ _______ _____ _____    ______ ____
ROOT
ATOM      4  N   UNL     1      -6.130 -11.889  17.362  0.00  0.00    -0.296 NA
ATOM      8  C   UNL     1      -6.927  -9.516  16.643  0.00  0.00    +0.002 C 
ATOM      9  C   UNL     1      -7.304 -10.567  15.562  0.00  0.00    +0.055 C 
ATOM     10  C   UNL     1      -5.015 -10.916  17.495  0.00  0.00    +0.095 C 
ATOM     11  C   UNL     1      -5.403  -9.554  16.881  0.00  0.00    +0.026 C 
ATOM     12  C   UNL     1      -7.603  -9.966  17.956  0.00  0.00    +0.019 C 
ATOM     13  C   UNL     1      -6.624 -11.908  15.962  0.00  0.00    +0.094 C 
ATOM     14  C   UNL     1      -7.237 -11.434  18.237  0.00  0.00    +0.085 C 
ENDROOT
BRANCH   9  15
ATOM      5  N   UNL     1      -8.051  -9.754  13.276  0.00  0.00    -0.270 N 
ATOM      6  N   UNL     1      -7.635  -9.500  12.023  0.00  0.00    -0.168 NA
ATOM     15  C   UNL     1      -7.065 -10.212  14.101  0.00  0.00    +0.044 A 
ATOM     17  C   UNL     1      -5.926 -10.261  13.335  0.00  0.00    +0.056 A 
ATOM     18  C   UNL     1      -6.337  -9.811  12.065  0.00  0.00    +0.128 A 
ATOM     19  C   UNL     1      -9.437  -9.530  13.619  0.00  0.00    +0.172 C 
BRANCH  18  21
ATOM      2  O   UNL     1      -5.098 -10.716  10.084  0.00  0.00    -0.461 OA
ATOM     21  C   UNL     1      -5.470  -9.678  10.881  0.00  0.00    +0.155 A 
ATOM     22  C   UNL     1      -4.926  -8.500  10.425  0.00  0.00    +0.051 A 
ATOM     24  C   UNL     1      -4.171  -8.834   9.276  0.00  0.00    +0.042 A 
ATOM     25  C   UNL     1      -4.308 -10.193   9.110  0.00  0.00    +0.196 A 
ENDBRANCH  18  21
ENDBRANCH   9  15
BRANCH  10  16
ATOM     16  C   UNL     1      -3.704 -11.450  16.915  0.00  0.00    +0.252 C 
BRANCH  16   1
ATOM      1  O   UNL     1      -3.155 -10.460  16.066  0.00  0.00    -0.449 OA
BRANCH   1  20
ATOM      3  O   UNL     1      -1.072 -11.223  15.472  0.00  0.00    -0.226 OA
ATOM      7  N   UNL     1      -2.725 -10.864  13.884  0.00  0.00    -0.279 N 
ATOM     20  C   UNL     1      -2.208 -10.882  15.162  0.00  0.00    +0.401 C 
ATOM     28  H   UNL     1      -3.701 -10.604  13.772  0.00  0.00    +0.152 HD
BRANCH   7  23
ATOM     23  C   UNL     1      -1.976 -11.252  12.711  0.00  0.00    +0.070 C 
ATOM     26  C   UNL     1      -1.711 -10.041  11.827  0.00  0.00    +0.027 C 
ATOM     27  C   UNL     1      -2.713 -12.345  11.945  0.00  0.00    +0.027 C 
ENDBRANCH   7  23
ENDBRANCH   1  20
ENDBRANCH  16   1
ENDBRANCH  10  16
TORSDOF 6
ENDMDL
MODEL 4
REMARK VINA RESULT:      -6.3      2.797      7.688
REMARK  Name = 40779129
REMARK  9 active torsions:
REMARK  status: ('A' for Active; 'I' for Inactive)
REMARK    1  A    between atoms: O_1  and  C_16
REMARK    2  A    between atoms: O_1  and  C_20
REMARK    3  A    between atoms: N_5  and  C_19
REMARK    4  A    between atoms: N_7  and  C_23
REMARK    5  A    between atoms: C_9  and  C_15
REMARK    6  A    between atoms: C_10  and  C_16
REMARK    7  A    between atoms: C_18  and  C_21
REMARK    8  A    between atoms: C_23  and  C_26
REMARK    9  A    between atoms: C_23  and  C_27
REMARK                            x       y       z     vdW  Elec       q    Type
REMARK                         _______ _______ _______ _____ _____    ______ ____
ROOT
ATOM      4  N   UNL     1      -6.102 -10.555   9.548  0.00  0.00    -0.296 NA
ATOM      8  C   UNL     1      -4.277  -8.975  10.528  0.00  0.00    +0.002 C 
ATOM      9  C   UNL     1      -4.101 -10.417  11.079  0.00  0.00    +0.055 C 
ATOM     10  C   UNL     1      -6.733  -9.324  10.092  0.00  0.00    +0.095 C 
ATOM     11  C   UNL     1      -5.699  -8.474  10.859  0.00  0.00    +0.026 C 
ATOM     12  C   UNL     1      -4.177  -9.070   8.991  0.00  0.00    +0.019 C 
ATOM     13  C   UNL     1      -5.333 -11.245  10.615  0.00  0.00    +0.094 C 
ATOM     14  C   UNL     1      -5.154 -10.146   8.485  0.00  0.00    +0.085 C 
ENDROOT
BRANCH   9  15
ATOM      5  N   UNL     1      -2.571 -10.452  13.104  0.00  0.00    -0.270 N 
ATOM      6  N   UNL     1      -2.532 -10.645  14.434  0.00  0.00    -0.168 NA
ATOM     15  C   UNL     1      -3.817 -10.589  12.565  0.00  0.00    +0.044 A 
ATOM     17  C   UNL     1      -4.649 -10.893  13.614  0.00  0.00    +0.056 A 
ATOM     18  C   UNL     1      -3.804 -10.913  14.740  0.00  0.00    +0.128 A 
ATOM     19  C   UNL     1      -1.350 -10.132  12.402  0.00  0.00    +0.172 C 
BRANCH  18  21
ATOM      2  O   UNL     1      -4.322 -12.441  16.657  0.00  0.00    -0.461 OA
ATOM     21  C   UNL     1      -4.226 -11.194  16.124  0.00  0.00    +0.155 A 
ATOM     22  C   UNL     1      -4.575 -10.243  17.053  0.00  0.00    +0.051 A 
ATOM     24  C   UNL     1      -4.908 -10.949  18.233  0.00  0.00    +0.042 A 
ATOM     25  C   UNL     1      -4.738 -12.282  17.941  0.00  0.00    +0.196 A 
ENDBRANCH  18  21
ENDBRANCH   9  15
BRANCH  10  16
ATOM     16  C   UNL     1      -7.965  -9.630  10.947  0.00  0.00    +0.252 C 
BRANCH  16   1
ATOM      1  O   UNL     1      -7.720  -9.176  12.264  0.00  0.00    -0.449 OA
BRANCH   1  20
ATOM      3  O   UNL     1      -9.600 -10.232  13.055  0.00  0.00    -0.226 OA
ATOM      7  N   UNL     1      -7.888  -9.582  14.480  0.00  0.00    -0.279 N 
ATOM     20  C   UNL     1      -8.506  -9.713  13.255  0.00  0.00    +0.401 C 
ATOM     28  H   UNL     1      -6.958  -9.173  14.500  0.00  0.00    +0.152 HD
BRANCH   7  23
ATOM     23  C   UNL     1      -8.461 -10.049  15.722  0.00  0.00    +0.070 C 
ATOM     26  C   UNL     1      -8.134  -9.083  16.852  0.00  0.00    +0.027 C 
ATOM     27  C   UNL     1      -7.972 -11.457  16.039  0.00  0.00    +0.027 C 
ENDBRANCH   7  23
ENDBRANCH   1  20
ENDBRANCH  16   1
ENDBRANCH  10  16
TORSDOF 6
ENDMDL
MODEL 5
REMARK VINA RESULT:      -6.1     24.058     28.464
REMARK  Name = 40779129
REMARK  9 active torsions:
REMARK  status: ('A' for Active; 'I' for Inactive)
REMARK    1  A    between atoms: O_1  and  C_16
REMARK    2  A    between atoms: O_1  and  C_20
REMARK    3  A    between atoms: N_5  and  C_19
REMARK    4  A    between atoms: N_7  and  C_23
REMARK    5  A    between atoms: C_9  and  C_15
REMARK    6  A    between atoms: C_10  and  C_16
REMARK    7  A    between atoms: C_18  and  C_21
REMARK    8  A    between atoms: C_23  and  C_26
REMARK    9  A    between atoms: C_23  and  C_27
REMARK                            x       y       z     vdW  Elec       q    Type
REMARK                         _______ _______ _______ _____ _____    ______ ____
ROOT
ATOM      4  N   UNL     1      13.212   5.700   1.764  0.00  0.00    -0.296 NA
ATOM      8  C   UNL     1      12.764   3.388   0.652  0.00  0.00    +0.002 C 
ATOM      9  C   UNL     1      12.621   4.530  -0.392  0.00  0.00    +0.055 C 
ATOM     10  C   UNL     1      12.233   4.927   2.573  0.00  0.00    +0.095 C 
ATOM     11  C   UNL     1      11.799   3.648   1.827  0.00  0.00    +0.026 C 
ATOM     12  C   UNL     1      14.199   3.477   1.215  0.00  0.00    +0.019 C 
ATOM     13  C   UNL     1      12.701   5.878   0.381  0.00  0.00    +0.094 C 
ATOM     14  C   UNL     1      14.466   4.914   1.696  0.00  0.00    +0.085 C 
ENDROOT
BRANCH   9  15
ATOM      5  N   UNL     1      11.184   3.419  -2.165  0.00  0.00    -0.270 N 
ATOM      6  N   UNL     1      10.094   3.575  -2.936  0.00  0.00    -0.168 NA
ATOM     15  C   UNL     1      11.440   4.483  -1.350  0.00  0.00    +0.044 A 
ATOM     17  C   UNL     1      10.449   5.399  -1.607  0.00  0.00    +0.056 A 
ATOM     18  C   UNL     1       9.649   4.786  -2.591  0.00  0.00    +0.128 A 
ATOM     19  C   UNL     1      11.949   2.196  -2.263  0.00  0.00    +0.172 C 
BRANCH  18  21
ATOM      2  O   UNL     1       7.837   4.883  -4.317  0.00  0.00    -0.461 OA
ATOM     21  C   UNL     1       8.444   5.372  -3.204  0.00  0.00    +0.155 A 
ATOM     22  C   UNL     1       7.779   6.482  -2.738  0.00  0.00    +0.051 A 
ATOM     24  C   UNL     1       6.693   6.689  -3.621  0.00  0.00    +0.042 A 
ATOM     25  C   UNL     1       6.771   5.690  -4.564  0.00  0.00    +0.196 A 
ENDBRANCH  18  21
ENDBRANCH   9  15
BRANCH  10  16
ATOM     16  C   UNL     1      11.032   5.774   2.999  0.00  0.00    +0.252 C 
BRANCH  16   1
ATOM      1  O   UNL     1      10.428   5.160   4.121  0.00  0.00    -0.449 OA
BRANCH   1  20
ATOM      3  O   UNL     1      11.583   6.564   5.525  0.00  0.00    -0.226 OA
ATOM      7  N   UNL     1      10.021   5.055   6.342  0.00  0.00    -0.279 N 
ATOM     20  C   UNL     1      10.755   5.676   5.353  0.00  0.00    +0.401 C 
ATOM     28  H   UNL     1       9.333   4.365   6.058  0.00  0.00    +0.152 HD
BRANCH   7  23
ATOM     23  C   UNL     1      10.137   5.376   7.746  0.00  0.00    +0.070 C 
ATOM     26  C   UNL     1       9.736   4.179   8.597  0.00  0.00    +0.027 C 
ATOM     27  C   UNL     1       9.296   6.601   8.085  0.00  0.00    +0.027 C 
ENDBRANCH   7  23
ENDBRANCH   1  20
ENDBRANCH  16   1
ENDBRANCH  10  16
TORSDOF 6
ENDMDL
MODEL 6
REMARK VINA RESULT:      -5.9      2.532      5.817
REMARK  Name = 40779129
REMARK  9 active torsions:
REMARK  status: ('A' for Active; 'I' for Inactive)
REMARK    1  A    between atoms: O_1  and  C_16
REMARK    2  A    between atoms: O_1  and  C_20
REMARK    3  A    between atoms: N_5  and  C_19
REMARK    4  A    between atoms: N_7  and  C_23
REMARK    5  A    between atoms: C_9  and  C_15
REMARK    6  A    between atoms: C_10  and  C_16
REMARK    7  A    between atoms: C_18  and  C_21
REMARK    8  A    between atoms: C_23  and  C_26
REMARK    9  A    between atoms: C_23  and  C_27
REMARK                            x       y       z     vdW  Elec       q    Type
REMARK                         _______ _______ _______ _____ _____    ______ ____
ROOT
ATOM      4  N   UNL     1      -9.851  -8.804  16.560  0.00  0.00    -0.296 NA
ATOM      8  C   UNL     1      -9.032 -11.078  17.530  0.00  0.00    +0.002 C 
ATOM      9  C   UNL     1      -7.983  -9.964  17.797  0.00  0.00    +0.055 C 
ATOM     10  C   UNL     1      -9.970  -9.869  15.530  0.00  0.00    +0.095 C 
ATOM     11  C   UNL     1      -9.300 -11.173  16.014  0.00  0.00    +0.026 C 
ATOM     12  C   UNL     1     -10.347 -10.620  18.196  0.00  0.00    +0.019 C 
ATOM     13  C   UNL     1      -8.443  -8.697  17.020  0.00  0.00    +0.094 C 
ATOM     14  C   UNL     1     -10.687  -9.197  17.719  0.00  0.00    +0.085 C 
ENDROOT
BRANCH   9  15
ATOM      5  N   UNL     1      -5.714 -10.860  18.501  0.00  0.00    -0.270 N 
ATOM      6  N   UNL     1      -4.450 -11.062  18.091  0.00  0.00    -0.168 NA
ATOM     15  C   UNL     1      -6.514 -10.287  17.556  0.00  0.00    +0.044 A 
ATOM     17  C   UNL     1      -5.719 -10.101  16.452  0.00  0.00    +0.056 A 
ATOM     18  C   UNL     1      -4.459 -10.597  16.839  0.00  0.00    +0.128 A 
ATOM     19  C   UNL     1      -6.092 -11.249  19.840  0.00  0.00    +0.172 C 
BRANCH  18  21
ATOM      2  O   UNL     1      -3.261 -10.496  14.640  0.00  0.00    -0.461 OA
ATOM     21  C   UNL     1      -3.252 -10.623  15.994  0.00  0.00    +0.155 A 
ATOM     22  C   UNL     1      -1.965 -10.778  16.455  0.00  0.00    +0.051 A 
ATOM     24  C   UNL     1      -1.131 -10.745  15.313  0.00  0.00    +0.042 A 
ATOM     25  C   UNL     1      -1.967 -10.571  14.234  0.00  0.00    +0.196 A 
ENDBRANCH  18  21
ENDBRANCH   9  15
BRANCH  10  16
ATOM     16  C   UNL     1      -9.434  -9.425  14.167  0.00  0.00    +0.252 C 
BRANCH  16   1
ATOM      1  O   UNL     1      -8.208 -10.090  13.931  0.00  0.00    -0.449 OA
BRANCH   1  20
ATOM      3  O   UNL     1      -8.193 -11.382  12.032  0.00  0.00    -0.226 OA
ATOM      7  N   UNL     1      -7.202  -9.284  12.074  0.00  0.00    -0.279 N 
ATOM     20  C   UNL     1      -7.892 -10.347  12.617  0.00  0.00    +0.401 C 
ATOM     28  H   UNL     1      -7.059  -8.465  12.657  0.00  0.00    +0.152 HD
BRANCH   7  23
ATOM     23  C   UNL     1      -6.729  -9.249  10.709  0.00  0.00    +0.070 C 
ATOM     26  C   UNL     1      -5.384  -8.540  10.633  0.00  0.00    +0.027 C 
ATOM     27  C   UNL     1      -7.758  -8.581   9.805  0.00  0.00    +0.027 C 
ENDBRANCH   7  23
ENDBRANCH   1  20
ENDBRANCH  16   1
ENDBRANCH  10  16
TORSDOF 6
ENDMDL
MODEL 7
REMARK VINA RESULT:      -5.9      5.131     10.310
REMARK  Name = 40779129
REMARK  9 active torsions:
REMARK  status: ('A' for Active; 'I' for Inactive)
REMARK    1  A    between atoms: O_1  and  C_16
REMARK    2  A    between atoms: O_1  and  C_20
REMARK    3  A    between atoms: N_5  and  C_19
REMARK    4  A    between atoms: N_7  and  C_23
REMARK    5  A    between atoms: C_9  and  C_15
REMARK    6  A    between atoms: C_10  and  C_16
REMARK    7  A    between atoms: C_18  and  C_21
REMARK    8  A    between atoms: C_23  and  C_26
REMARK    9  A    between atoms: C_23  and  C_27
REMARK                            x       y       z     vdW  Elec       q    Type
REMARK                         _______ _______ _______ _____ _____    ______ ____
ROOT
ATOM      4  N   UNL     1      -5.111 -10.405  11.300  0.00  0.00    -0.296 NA
ATOM      8  C   UNL     1      -4.594  -8.777   9.333  0.00  0.00    +0.002 C 
ATOM      9  C   UNL     1      -5.557  -9.904   8.867  0.00  0.00    +0.055 C 
ATOM     10  C   UNL     1      -3.643 -10.201  11.179  0.00  0.00    +0.095 C 
ATOM     11  C   UNL     1      -3.306  -9.409   9.899  0.00  0.00    +0.026 C 
ATOM     12  C   UNL     1      -5.293  -8.049  10.501  0.00  0.00    +0.019 C 
ATOM     13  C   UNL     1      -5.655 -10.938  10.025  0.00  0.00    +0.094 C 
ATOM     14  C   UNL     1      -5.734  -9.084  11.552  0.00  0.00    +0.085 C 
ENDROOT
BRANCH   9  15
ATOM      5  N   UNL     1      -5.933 -10.204   6.375  0.00  0.00    -0.270 N 
ATOM      6  N   UNL     1      -5.555 -10.911   5.296  0.00  0.00    -0.168 NA
ATOM     15  C   UNL     1      -5.290 -10.567   7.523  0.00  0.00    +0.044 A 
ATOM     17  C   UNL     1      -4.435 -11.582   7.170  0.00  0.00    +0.056 A 
ATOM     18  C   UNL     1      -4.641 -11.751   5.788  0.00  0.00    +0.128 A 
ATOM     19  C   UNL     1      -6.934  -9.173   6.227  0.00  0.00    +0.172 C 
BRANCH  18  21
ATOM      2  O   UNL     1      -4.125 -14.077   5.012  0.00  0.00    -0.461 OA
ATOM     21  C   UNL     1      -3.949 -12.731   4.932  0.00  0.00    +0.155 A 
ATOM     22  C   UNL     1      -3.041 -12.421   3.947  0.00  0.00    +0.051 A 
ATOM     24  C   UNL     1      -2.632 -13.654   3.386  0.00  0.00    +0.042 A 
ATOM     25  C   UNL     1      -3.321 -14.631   4.067  0.00  0.00    +0.196 A 
ENDBRANCH  18  21
ENDBRANCH   9  15
BRANCH  10  16
ATOM     16  C   UNL     1      -2.864 -11.516  11.259  0.00  0.00    +0.252 C 
BRANCH  16   1
ATOM      1  O   UNL     1      -3.306 -12.228  12.398  0.00  0.00    -0.449 OA
BRANCH   1  20
ATOM      3  O   UNL     1      -1.476 -13.000  13.552  0.00  0.00    -0.226 OA
ATOM      7  N   UNL     1      -2.848 -11.347  14.428  0.00  0.00    -0.279 N 
ATOM     20  C   UNL     1      -2.450 -12.259  13.474  0.00  0.00    +0.401 C 
ATOM     28  H   UNL     1      -3.650 -10.761  14.217  0.00  0.00    +0.152 HD
BRANCH   7  23
ATOM     23  C   UNL     1      -2.154 -11.140  15.679  0.00  0.00    +0.070 C 
ATOM     26  C   UNL     1      -3.146 -10.832  16.791  0.00  0.00    +0.027 C 
ATOM     27  C   UNL     1      -1.120 -10.030  15.537  0.00  0.00    +0.027 C 
ENDBRANCH   7  23
ENDBRANCH   1  20
ENDBRANCH  16   1
ENDBRANCH  10  16
TORSDOF 6
ENDMDL
MODEL 8
REMARK VINA RESULT:      -5.7     24.513     28.189
REMARK  Name = 40779129
REMARK  9 active torsions:
REMARK  status: ('A' for Active; 'I' for Inactive)
REMARK    1  A    between atoms: O_1  and  C_16
REMARK    2  A    between atoms: O_1  and  C_20
REMARK    3  A    between atoms: N_5  and  C_19
REMARK    4  A    between atoms: N_7  and  C_23
REMARK    5  A    between atoms: C_9  and  C_15
REMARK    6  A    between atoms: C_10  and  C_16
REMARK    7  A    between atoms: C_18  and  C_21
REMARK    8  A    between atoms: C_23  and  C_26
REMARK    9  A    between atoms: C_23  and  C_27
REMARK                            x       y       z     vdW  Elec       q    Type
REMARK                         _______ _______ _______ _____ _____    ______ ____
ROOT
ATOM      4  N   UNL     1      12.614   5.951  -0.358  0.00  0.00    -0.296 NA
ATOM      8  C   UNL     1      11.136   4.154   0.814  0.00  0.00    +0.002 C 
ATOM      9  C   UNL     1      10.634   5.583   1.162  0.00  0.00    +0.055 C 
ATOM     10  C   UNL     1      13.474   4.969   0.353  0.00  0.00    +0.095 C 
ATOM     11  C   UNL     1      12.618   4.022   1.220  0.00  0.00    +0.026 C 
ATOM     12  C   UNL     1      11.074   4.023  -0.723  0.00  0.00    +0.019 C 
ATOM     13  C   UNL     1      11.676   6.591   0.599  0.00  0.00    +0.094 C 
ATOM     14  C   UNL     1      11.815   5.211  -1.363  0.00  0.00    +0.085 C 
ENDROOT
BRANCH   9  15
ATOM      5  N   UNL     1       9.513   6.960   2.976  0.00  0.00    -0.270 N 
ATOM      6  N   UNL     1       9.300   7.046   4.301  0.00  0.00    -0.168 NA
ATOM     15  C   UNL     1      10.265   5.882   2.608  0.00  0.00    +0.044 A 
ATOM     17  C   UNL     1      10.564   5.218   3.772  0.00  0.00    +0.056 A 
ATOM     18  C   UNL     1       9.944   5.979   4.782  0.00  0.00    +0.128 A 
ATOM     19  C   UNL     1       8.954   7.968   2.105  0.00  0.00    +0.172 C 
BRANCH  18  21
ATOM      2  O   UNL     1       9.849   4.426   6.745  0.00  0.00    -0.461 OA
ATOM     21  C   UNL     1       9.972   5.675   6.223  0.00  0.00    +0.155 A 
ATOM     22  C   UNL     1      10.125   6.604   7.225  0.00  0.00    +0.051 A 
ATOM     24  C   UNL     1      10.093   5.881   8.441  0.00  0.00    +0.042 A 
ATOM     25  C   UNL     1       9.924   4.561   8.096  0.00  0.00    +0.196 A 
ENDBRANCH  18  21
ENDBRANCH   9  15
BRANCH  10  16
ATOM     16  C   UNL     1      14.579   5.645   1.167  0.00  0.00    +0.252 C 
BRANCH  16   1
ATOM      1  O   UNL     1      14.186   5.664   2.525  0.00  0.00    -0.449 OA
BRANCH   1  20
ATOM      3  O   UNL     1      14.869   7.849   2.711  0.00  0.00    -0.226 OA
ATOM      7  N   UNL     1      13.728   6.789   4.432  0.00  0.00    -0.279 N 
ATOM     20  C   UNL     1      14.312   6.864   3.185  0.00  0.00    +0.401 C 
ATOM     28  H   UNL     1      13.259   5.924   4.683  0.00  0.00    +0.152 HD
BRANCH   7  23
ATOM     23  C   UNL     1      13.696   7.888   5.369  0.00  0.00    +0.070 C 
ATOM     26  C   UNL     1      13.785   7.369   6.797  0.00  0.00    +0.027 C 
ATOM     27  C   UNL     1      12.440   8.727   5.163  0.00  0.00    +0.027 C 
ENDBRANCH   7  23
ENDBRANCH   1  20
ENDBRANCH  16   1
ENDBRANCH  10  16
TORSDOF 6
ENDMDL
MODEL 9
REMARK VINA RESULT:      -5.7      2.098      2.593
REMARK  Name = 40779129
REMARK  9 active torsions:
REMARK  status: ('A' for Active; 'I' for Inactive)
REMARK    1  A    between atoms: O_1  and  C_16
REMARK    2  A    between atoms: O_1  and  C_20
REMARK    3  A    between atoms: N_5  and  C_19
REMARK    4  A    between atoms: N_7  and  C_23
REMARK    5  A    between atoms: C_9  and  C_15
REMARK    6  A    between atoms: C_10  and  C_16
REMARK    7  A    between atoms: C_18  and  C_21
REMARK    8  A    between atoms: C_23  and  C_26
REMARK    9  A    between atoms: C_23  and  C_27
REMARK                            x       y       z     vdW  Elec       q    Type
REMARK                         _______ _______ _______ _____ _____    ______ ____
ROOT
ATOM      4  N   UNL     1      -6.620 -11.990  17.063  0.00  0.00    -0.296 NA
ATOM      8  C   UNL     1      -7.692 -10.910  19.177  0.00  0.00    +0.002 C 
ATOM      9  C   UNL     1      -8.787 -11.264  18.133  0.00  0.00    +0.055 C 
ATOM     10  C   UNL     1      -5.907 -10.732  17.409  0.00  0.00    +0.095 C 
ATOM     11  C   UNL     1      -6.652  -9.973  18.527  0.00  0.00    +0.026 C 
ATOM     12  C   UNL     1      -6.963 -12.226  19.523  0.00  0.00    +0.019 C 
ATOM     13  C   UNL     1      -8.060 -11.711  16.833  0.00  0.00    +0.094 C 
ATOM     14  C   UNL     1      -6.507 -12.909  18.221  0.00  0.00    +0.085 C 
ENDROOT
BRANCH   9  15
ATOM      5  N   UNL     1     -10.975 -10.090  18.660  0.00  0.00    -0.270 N 
ATOM      6  N   UNL     1     -11.821  -9.131  18.247  0.00  0.00    -0.168 NA
ATOM     15  C   UNL     1      -9.879 -10.239  17.861  0.00  0.00    +0.044 A 
ATOM     17  C   UNL     1     -10.018  -9.314  16.855  0.00  0.00    +0.056 A 
ATOM     18  C   UNL     1     -11.231  -8.660  17.144  0.00  0.00    +0.128 A 
ATOM     19  C   UNL     1     -11.287 -10.839  19.856  0.00  0.00    +0.172 C 
BRANCH  18  21
ATOM      2  O   UNL     1     -13.160  -7.443  16.108  0.00  0.00    -0.461 OA
ATOM     21  C   UNL     1     -11.829  -7.572  16.351  0.00  0.00    +0.155 A 
ATOM     22  C   UNL     1     -11.128  -6.550  15.755  0.00  0.00    +0.051 A 
ATOM     24  C   UNL     1     -12.089  -5.741  15.104  0.00  0.00    +0.042 A 
ATOM     25  C   UNL     1     -13.310  -6.326  15.349  0.00  0.00    +0.196 A 
ENDBRANCH  18  21
ENDBRANCH   9  15
BRANCH  10  16
ATOM     16  C   UNL     1      -5.661  -9.847  16.185  0.00  0.00    +0.252 C 
BRANCH  16   1
ATOM      1  O   UNL     1      -5.577 -10.678  15.043  0.00  0.00    -0.449 OA
BRANCH   1  20
ATOM      3  O   UNL     1      -4.386 -10.329  13.111  0.00  0.00    -0.226 OA
ATOM      7  N   UNL     1      -3.325 -10.851  15.107  0.00  0.00    -0.279 N 
ATOM     20  C   UNL     1      -4.419 -10.595  14.307  0.00  0.00    +0.401 C 
ATOM     28  H   UNL     1      -3.489 -11.013  16.096  0.00  0.00    +0.152 HD
BRANCH   7  23
ATOM     23  C   UNL     1      -1.962 -10.841  14.627  0.00  0.00    +0.070 C 
ATOM     26  C   UNL     1      -1.541 -12.239  14.198  0.00  0.00    +0.027 C 
ATOM     27  C   UNL     1      -1.026 -10.284  15.693  0.00  0.00    +0.027 C 
ENDBRANCH   7  23
ENDBRANCH   1  20
ENDBRANCH  16   1
ENDBRANCH  10  16
TORSDOF 6
ENDMDL
MODEL 10
REMARK VINA RESULT:      -5.7     23.780     27.291
REMARK  Name = 40779129
REMARK  9 active torsions:
REMARK  status: ('A' for Active; 'I' for Inactive)
REMARK    1  A    between atoms: O_1  and  C_16
REMARK    2  A    between atoms: O_1  and  C_20
REMARK    3  A    between atoms: N_5  and  C_19
REMARK    4  A    between atoms: N_7  and  C_23
REMARK    5  A    between atoms: C_9  and  C_15
REMARK    6  A    between atoms: C_10  and  C_16
REMARK    7  A    between atoms: C_18  and  C_21
REMARK    8  A    between atoms: C_23  and  C_26
REMARK    9  A    between atoms: C_23  and  C_27
REMARK                            x       y       z     vdW  Elec       q    Type
REMARK                         _______ _______ _______ _____ _____    ______ ____
ROOT
ATOM      4  N   UNL     1       8.863  10.659   2.739  0.00  0.00    -0.296 NA
ATOM      8  C   UNL     1       6.967   9.931   4.370  0.00  0.00    +0.002 C 
ATOM      9  C   UNL     1       8.272  10.236   5.155  0.00  0.00    +0.055 C 
ATOM     10  C   UNL     1       8.232   9.403   2.257  0.00  0.00    +0.095 C 
ATOM     11  C   UNL     1       7.252   8.846   3.311  0.00  0.00    +0.026 C 
ATOM     12  C   UNL     1       6.594  11.221   3.608  0.00  0.00    +0.019 C 
ATOM     13  C   UNL     1       9.401  10.464   4.110  0.00  0.00    +0.094 C 
ATOM     14  C   UNL     1       7.811  11.702   2.800  0.00  0.00    +0.085 C 
ENDROOT
BRANCH   9  15
ATOM      5  N   UNL     1       9.249   9.681   7.431  0.00  0.00    -0.270 N 
ATOM      6  N   UNL     1       9.548   8.673   8.270  0.00  0.00    -0.168 NA
ATOM     15  C   UNL     1       8.690   9.271   6.256  0.00  0.00    +0.044 A 
ATOM     17  C   UNL     1       8.619   7.902   6.330  0.00  0.00    +0.056 A 
ATOM     18  C   UNL     1       9.161   7.589   7.592  0.00  0.00    +0.128 A 
ATOM     19  C   UNL     1       9.532  11.039   7.832  0.00  0.00    +0.172 C 
BRANCH  18  21
ATOM      2  O   UNL     1       9.004   5.896   9.432  0.00  0.00    -0.461 OA
ATOM     21  C   UNL     1       9.307   6.233   8.150  0.00  0.00    +0.155 A 
ATOM     22  C   UNL     1       9.764   5.136   7.458  0.00  0.00    +0.051 A 
ATOM     24  C   UNL     1       9.741   4.057   8.371  0.00  0.00    +0.042 A 
ATOM     25  C   UNL     1       9.271   4.570   9.558  0.00  0.00    +0.196 A 
ENDBRANCH  18  21
ENDBRANCH   9  15
BRANCH  10  16
ATOM     16  C   UNL     1       9.265   8.358   1.830  0.00  0.00    +0.252 C 
BRANCH  16   1
ATOM      1  O   UNL     1       9.040   7.177   2.576  0.00  0.00    -0.449 OA
BRANCH   1  20
ATOM      3  O   UNL     1      10.251   5.354   3.273  0.00  0.00    -0.226 OA
ATOM      7  N   UNL     1      11.113   7.504   3.416  0.00  0.00    -0.279 N 
ATOM     20  C   UNL     1      10.151   6.565   3.107  0.00  0.00    +0.401 C 
ATOM     28  H   UNL     1      10.920   8.474   3.184  0.00  0.00    +0.152 HD
BRANCH   7  23
ATOM     23  C   UNL     1      12.397   7.176   3.992  0.00  0.00    +0.070 C 
ATOM     26  C   UNL     1      12.287   7.070   5.506  0.00  0.00    +0.027 C 
ATOM     27  C   UNL     1      13.443   8.206   3.584  0.00  0.00    +0.027 C 
ENDBRANCH   7  23
ENDBRANCH   1  20
ENDBRANCH  16   1
ENDBRANCH  10  16
TORSDOF 6
ENDMDL
