MODEL 1
REMARK VINA RESULT:      -6.5      0.000      0.000
REMARK  Name = 45784215
REMARK  6 active torsions:
REMARK  status: ('A' for Active; 'I' for Inactive)
REMARK    1  A    between atoms: N_1  and  C_8
REMARK    2  A    between atoms: C_4  and  C_9
REMARK    3  A    between atoms: C_8  and  C_10
REMARK    4  A    between atoms: C_10  and  C_11
REMARK    5  A    between atoms: C_10  and  C_12
REMARK    6  A    between atoms: C_17  and  C_19
REMARK                            x       y       z     vdW  Elec       q    Type
REMARK                         _______ _______ _______ _____ _____    ______ ____
ROOT
ATOM      2  N   UNL     1      10.158   4.339   5.429  0.00  0.00    -0.342 N 
ATOM      3  N   UNL     1       9.532   6.437   5.046  0.00  0.00    -0.232 NA
ATOM      9  C   UNL     1       9.965   5.323   4.500  0.00  0.00    +0.113 A 
ATOM     13  C   UNL     1       9.826   4.853   6.657  0.00  0.00    +0.066 A 
ATOM     14  C   UNL     1       9.438   6.162   6.390  0.00  0.00    +0.089 A 
ATOM     15  C   UNL     1       9.831   4.299   7.938  0.00  0.00    +0.031 A 
ATOM     16  C   UNL     1       9.028   6.984   7.454  0.00  0.00    +0.030 A 
ATOM     17  C   UNL     1       9.420   5.132   8.984  0.00  0.00    -0.048 A 
ATOM     18  C   UNL     1       9.025   6.451   8.749  0.00  0.00    +0.005 A 
ATOM     19  C   UNL     1       9.404   4.599  10.380  0.00  0.00    +0.044 C 
ATOM     20  H   UNL     1      10.487   3.400   5.248  0.00  0.00    +0.167 HD
ENDROOT
BRANCH   9   4
ATOM      1  N   UNL     1      11.832   4.198   1.554  0.00  0.00    -0.301 NA
ATOM      4  C   UNL     1      10.243   5.083   3.033  0.00  0.00    +0.070 C 
ATOM      5  C   UNL     1      11.119   3.848   2.784  0.00  0.00    +0.095 C 
ATOM      6  C   UNL     1      10.975   6.231   2.317  0.00  0.00    +0.028 C 
ATOM      7  C   UNL     1      12.228   5.595   1.733  0.00  0.00    +0.085 C 
BRANCH   1   8
ATOM      8  C   UNL     1      12.970   3.327   1.305  0.00  0.00    +0.087 C 
BRANCH   8  10
ATOM     10  C   UNL     1      14.126   4.056   0.600  0.00  0.00    -0.003 C 
ATOM     11  C   UNL     1      15.463   3.603   1.194  0.00  0.00    +0.008 C 
ATOM     12  C   UNL     1      14.132   3.825  -0.914  0.00  0.00    +0.008 C 
ENDBRANCH   8  10
ENDBRANCH   1   8
ENDBRANCH   9   4
TORSDOF 3
ENDMDL
MODEL 2
REMARK VINA RESULT:      -6.3     15.529     18.321
REMARK  Name = 45784215
REMARK  6 active torsions:
REMARK  status: ('A' for Active; 'I' for Inactive)
REMARK    1  A    between atoms: N_1  and  C_8
REMARK    2  A    between atoms: C_4  and  C_9
REMARK    3  A    between atoms: C_8  and  C_10
REMARK    4  A    between atoms: C_10  and  C_11
REMARK    5  A    between atoms: C_10  and  C_12
REMARK    6  A    between atoms: C_17  and  C_19
REMARK                            x       y       z     vdW  Elec       q    Type
REMARK                         _______ _______ _______ _____ _____    ______ ____
ROOT
ATOM      2  N   UNL     1      15.378   8.499  20.654  0.00  0.00    -0.342 N 
ATOM      3  N   UNL     1      14.666   7.256  18.955  0.00  0.00    -0.232 NA
ATOM      9  C   UNL     1      14.363   8.236  19.777  0.00  0.00    +0.113 A 
ATOM     13  C   UNL     1      16.404   7.631  20.379  0.00  0.00    +0.066 A 
ATOM     14  C   UNL     1      15.934   6.867  19.315  0.00  0.00    +0.089 A 
ATOM     15  C   UNL     1      17.664   7.457  20.953  0.00  0.00    +0.031 A 
ATOM     16  C   UNL     1      16.758   5.862  18.779  0.00  0.00    +0.030 A 
ATOM     17  C   UNL     1      18.470   6.452  20.407  0.00  0.00    -0.048 A 
ATOM     18  C   UNL     1      18.027   5.668  19.339  0.00  0.00    +0.005 A 
ATOM     19  C   UNL     1      19.830   6.215  20.977  0.00  0.00    +0.044 C 
ATOM     20  H   UNL     1      15.376   9.206  21.377  0.00  0.00    +0.167 HD
ENDROOT
BRANCH   9   4
ATOM      1  N   UNL     1      11.337   9.701  21.233  0.00  0.00    -0.301 NA
ATOM      4  C   UNL     1      13.072   9.021  19.810  0.00  0.00    +0.070 C 
ATOM      5  C   UNL     1      12.800   9.666  21.176  0.00  0.00    +0.095 C 
ATOM      6  C   UNL     1      11.807   8.199  19.509  0.00  0.00    +0.028 C 
ATOM      7  C   UNL     1      10.909   8.399  20.721  0.00  0.00    +0.085 C 
BRANCH   1   8
ATOM      8  C   UNL     1      10.840   9.959  22.577  0.00  0.00    +0.087 C 
BRANCH   8  10
ATOM     10  C   UNL     1      11.454  11.226  23.197  0.00  0.00    -0.003 C 
ATOM     11  C   UNL     1      10.980  12.461  22.425  0.00  0.00    +0.008 C 
ATOM     12  C   UNL     1      11.107  11.383  24.680  0.00  0.00    +0.008 C 
ENDBRANCH   8  10
ENDBRANCH   1   8
ENDBRANCH   9   4
TORSDOF 3
ENDMDL
MODEL 3
REMARK VINA RESULT:      -6.1     15.824     18.641
REMARK  Name = 45784215
REMARK  6 active torsions:
REMARK  status: ('A' for Active; 'I' for Inactive)
REMARK    1  A    between atoms: N_1  and  C_8
REMARK    2  A    between atoms: C_4  and  C_9
REMARK    3  A    between atoms: C_8  and  C_10
REMARK    4  A    between atoms: C_10  and  C_11
REMARK    5  A    between atoms: C_10  and  C_12
REMARK    6  A    between atoms: C_17  and  C_19
REMARK                            x       y       z     vdW  Elec       q    Type
REMARK                         _______ _______ _______ _____ _____    ______ ____
ROOT
ATOM      2  N   UNL     1      17.739   7.459  21.803  0.00  0.00    -0.342 N 
ATOM      3  N   UNL     1      17.690   6.365  19.869  0.00  0.00    -0.232 NA
ATOM      9  C   UNL     1      17.047   7.202  20.653  0.00  0.00    +0.113 A 
ATOM     13  C   UNL     1      18.906   6.740  21.759  0.00  0.00    +0.066 A 
ATOM     14  C   UNL     1      18.851   6.066  20.542  0.00  0.00    +0.089 A 
ATOM     15  C   UNL     1      19.973   6.626  22.652  0.00  0.00    +0.031 A 
ATOM     16  C   UNL     1      19.915   5.223  20.179  0.00  0.00    +0.030 A 
ATOM     17  C   UNL     1      21.022   5.782  22.274  0.00  0.00    -0.048 A 
ATOM     18  C   UNL     1      20.997   5.093  21.060  0.00  0.00    +0.005 A 
ATOM     19  C   UNL     1      22.193   5.617  23.187  0.00  0.00    +0.044 C 
ATOM     20  H   UNL     1      17.446   8.069  22.555  0.00  0.00    +0.167 HD
ENDROOT
BRANCH   9   4
ATOM      1  N   UNL     1      13.395   7.482  20.565  0.00  0.00    -0.301 NA
ATOM      4  C   UNL     1      15.705   7.842  20.384  0.00  0.00    +0.070 C 
ATOM      5  C   UNL     1      14.617   7.386  21.366  0.00  0.00    +0.095 C 
ATOM      6  C   UNL     1      15.117   7.552  18.991  0.00  0.00    +0.028 C 
ATOM      7  C   UNL     1      13.755   6.928  19.260  0.00  0.00    +0.085 C 
BRANCH   1   8
ATOM      8  C   UNL     1      12.276   6.779  21.175  0.00  0.00    +0.087 C 
BRANCH   8  10
ATOM     10  C   UNL     1      10.995   7.631  21.209  0.00  0.00    -0.003 C 
ATOM     11  C   UNL     1      10.912   8.387  22.538  0.00  0.00    +0.008 C 
ATOM     12  C   UNL     1      10.918   8.624  20.047  0.00  0.00    +0.008 C 
ENDBRANCH   8  10
ENDBRANCH   1   8
ENDBRANCH   9   4
TORSDOF 3
ENDMDL
MODEL 4
REMARK VINA RESULT:      -6.0     13.753     15.732
REMARK  Name = 45784215
REMARK  6 active torsions:
REMARK  status: ('A' for Active; 'I' for Inactive)
REMARK    1  A    between atoms: N_1  and  C_8
REMARK    2  A    between atoms: C_4  and  C_9
REMARK    3  A    between atoms: C_8  and  C_10
REMARK    4  A    between atoms: C_10  and  C_11
REMARK    5  A    between atoms: C_10  and  C_12
REMARK    6  A    between atoms: C_17  and  C_19
REMARK                            x       y       z     vdW  Elec       q    Type
REMARK                         _______ _______ _______ _____ _____    ______ ____
ROOT
ATOM      2  N   UNL     1      -0.006   2.375  -7.471  0.00  0.00    -0.342 N 
ATOM      3  N   UNL     1       1.090   0.976  -6.137  0.00  0.00    -0.232 NA
ATOM      9  C   UNL     1       1.135   2.132  -6.760  0.00  0.00    +0.113 A 
ATOM     13  C   UNL     1      -0.844   1.303  -7.296  0.00  0.00    +0.066 A 
ATOM     14  C   UNL     1      -0.137   0.445  -6.460  0.00  0.00    +0.089 A 
ATOM     15  C   UNL     1      -2.121   1.021  -7.783  0.00  0.00    +0.031 A 
ATOM     16  C   UNL     1      -0.723  -0.774  -6.076  0.00  0.00    +0.030 A 
ATOM     17  C   UNL     1      -2.689  -0.196  -7.391  0.00  0.00    -0.048 A 
ATOM     18  C   UNL     1      -2.004  -1.079  -6.553  0.00  0.00    +0.005 A 
ATOM     19  C   UNL     1      -4.054  -0.557  -7.879  0.00  0.00    +0.044 C 
ATOM     20  H   UNL     1      -0.202   3.195  -8.029  0.00  0.00    +0.167 HD
ENDROOT
BRANCH   9   4
ATOM      1  N   UNL     1       3.186   4.898  -5.504  0.00  0.00    -0.301 NA
ATOM      4  C   UNL     1       2.274   3.126  -6.740  0.00  0.00    +0.070 C 
ATOM      5  C   UNL     1       2.689   3.532  -5.320  0.00  0.00    +0.095 C 
ATOM      6  C   UNL     1       1.985   4.456  -7.457  0.00  0.00    +0.028 C 
ATOM      7  C   UNL     1       2.222   5.530  -6.405  0.00  0.00    +0.085 C 
BRANCH   1   8
ATOM      8  C   UNL     1       3.320   5.614  -4.245  0.00  0.00    +0.087 C 
BRANCH   8  10
ATOM     10  C   UNL     1       4.637   6.404  -4.155  0.00  0.00    -0.003 C 
ATOM     11  C   UNL     1       4.892   6.822  -2.704  0.00  0.00    +0.008 C 
ATOM     12  C   UNL     1       5.836   5.610  -4.680  0.00  0.00    +0.008 C 
ENDBRANCH   8  10
ENDBRANCH   1   8
ENDBRANCH   9   4
TORSDOF 3
ENDMDL
MODEL 5
REMARK VINA RESULT:      -5.8      1.834      2.222
REMARK  Name = 45784215
REMARK  6 active torsions:
REMARK  status: ('A' for Active; 'I' for Inactive)
REMARK    1  A    between atoms: N_1  and  C_8
REMARK    2  A    between atoms: C_4  and  C_9
REMARK    3  A    between atoms: C_8  and  C_10
REMARK    4  A    between atoms: C_10  and  C_11
REMARK    5  A    between atoms: C_10  and  C_12
REMARK    6  A    between atoms: C_17  and  C_19
REMARK                            x       y       z     vdW  Elec       q    Type
REMARK                         _______ _______ _______ _____ _____    ______ ____
ROOT
ATOM      2  N   UNL     1      11.796   6.180   5.659  0.00  0.00    -0.342 N 
ATOM      3  N   UNL     1      10.652   8.068   5.408  0.00  0.00    -0.232 NA
ATOM      9  C   UNL     1      11.621   7.321   4.928  0.00  0.00    +0.113 A 
ATOM     13  C   UNL     1      10.879   6.191   6.679  0.00  0.00    +0.066 A 
ATOM     14  C   UNL     1      10.178   7.379   6.499  0.00  0.00    +0.089 A 
ATOM     15  C   UNL     1      10.612   5.290   7.710  0.00  0.00    +0.031 A 
ATOM     16  C   UNL     1       9.144   7.706   7.394  0.00  0.00    +0.030 A 
ATOM     17  C   UNL     1       9.580   5.631   8.591  0.00  0.00    -0.048 A 
ATOM     18  C   UNL     1       8.858   6.816   8.438  0.00  0.00    +0.005 A 
ATOM     19  C   UNL     1       9.245   4.708   9.717  0.00  0.00    +0.044 C 
ATOM     20  H   UNL     1      12.479   5.454   5.483  0.00  0.00    +0.167 HD
ENDROOT
BRANCH   9   4
ATOM      1  N   UNL     1      13.520   6.619   1.873  0.00  0.00    -0.301 NA
ATOM      4  C   UNL     1      12.481   7.621   3.721  0.00  0.00    +0.070 C 
ATOM      5  C   UNL     1      12.221   6.665   2.549  0.00  0.00    +0.095 C 
ATOM      6  C   UNL     1      13.997   7.530   3.969  0.00  0.00    +0.028 C 
ATOM      7  C   UNL     1      14.502   6.517   2.952  0.00  0.00    +0.085 C 
BRANCH   1   8
ATOM      8  C   UNL     1      13.615   5.515   0.930  0.00  0.00    +0.087 C 
BRANCH   8  10
ATOM     10  C   UNL     1      14.140   4.226   1.585  0.00  0.00    -0.003 C 
ATOM     11  C   UNL     1      13.047   3.152   1.563  0.00  0.00    +0.008 C 
ATOM     12  C   UNL     1      15.401   3.689   0.902  0.00  0.00    +0.008 C 
ENDBRANCH   8  10
ENDBRANCH   1   8
ENDBRANCH   9   4
TORSDOF 3
ENDMDL
MODEL 6
REMARK VINA RESULT:      -5.7     28.769     32.699
REMARK  Name = 45784215
REMARK  6 active torsions:
REMARK  status: ('A' for Active; 'I' for Inactive)
REMARK    1  A    between atoms: N_1  and  C_8
REMARK    2  A    between atoms: C_4  and  C_9
REMARK    3  A    between atoms: C_8  and  C_10
REMARK    4  A    between atoms: C_10  and  C_11
REMARK    5  A    between atoms: C_10  and  C_12
REMARK    6  A    between atoms: C_17  and  C_19
REMARK                            x       y       z     vdW  Elec       q    Type
REMARK                         _______ _______ _______ _____ _____    ______ ____
ROOT
ATOM      2  N   UNL     1     -15.747   4.413  25.134  0.00  0.00    -0.342 N 
ATOM      3  N   UNL     1     -16.323   2.686  23.860  0.00  0.00    -0.232 NA
ATOM      9  C   UNL     1     -15.938   3.942  23.865  0.00  0.00    +0.113 A 
ATOM     13  C   UNL     1     -16.027   3.391  26.006  0.00  0.00    +0.066 A 
ATOM     14  C   UNL     1     -16.383   2.325  25.185  0.00  0.00    +0.089 A 
ATOM     15  C   UNL     1     -15.998   3.312  27.399  0.00  0.00    +0.031 A 
ATOM     16  C   UNL     1     -16.736   1.098  25.773  0.00  0.00    +0.030 A 
ATOM     17  C   UNL     1     -16.352   2.083  27.966  0.00  0.00    -0.048 A 
ATOM     18  C   UNL     1     -16.715   0.995  27.169  0.00  0.00    +0.005 A 
ATOM     19  C   UNL     1     -16.342   1.934  29.452  0.00  0.00    +0.044 C 
ATOM     20  H   UNL     1     -15.453   5.346  25.389  0.00  0.00    +0.167 HD
ENDROOT
BRANCH   9   4
ATOM      1  N   UNL     1     -14.110   6.163  21.595  0.00  0.00    -0.301 NA
ATOM      4  C   UNL     1     -15.715   4.825  22.658  0.00  0.00    +0.070 C 
ATOM      5  C   UNL     1     -14.257   4.829  22.182  0.00  0.00    +0.095 C 
ATOM      6  C   UNL     1     -16.060   6.309  22.870  0.00  0.00    +0.028 C 
ATOM      7  C   UNL     1     -14.781   7.063  22.533  0.00  0.00    +0.085 C 
BRANCH   1   8
ATOM      8  C   UNL     1     -12.717   6.525  21.380  0.00  0.00    +0.087 C 
BRANCH   8  10
ATOM     10  C   UNL     1     -12.544   7.554  20.250  0.00  0.00    -0.003 C 
ATOM     11  C   UNL     1     -12.205   8.924  20.846  0.00  0.00    +0.008 C 
ATOM     12  C   UNL     1     -11.463   7.149  19.245  0.00  0.00    +0.008 C 
ENDBRANCH   8  10
ENDBRANCH   1   8
ENDBRANCH   9   4
TORSDOF 3
ENDMDL
MODEL 7
REMARK VINA RESULT:      -5.7     25.972     30.573
REMARK  Name = 45784215
REMARK  6 active torsions:
REMARK  status: ('A' for Active; 'I' for Inactive)
REMARK    1  A    between atoms: N_1  and  C_8
REMARK    2  A    between atoms: C_4  and  C_9
REMARK    3  A    between atoms: C_8  and  C_10
REMARK    4  A    between atoms: C_10  and  C_11
REMARK    5  A    between atoms: C_10  and  C_12
REMARK    6  A    between atoms: C_17  and  C_19
REMARK                            x       y       z     vdW  Elec       q    Type
REMARK                         _______ _______ _______ _____ _____    ______ ____
ROOT
ATOM      2  N   UNL     1     -12.101  10.741  21.074  0.00  0.00    -0.342 N 
ATOM      3  N   UNL     1     -12.856   8.875  22.015  0.00  0.00    -0.232 NA
ATOM      9  C   UNL     1     -12.737  10.177  22.144  0.00  0.00    +0.113 A 
ATOM     13  C   UNL     1     -11.790   9.735  20.195  0.00  0.00    +0.066 A 
ATOM     14  C   UNL     1     -12.272   8.581  20.805  0.00  0.00    +0.089 A 
ATOM     15  C   UNL     1     -11.148   9.737  18.955  0.00  0.00    +0.031 A 
ATOM     16  C   UNL     1     -12.113   7.345  20.155  0.00  0.00    +0.030 A 
ATOM     17  C   UNL     1     -10.999   8.498  18.323  0.00  0.00    -0.048 A 
ATOM     18  C   UNL     1     -11.472   7.322  18.910  0.00  0.00    +0.005 A 
ATOM     19  C   UNL     1     -10.320   8.433  16.994  0.00  0.00    +0.044 C 
ATOM     20  H   UNL     1     -11.894  11.723  20.948  0.00  0.00    +0.167 HD
ENDROOT
BRANCH   9   4
ATOM      1  N   UNL     1     -12.729  11.582  25.529  0.00  0.00    -0.301 NA
ATOM      4  C   UNL     1     -13.216  11.018  23.305  0.00  0.00    +0.070 C 
ATOM      5  C   UNL     1     -12.075  11.477  24.223  0.00  0.00    +0.095 C 
ATOM      6  C   UNL     1     -14.212  10.317  24.244  0.00  0.00    +0.028 C 
ATOM      7  C   UNL     1     -13.573  10.391  25.624  0.00  0.00    +0.085 C 
BRANCH   1   8
ATOM      8  C   UNL     1     -11.774  11.674  26.622  0.00  0.00    +0.087 C 
BRANCH   8  10
ATOM     10  C   UNL     1     -11.291  10.293  27.098  0.00  0.00    -0.003 C 
ATOM     11  C   UNL     1      -9.811  10.114  26.750  0.00  0.00    +0.008 C 
ATOM     12  C   UNL     1     -11.493  10.084  28.602  0.00  0.00    +0.008 C 
ENDBRANCH   8  10
ENDBRANCH   1   8
ENDBRANCH   9   4
TORSDOF 3
ENDMDL
MODEL 8
REMARK VINA RESULT:      -5.7     23.494     26.647
REMARK  Name = 45784215
REMARK  6 active torsions:
REMARK  status: ('A' for Active; 'I' for Inactive)
REMARK    1  A    between atoms: N_1  and  C_8
REMARK    2  A    between atoms: C_4  and  C_9
REMARK    3  A    between atoms: C_8  and  C_10
REMARK    4  A    between atoms: C_10  and  C_11
REMARK    5  A    between atoms: C_10  and  C_12
REMARK    6  A    between atoms: C_17  and  C_19
REMARK                            x       y       z     vdW  Elec       q    Type
REMARK                         _______ _______ _______ _____ _____    ______ ____
ROOT
ATOM      2  N   UNL     1      -7.561  -8.904  16.960  0.00  0.00    -0.342 N 
ATOM      3  N   UNL     1      -8.346 -10.488  18.307  0.00  0.00    -0.232 NA
ATOM      9  C   UNL     1      -7.269  -9.982  17.749  0.00  0.00    +0.113 A 
ATOM     13  C   UNL     1      -8.916  -8.701  17.014  0.00  0.00    +0.066 A 
ATOM     14  C   UNL     1      -9.382  -9.702  17.861  0.00  0.00    +0.089 A 
ATOM     15  C   UNL     1      -9.748  -7.755  16.412  0.00  0.00    +0.031 A 
ATOM     16  C   UNL     1     -10.759  -9.780  18.135  0.00  0.00    +0.030 A 
ATOM     17  C   UNL     1     -11.114  -7.848  16.696  0.00  0.00    -0.048 A 
ATOM     18  C   UNL     1     -11.613  -8.842  17.542  0.00  0.00    +0.005 A 
ATOM     19  C   UNL     1     -12.057  -6.865  16.083  0.00  0.00    +0.044 C 
ATOM     20  H   UNL     1      -6.899  -8.353  16.430  0.00  0.00    +0.167 HD
ENDROOT
BRANCH   9   4
ATOM      1  N   UNL     1      -4.071 -11.456  16.738  0.00  0.00    -0.301 NA
ATOM      4  C   UNL     1      -5.850 -10.477  17.909  0.00  0.00    +0.070 C 
ATOM      5  C   UNL     1      -5.023 -10.350  16.623  0.00  0.00    +0.095 C 
ATOM      6  C   UNL     1      -5.723 -11.957  18.310  0.00  0.00    +0.028 C 
ATOM      7  C   UNL     1      -4.863 -12.587  17.223  0.00  0.00    +0.085 C 
BRANCH   1   8
ATOM      8  C   UNL     1      -3.403 -11.747  15.478  0.00  0.00    +0.087 C 
BRANCH   8  10
ATOM     10  C   UNL     1      -2.539 -10.574  14.986  0.00  0.00    -0.003 C 
ATOM     11  C   UNL     1      -1.182 -10.596  15.697  0.00  0.00    +0.008 C 
ATOM     12  C   UNL     1      -2.325 -10.595  13.470  0.00  0.00    +0.008 C 
ENDBRANCH   8  10
ENDBRANCH   1   8
ENDBRANCH   9   4
TORSDOF 3
ENDMDL
MODEL 9
REMARK VINA RESULT:      -5.7     21.941     24.674
REMARK  Name = 45784215
REMARK  6 active torsions:
REMARK  status: ('A' for Active; 'I' for Inactive)
REMARK    1  A    between atoms: N_1  and  C_8
REMARK    2  A    between atoms: C_4  and  C_9
REMARK    3  A    between atoms: C_8  and  C_10
REMARK    4  A    between atoms: C_10  and  C_11
REMARK    5  A    between atoms: C_10  and  C_12
REMARK    6  A    between atoms: C_17  and  C_19
REMARK                            x       y       z     vdW  Elec       q    Type
REMARK                         _______ _______ _______ _____ _____    ______ ____
ROOT
ATOM      2  N   UNL     1      -4.986 -10.617  15.795  0.00  0.00    -0.342 N 
ATOM      3  N   UNL     1      -3.313 -11.254  17.112  0.00  0.00    -0.232 NA
ATOM      9  C   UNL     1      -3.647 -10.868  15.901  0.00  0.00    +0.113 A 
ATOM     13  C   UNL     1      -5.555 -10.857  17.020  0.00  0.00    +0.066 A 
ATOM     14  C   UNL     1      -4.490 -11.252  17.823  0.00  0.00    +0.089 A 
ATOM     15  C   UNL     1      -6.870 -10.763  17.479  0.00  0.00    +0.031 A 
ATOM     16  C   UNL     1      -4.732 -11.579  19.169  0.00  0.00    +0.030 A 
ATOM     17  C   UNL     1      -7.092 -11.092  18.820  0.00  0.00    -0.048 A 
ATOM     18  C   UNL     1      -6.044 -11.493  19.652  0.00  0.00    +0.005 A 
ATOM     19  C   UNL     1      -8.478 -11.013  19.372  0.00  0.00    +0.044 C 
ATOM     20  H   UNL     1      -5.475 -10.310  14.964  0.00  0.00    +0.167 HD
ENDROOT
BRANCH   9   4
ATOM      1  N   UNL     1      -2.494 -11.199  12.438  0.00  0.00    -0.301 NA
ATOM      4  C   UNL     1      -2.721 -10.700  14.718  0.00  0.00    +0.070 C 
ATOM      5  C   UNL     1      -3.466 -10.637  13.378  0.00  0.00    +0.095 C 
ATOM      6  C   UNL     1      -1.690 -11.828  14.538  0.00  0.00    +0.028 C 
ATOM      7  C   UNL     1      -1.927 -12.357  13.130  0.00  0.00    +0.085 C 
BRANCH   1   8
ATOM      8  C   UNL     1      -3.097 -11.557  11.163  0.00  0.00    +0.087 C 
BRANCH   8  10
ATOM     10  C   UNL     1      -3.774 -10.358  10.477  0.00  0.00    -0.003 C 
ATOM     11  C   UNL     1      -2.762  -9.222  10.305  0.00  0.00    +0.008 C 
ATOM     12  C   UNL     1      -4.374 -10.721   9.116  0.00  0.00    +0.008 C 
ENDBRANCH   8  10
ENDBRANCH   1   8
ENDBRANCH   9   4
TORSDOF 3
ENDMDL
MODEL 10
REMARK VINA RESULT:      -5.6     35.882     37.981
REMARK  Name = 45784215
REMARK  6 active torsions:
REMARK  status: ('A' for Active; 'I' for Inactive)
REMARK    1  A    between atoms: N_1  and  C_8
REMARK    2  A    between atoms: C_4  and  C_9
REMARK    3  A    between atoms: C_8  and  C_10
REMARK    4  A    between atoms: C_10  and  C_11
REMARK    5  A    between atoms: C_10  and  C_12
REMARK    6  A    between atoms: C_17  and  C_19
REMARK                            x       y       z     vdW  Elec       q    Type
REMARK                         _______ _______ _______ _____ _____    ______ ____
ROOT
ATOM      2  N   UNL     1     -13.970   5.891  32.844  0.00  0.00    -0.342 N 
ATOM      3  N   UNL     1     -14.016   5.108  34.923  0.00  0.00    -0.232 NA
ATOM      9  C   UNL     1     -14.293   4.848  33.665  0.00  0.00    +0.113 A 
ATOM     13  C   UNL     1     -13.448   6.891  33.624  0.00  0.00    +0.066 A 
ATOM     14  C   UNL     1     -13.487   6.378  34.916  0.00  0.00    +0.089 A 
ATOM     15  C   UNL     1     -12.959   8.162  33.317  0.00  0.00    +0.031 A 
ATOM     16  C   UNL     1     -13.016   7.166  35.980  0.00  0.00    +0.030 A 
ATOM     17  C   UNL     1     -12.494   8.932  34.388  0.00  0.00    -0.048 A 
ATOM     18  C   UNL     1     -12.520   8.445  35.697  0.00  0.00    +0.005 A 
ATOM     19  C   UNL     1     -11.958  10.302  34.126  0.00  0.00    +0.044 C 
ATOM     20  H   UNL     1     -14.092   5.924  31.840  0.00  0.00    +0.167 HD
ENDROOT
BRANCH   9   4
ATOM      1  N   UNL     1     -14.693   2.002  31.392  0.00  0.00    -0.301 NA
ATOM      4  C   UNL     1     -14.899   3.575  33.118  0.00  0.00    +0.070 C 
ATOM      5  C   UNL     1     -13.876   2.689  32.394  0.00  0.00    +0.095 C 
ATOM      6  C   UNL     1     -16.027   3.785  32.093  0.00  0.00    +0.028 C 
ATOM      7  C   UNL     1     -15.572   3.037  30.848  0.00  0.00    +0.085 C 
BRANCH   1   8
ATOM      8  C   UNL     1     -13.887   1.362  30.363  0.00  0.00    +0.087 C 
BRANCH   8  10
ATOM     10  C   UNL     1     -14.480   0.020  29.901  0.00  0.00    -0.003 C 
ATOM     11  C   UNL     1     -13.355  -0.912  29.442  0.00  0.00    +0.008 C 
ATOM     12  C   UNL     1     -15.302  -0.668  30.995  0.00  0.00    +0.008 C 
ENDBRANCH   8  10
ENDBRANCH   1   8
ENDBRANCH   9   4
TORSDOF 3
ENDMDL
