MODEL 1
REMARK VINA RESULT:      -6.2      0.000      0.000
REMARK  Name = 7049409
REMARK  12 active torsions:
REMARK  status: ('A' for Active; 'I' for Inactive)
REMARK    1  A    between atoms: O_4  and  C_28
REMARK    2  A    between atoms: O_4  and  C_34
REMARK    3  A    between atoms: N_7  and  C_11
REMARK    4  A    between atoms: N_8  and  C_15
REMARK    5  A    between atoms: N_9  and  C_24
REMARK    6  A    between atoms: N_10  and  C_33
REMARK    7  A    between atoms: C_12  and  C_18
REMARK    8  A    between atoms: C_22  and  C_25
REMARK    9  A    between atoms: C_24  and  C_26
REMARK   10  A    between atoms: C_24  and  C_28
REMARK   11  A    between atoms: C_26  and  C_29
REMARK   12  A    between atoms: C_26  and  C_30
REMARK                            x       y       z     vdW  Elec       q    Type
REMARK                         _______ _______ _______ _____ _____    ______ ____
ROOT
ATOM      2  O   UNL     1       7.847   7.767   6.871  0.00  0.00    -0.268 OA
ATOM      6  N   UNL     1      10.041   7.804   6.161  0.00  0.00    -0.283 N 
ATOM     11  C   UNL     1      12.133   8.122   5.071  0.00  0.00    +0.094 C 
ATOM     12  C   UNL     1       9.912   9.028   5.385  0.00  0.00    +0.164 C 
ATOM     13  C   UNL     1      11.342   9.432   5.034  0.00  0.00    +0.056 C 
ATOM     14  C   UNL     1      11.419   7.304   6.142  0.00  0.00    +0.131 C 
ATOM     22  C   UNL     1       8.980   7.288   6.912  0.00  0.00    +0.264 C 
ENDROOT
BRANCH  11   7
ATOM      3  O   UNL     1      14.418   7.033   3.707  0.00  0.00    -0.253 OA
ATOM      7  N   UNL     1      12.135   7.446   3.799  0.00  0.00    -0.295 N 
ATOM      8  N   UNL     1      13.023   6.341   1.985  0.00  0.00    -0.297 N 
ATOM     23  C   UNL     1      13.296   6.946   3.209  0.00  0.00    +0.300 C 
ATOM     35  H   UNL     1      11.267   7.387   3.275  0.00  0.00    +0.151 HD
ATOM     36  H   UNL     1      12.052   6.261   1.700  0.00  0.00    +0.151 HD
BRANCH   8  15
ATOM     15  C   UNL     1      14.042   5.737   1.155  0.00  0.00    +0.074 C 
ATOM     16  C   UNL     1      13.615   5.716  -0.315  0.00  0.00    +0.022 C 
ATOM     17  C   UNL     1      14.395   4.331   1.651  0.00  0.00    +0.022 C 
ATOM     19  C   UNL     1      12.505   4.701  -0.588  0.00  0.00    +0.002 C 
ATOM     20  C   UNL     1      13.283   3.318   1.376  0.00  0.00    +0.002 C 
ATOM     21  C   UNL     1      12.883   3.308  -0.096  0.00  0.00    +0.000 C 
ENDBRANCH   8  15
ENDBRANCH  11   7
BRANCH  22  25
ATOM     10  N   UNL     1       9.552   4.871   7.238  0.00  0.00    -0.346 N 
ATOM     25  C   UNL     1       9.273   6.119   7.731  0.00  0.00    +0.104 A 
ATOM     27  C   UNL     1       9.320   6.049   9.106  0.00  0.00    +0.032 A 
ATOM     31  C   UNL     1       9.778   4.006   8.276  0.00  0.00    +0.086 A 
ATOM     32  C   UNL     1       9.639   4.711   9.451  0.00  0.00    +0.020 A 
ATOM     33  C   UNL     1       9.606   4.507   5.839  0.00  0.00    +0.149 C 
ENDBRANCH  22  25
BRANCH  12  18
ATOM      1  O   UNL     1       9.394   7.816   3.393  0.00  0.00    -0.274 OA
ATOM      9  N   UNL     1       8.057   9.628   3.988  0.00  0.00    -0.301 N 
ATOM     18  C   UNL     1       9.107   8.738   4.153  0.00  0.00    +0.234 C 
ATOM     37  H   UNL     1       7.871  10.310   4.717  0.00  0.00    +0.150 HD
BRANCH   9  24
ATOM     24  C   UNL     1       7.146   9.578   2.870  0.00  0.00    +0.184 C 
BRANCH  24  26
ATOM     26  C   UNL     1       7.624  10.441   1.682  0.00  0.00    +0.014 C 
ATOM     29  C   UNL     1       8.368   9.637   0.611  0.00  0.00    +0.009 C 
ATOM     30  C   UNL     1       8.494  11.608   2.159  0.00  0.00    +0.009 C 
ENDBRANCH  24  26
BRANCH  24  28
ATOM      5  O   UNL     1       4.756   9.768   2.557  0.00  0.00    -0.249 OA
ATOM     28  C   UNL     1       5.726   9.945   3.286  0.00  0.00    +0.328 C 
BRANCH  28   4
ATOM      4  O   UNL     1       5.678  10.483   4.537  0.00  0.00    -0.467 OA
ATOM     34  C   UNL     1       4.965  11.719   4.655  0.00  0.00    +0.280 C 
ENDBRANCH  28   4
ENDBRANCH  24  28
ENDBRANCH   9  24
ENDBRANCH  12  18
TORSDOF 8
ENDMDL
MODEL 2
REMARK VINA RESULT:      -6.1      2.500      7.561
REMARK  Name = 7049409
REMARK  12 active torsions:
REMARK  status: ('A' for Active; 'I' for Inactive)
REMARK    1  A    between atoms: O_4  and  C_28
REMARK    2  A    between atoms: O_4  and  C_34
REMARK    3  A    between atoms: N_7  and  C_11
REMARK    4  A    between atoms: N_8  and  C_15
REMARK    5  A    between atoms: N_9  and  C_24
REMARK    6  A    between atoms: N_10  and  C_33
REMARK    7  A    between atoms: C_12  and  C_18
REMARK    8  A    between atoms: C_22  and  C_25
REMARK    9  A    between atoms: C_24  and  C_26
REMARK   10  A    between atoms: C_24  and  C_28
REMARK   11  A    between atoms: C_26  and  C_29
REMARK   12  A    between atoms: C_26  and  C_30
REMARK                            x       y       z     vdW  Elec       q    Type
REMARK                         _______ _______ _______ _____ _____    ______ ____
ROOT
ATOM      2  O   UNL     1      12.387   3.327   2.244  0.00  0.00    -0.268 OA
ATOM      6  N   UNL     1      12.404   5.599   1.840  0.00  0.00    -0.283 N 
ATOM     11  C   UNL     1      12.268   7.974   1.884  0.00  0.00    +0.094 C 
ATOM     12  C   UNL     1      12.494   5.984   3.241  0.00  0.00    +0.164 C 
ATOM     13  C   UNL     1      12.816   7.477   3.225  0.00  0.00    +0.056 C 
ATOM     14  C   UNL     1      12.436   6.771   0.962  0.00  0.00    +0.131 C 
ATOM     22  C   UNL     1      12.416   4.259   1.440  0.00  0.00    +0.264 C 
ENDROOT
BRANCH  11   7
ATOM      3  O   UNL     1      11.299  10.540   2.745  0.00  0.00    -0.253 OA
ATOM      7  N   UNL     1      10.892   8.390   1.972  0.00  0.00    -0.295 N 
ATOM      8  N   UNL     1       9.125   9.803   2.395  0.00  0.00    -0.297 N 
ATOM     23  C   UNL     1      10.510   9.660   2.402  0.00  0.00    +0.300 C 
ATOM     35  H   UNL     1      10.163   7.709   1.777  0.00  0.00    +0.151 HD
ATOM     36  H   UNL     1       8.570   9.038   2.025  0.00  0.00    +0.151 HD
BRANCH   8  15
ATOM     15  C   UNL     1       8.453  11.020   2.794  0.00  0.00    +0.074 C 
ATOM     16  C   UNL     1       8.020  10.954   4.261  0.00  0.00    +0.022 C 
ATOM     17  C   UNL     1       7.262  11.318   1.877  0.00  0.00    +0.022 C 
ATOM     19  C   UNL     1       6.852   9.995   4.485  0.00  0.00    +0.002 C 
ATOM     20  C   UNL     1       6.094  10.357   2.103  0.00  0.00    +0.002 C 
ATOM     21  C   UNL     1       5.675  10.318   3.570  0.00  0.00    +0.000 C 
ENDBRANCH   8  15
ENDBRANCH  11   7
BRANCH  22  25
ATOM     10  N   UNL     1      13.567   3.925  -0.759  0.00  0.00    -0.346 N 
ATOM     25  C   UNL     1      12.432   4.011   0.004  0.00  0.00    +0.104 A 
ATOM     27  C   UNL     1      11.350   3.824  -0.827  0.00  0.00    +0.032 A 
ATOM     31  C   UNL     1      13.226   3.686  -2.065  0.00  0.00    +0.086 A 
ATOM     32  C   UNL     1      11.853   3.619  -2.137  0.00  0.00    +0.020 A 
ATOM     33  C   UNL     1      14.924   4.062  -0.277  0.00  0.00    +0.149 C 
ENDBRANCH  22  25
BRANCH  12  18
ATOM      1  O   UNL     1      10.162   5.469   3.255  0.00  0.00    -0.274 OA
ATOM      9  N   UNL     1      11.254   5.801   5.286  0.00  0.00    -0.301 N 
ATOM     18  C   UNL     1      11.176   5.715   3.904  0.00  0.00    +0.234 C 
ATOM     37  H   UNL     1      12.161   5.943   5.719  0.00  0.00    +0.150 HD
BRANCH   9  24
ATOM     24  C   UNL     1      10.120   5.607   6.155  0.00  0.00    +0.184 C 
BRANCH  24  26
ATOM     26  C   UNL     1       9.176   6.829   6.176  0.00  0.00    +0.014 C 
ATOM     29  C   UNL     1       8.878   7.340   7.589  0.00  0.00    +0.009 C 
ATOM     30  C   UNL     1       7.867   6.532   5.440  0.00  0.00    +0.009 C 
ENDBRANCH  24  26
BRANCH  24  28
ATOM      5  O   UNL     1      11.472   5.776   8.153  0.00  0.00    -0.249 OA
ATOM     28  C   UNL     1      10.552   5.217   7.564  0.00  0.00    +0.328 C 
BRANCH  28   4
ATOM      4  O   UNL     1       9.806   4.194   8.068  0.00  0.00    -0.467 OA
ATOM     34  C   UNL     1       9.399   4.335   9.434  0.00  0.00    +0.280 C 
ENDBRANCH  28   4
ENDBRANCH  24  28
ENDBRANCH   9  24
ENDBRANCH  12  18
TORSDOF 8
ENDMDL
MODEL 3
REMARK VINA RESULT:      -6.0     23.698     27.413
REMARK  Name = 7049409
REMARK  12 active torsions:
REMARK  status: ('A' for Active; 'I' for Inactive)
REMARK    1  A    between atoms: O_4  and  C_28
REMARK    2  A    between atoms: O_4  and  C_34
REMARK    3  A    between atoms: N_7  and  C_11
REMARK    4  A    between atoms: N_8  and  C_15
REMARK    5  A    between atoms: N_9  and  C_24
REMARK    6  A    between atoms: N_10  and  C_33
REMARK    7  A    between atoms: C_12  and  C_18
REMARK    8  A    between atoms: C_22  and  C_25
REMARK    9  A    between atoms: C_24  and  C_26
REMARK   10  A    between atoms: C_24  and  C_28
REMARK   11  A    between atoms: C_26  and  C_29
REMARK   12  A    between atoms: C_26  and  C_30
REMARK                            x       y       z     vdW  Elec       q    Type
REMARK                         _______ _______ _______ _____ _____    ______ ____
ROOT
ATOM      2  O   UNL     1      -9.042  -9.136  17.715  0.00  0.00    -0.268 OA
ATOM      6  N   UNL     1      -9.108  -9.985  15.571  0.00  0.00    -0.283 N 
ATOM     11  C   UNL     1      -8.767 -11.088  13.490  0.00  0.00    +0.094 C 
ATOM     12  C   UNL     1      -8.270 -11.140  15.856  0.00  0.00    +0.164 C 
ATOM     13  C   UNL     1      -8.399 -12.041  14.630  0.00  0.00    +0.056 C 
ATOM     14  C   UNL     1      -9.579  -9.998  14.183  0.00  0.00    +0.131 C 
ATOM     22  C   UNL     1      -9.485  -9.080  16.568  0.00  0.00    +0.264 C 
ENDROOT
BRANCH  11   7
ATOM      3  O   UNL     1      -7.090 -12.440  11.586  0.00  0.00    -0.253 OA
ATOM      7  N   UNL     1      -7.607 -10.548  12.828  0.00  0.00    -0.295 N 
ATOM      8  N   UNL     1      -5.785 -10.526  11.421  0.00  0.00    -0.297 N 
ATOM     23  C   UNL     1      -6.849 -11.278  11.913  0.00  0.00    +0.300 C 
ATOM     35  H   UNL     1      -7.286  -9.619  13.086  0.00  0.00    +0.151 HD
ATOM     36  H   UNL     1      -5.720  -9.554  11.705  0.00  0.00    +0.151 HD
BRANCH   8  15
ATOM     15  C   UNL     1      -4.835 -11.035  10.457  0.00  0.00    +0.074 C 
ATOM     16  C   UNL     1      -3.549 -11.503  11.144  0.00  0.00    +0.022 C 
ATOM     17  C   UNL     1      -4.538  -9.993   9.373  0.00  0.00    +0.022 C 
ATOM     19  C   UNL     1      -2.706 -10.338  11.664  0.00  0.00    +0.002 C 
ATOM     20  C   UNL     1      -3.694  -8.830   9.896  0.00  0.00    +0.002 C 
ATOM     21  C   UNL     1      -2.414  -9.321  10.566  0.00  0.00    +0.000 C 
ENDBRANCH   8  15
ENDBRANCH  11   7
BRANCH  22  25
ATOM     10  N   UNL     1     -11.780  -8.124  16.262  0.00  0.00    -0.346 N 
ATOM     25  C   UNL     1     -10.416  -8.030  16.173  0.00  0.00    +0.104 A 
ATOM     27  C   UNL     1     -10.112  -6.790  15.655  0.00  0.00    +0.032 A 
ATOM     31  C   UNL     1     -12.351  -6.964  15.808  0.00  0.00    +0.086 A 
ATOM     32  C   UNL     1     -11.337  -6.116  15.423  0.00  0.00    +0.020 A 
ATOM     33  C   UNL     1     -12.520  -9.264  16.757  0.00  0.00    +0.149 C 
ENDBRANCH  22  25
BRANCH  12  18
ATOM      1  O   UNL     1      -6.451  -9.617  15.581  0.00  0.00    -0.274 OA
ATOM      9  N   UNL     1      -6.102 -11.583  16.780  0.00  0.00    -0.301 N 
ATOM     18  C   UNL     1      -6.857 -10.678  16.050  0.00  0.00    +0.234 C 
ATOM     37  H   UNL     1      -6.560 -12.397  17.179  0.00  0.00    +0.150 HD
BRANCH   9  24
ATOM     24  C   UNL     1      -4.706 -11.384  17.086  0.00  0.00    +0.184 C 
BRANCH  24  26
ATOM     26  C   UNL     1      -3.775 -12.054  16.051  0.00  0.00    +0.014 C 
ATOM     29  C   UNL     1      -2.924 -11.051  15.264  0.00  0.00    +0.009 C 
ATOM     30  C   UNL     1      -4.566 -12.940  15.085  0.00  0.00    +0.009 C 
ENDBRANCH  24  26
BRANCH  24  28
ATOM      5  O   UNL     1      -3.225 -11.856  18.939  0.00  0.00    -0.249 OA
ATOM     28  C   UNL     1      -4.372 -11.832  18.504  0.00  0.00    +0.328 C 
BRANCH  28   4
ATOM      4  O   UNL     1      -5.482 -12.196  19.205  0.00  0.00    -0.467 OA
ATOM     34  C   UNL     1      -5.943 -11.248  20.175  0.00  0.00    +0.280 C 
ENDBRANCH  28   4
ENDBRANCH  24  28
ENDBRANCH   9  24
ENDBRANCH  12  18
TORSDOF 8
ENDMDL
MODEL 4
REMARK VINA RESULT:      -6.0     23.095     26.488
REMARK  Name = 7049409
REMARK  12 active torsions:
REMARK  status: ('A' for Active; 'I' for Inactive)
REMARK    1  A    between atoms: O_4  and  C_28
REMARK    2  A    between atoms: O_4  and  C_34
REMARK    3  A    between atoms: N_7  and  C_11
REMARK    4  A    between atoms: N_8  and  C_15
REMARK    5  A    between atoms: N_9  and  C_24
REMARK    6  A    between atoms: N_10  and  C_33
REMARK    7  A    between atoms: C_12  and  C_18
REMARK    8  A    between atoms: C_22  and  C_25
REMARK    9  A    between atoms: C_24  and  C_26
REMARK   10  A    between atoms: C_24  and  C_28
REMARK   11  A    between atoms: C_26  and  C_29
REMARK   12  A    between atoms: C_26  and  C_30
REMARK                            x       y       z     vdW  Elec       q    Type
REMARK                         _______ _______ _______ _____ _____    ______ ____
ROOT
ATOM      2  O   UNL     1      -3.156 -15.139  15.022  0.00  0.00    -0.268 OA
ATOM      6  N   UNL     1      -2.541 -13.182  13.968  0.00  0.00    -0.283 N 
ATOM     11  C   UNL     1      -2.247 -10.961  13.164  0.00  0.00    +0.094 C 
ATOM     12  C   UNL     1      -3.043 -12.302  15.013  0.00  0.00    +0.164 C 
ATOM     13  C   UNL     1      -2.485 -10.921  14.675  0.00  0.00    +0.056 C 
ATOM     14  C   UNL     1      -1.892 -12.421  12.897  0.00  0.00    +0.131 C 
ATOM     22  C   UNL     1      -2.588 -14.574  14.087  0.00  0.00    +0.264 C 
ENDROOT
BRANCH  11   7
ATOM      3  O   UNL     1      -2.259  -9.535  10.668  0.00  0.00    -0.253 OA
ATOM      7  N   UNL     1      -3.405 -10.550  12.413  0.00  0.00    -0.295 N 
ATOM      8  N   UNL     1      -4.581  -9.581  10.687  0.00  0.00    -0.297 N 
ATOM     23  C   UNL     1      -3.318  -9.858  11.205  0.00  0.00    +0.300 C 
ATOM     35  H   UNL     1      -4.326 -10.709  12.810  0.00  0.00    +0.151 HD
ATOM     36  H   UNL     1      -5.387  -9.956  11.176  0.00  0.00    +0.151 HD
BRANCH   8  15
ATOM     15  C   UNL     1      -4.788  -8.873   9.443  0.00  0.00    +0.074 C 
ATOM     16  C   UNL     1      -6.064  -8.028   9.496  0.00  0.00    +0.022 C 
ATOM     17  C   UNL     1      -4.813  -9.842   8.256  0.00  0.00    +0.022 C 
ATOM     19  C   UNL     1      -7.333  -8.879   9.459  0.00  0.00    +0.002 C 
ATOM     20  C   UNL     1      -6.084 -10.691   8.221  0.00  0.00    +0.002 C 
ATOM     21  C   UNL     1      -7.340  -9.827   8.264  0.00  0.00    +0.000 C 
ENDBRANCH   8  15
ENDBRANCH  11   7
BRANCH  22  25
ATOM     10  N   UNL     1      -2.558 -15.683  11.842  0.00  0.00    -0.346 N 
ATOM     25  C   UNL     1      -1.952 -15.339  13.022  0.00  0.00    +0.104 A 
ATOM     27  C   UNL     1      -0.670 -15.843  13.001  0.00  0.00    +0.032 A 
ATOM     31  C   UNL     1      -1.683 -16.399  11.068  0.00  0.00    +0.086 A 
ATOM     32  C   UNL     1      -0.501 -16.515  11.765  0.00  0.00    +0.020 A 
ATOM     33  C   UNL     1      -3.912 -15.350  11.456  0.00  0.00    +0.149 C 
ENDBRANCH  22  25
BRANCH  12  18
ATOM      1  O   UNL     1      -5.164 -12.504  13.933  0.00  0.00    -0.274 OA
ATOM      9  N   UNL     1      -5.102 -12.062  16.219  0.00  0.00    -0.301 N 
ATOM     18  C   UNL     1      -4.542 -12.311  14.975  0.00  0.00    +0.234 C 
ATOM     37  H   UNL     1      -4.492 -11.985  17.027  0.00  0.00    +0.150 HD
BRANCH   9  24
ATOM     24  C   UNL     1      -6.525 -11.995  16.447  0.00  0.00    +0.184 C 
BRANCH  24  26
ATOM     26  C   UNL     1      -7.080 -10.562  16.292  0.00  0.00    +0.014 C 
ATOM     29  C   UNL     1      -7.834 -10.345  14.975  0.00  0.00    +0.009 C 
ATOM     30  C   UNL     1      -5.970  -9.518  16.438  0.00  0.00    +0.009 C 
ENDBRANCH  24  26
BRANCH  24  28
ATOM      5  O   UNL     1      -8.024 -13.042  18.030  0.00  0.00    -0.249 OA
ATOM     28  C   UNL     1      -6.906 -12.594  17.796  0.00  0.00    +0.328 C 
BRANCH  28   4
ATOM      4  O   UNL     1      -5.873 -12.565  18.684  0.00  0.00    -0.467 OA
ATOM     34  C   UNL     1      -5.944 -11.546  19.688  0.00  0.00    +0.280 C 
ENDBRANCH  28   4
ENDBRANCH  24  28
ENDBRANCH   9  24
ENDBRANCH  12  18
TORSDOF 8
ENDMDL
MODEL 5
REMARK VINA RESULT:      -5.9      3.803      6.936
REMARK  Name = 7049409
REMARK  12 active torsions:
REMARK  status: ('A' for Active; 'I' for Inactive)
REMARK    1  A    between atoms: O_4  and  C_28
REMARK    2  A    between atoms: O_4  and  C_34
REMARK    3  A    between atoms: N_7  and  C_11
REMARK    4  A    between atoms: N_8  and  C_15
REMARK    5  A    between atoms: N_9  and  C_24
REMARK    6  A    between atoms: N_10  and  C_33
REMARK    7  A    between atoms: C_12  and  C_18
REMARK    8  A    between atoms: C_22  and  C_25
REMARK    9  A    between atoms: C_24  and  C_26
REMARK   10  A    between atoms: C_24  and  C_28
REMARK   11  A    between atoms: C_26  and  C_29
REMARK   12  A    between atoms: C_26  and  C_30
REMARK                            x       y       z     vdW  Elec       q    Type
REMARK                         _______ _______ _______ _____ _____    ______ ____
ROOT
ATOM      2  O   UNL     1      11.272   5.836   4.048  0.00  0.00    -0.268 OA
ATOM      6  N   UNL     1      12.363   7.756   4.713  0.00  0.00    -0.283 N 
ATOM     11  C   UNL     1      13.765   9.656   5.008  0.00  0.00    +0.094 C 
ATOM     12  C   UNL     1      12.925   8.053   3.403  0.00  0.00    +0.164 C 
ATOM     13  C   UNL     1      13.474   9.473   3.517  0.00  0.00    +0.056 C 
ATOM     14  C   UNL     1      12.704   8.796   5.687  0.00  0.00    +0.131 C 
ATOM     22  C   UNL     1      11.508   6.670   4.922  0.00  0.00    +0.264 C 
ENDROOT
BRANCH  11   7
ATOM      3  O   UNL     1      16.213  11.063   4.463  0.00  0.00    -0.253 OA
ATOM      7  N   UNL     1      15.097   9.237   5.364  0.00  0.00    -0.295 N 
ATOM      8  N   UNL     1      17.391   9.358   5.512  0.00  0.00    -0.297 N 
ATOM     23  C   UNL     1      16.233   9.986   5.059  0.00  0.00    +0.300 C 
ATOM     35  H   UNL     1      15.223   8.327   5.796  0.00  0.00    +0.151 HD
ATOM     36  H   UNL     1      17.288   8.507   6.055  0.00  0.00    +0.151 HD
BRANCH   8  15
ATOM     15  C   UNL     1      18.714   9.913   5.331  0.00  0.00    +0.074 C 
ATOM     16  C   UNL     1      19.429   9.257   4.146  0.00  0.00    +0.022 C 
ATOM     17  C   UNL     1      19.543   9.792   6.615  0.00  0.00    +0.022 C 
ATOM     19  C   UNL     1      19.851   7.818   4.441  0.00  0.00    +0.002 C 
ATOM     20  C   UNL     1      19.964   8.352   6.906  0.00  0.00    +0.002 C 
ATOM     21  C   UNL     1      20.683   7.725   5.716  0.00  0.00    +0.000 C 
ENDBRANCH   8  15
ENDBRANCH  11   7
BRANCH  22  25
ATOM     10  N   UNL     1       9.693   7.029   6.610  0.00  0.00    -0.346 N 
ATOM     25  C   UNL     1      10.925   6.548   6.253  0.00  0.00    +0.104 A 
ATOM     27  C   UNL     1      11.483   5.951   7.361  0.00  0.00    +0.032 A 
ATOM     31  C   UNL     1       9.455   6.747   7.930  0.00  0.00    +0.086 A 
ATOM     32  C   UNL     1      10.553   6.078   8.423  0.00  0.00    +0.020 A 
ATOM     33  C   UNL     1       8.771   7.727   5.741  0.00  0.00    +0.149 C 
ENDBRANCH  22  25
BRANCH  12  18
ATOM      1  O   UNL     1      14.950   6.881   3.886  0.00  0.00    -0.274 OA
ATOM      9  N   UNL     1      13.841   6.437   1.886  0.00  0.00    -0.301 N 
ATOM     18  C   UNL     1      14.015   7.066   3.110  0.00  0.00    +0.234 C 
ATOM     37  H   UNL     1      12.994   6.617   1.357  0.00  0.00    +0.150 HD
BRANCH   9  24
ATOM     24  C   UNL     1      14.764   5.461   1.361  0.00  0.00    +0.184 C 
BRANCH  24  26
ATOM     26  C   UNL     1      15.151   5.747  -0.107  0.00  0.00    +0.014 C 
ATOM     29  C   UNL     1      16.497   5.133  -0.508  0.00  0.00    +0.009 C 
ATOM     30  C   UNL     1      15.154   7.250  -0.397  0.00  0.00    +0.009 C 
ENDBRANCH  24  26
BRANCH  24  28
ATOM      5  O   UNL     1      14.918   3.128   1.979  0.00  0.00    -0.249 OA
ATOM     28  C   UNL     1      14.235   4.041   1.528  0.00  0.00    +0.328 C 
BRANCH  28   4
ATOM      4  O   UNL     1      12.941   3.922   1.119  0.00  0.00    -0.467 OA
ATOM     34  C   UNL     1      12.068   3.220   2.013  0.00  0.00    +0.280 C 
ENDBRANCH  28   4
ENDBRANCH  24  28
ENDBRANCH   9  24
ENDBRANCH  12  18
TORSDOF 8
ENDMDL
MODEL 6
REMARK VINA RESULT:      -5.7     23.893     28.353
REMARK  Name = 7049409
REMARK  12 active torsions:
REMARK  status: ('A' for Active; 'I' for Inactive)
REMARK    1  A    between atoms: O_4  and  C_28
REMARK    2  A    between atoms: O_4  and  C_34
REMARK    3  A    between atoms: N_7  and  C_11
REMARK    4  A    between atoms: N_8  and  C_15
REMARK    5  A    between atoms: N_9  and  C_24
REMARK    6  A    between atoms: N_10  and  C_33
REMARK    7  A    between atoms: C_12  and  C_18
REMARK    8  A    between atoms: C_22  and  C_25
REMARK    9  A    between atoms: C_24  and  C_26
REMARK   10  A    between atoms: C_24  and  C_28
REMARK   11  A    between atoms: C_26  and  C_29
REMARK   12  A    between atoms: C_26  and  C_30
REMARK                            x       y       z     vdW  Elec       q    Type
REMARK                         _______ _______ _______ _____ _____    ______ ____
ROOT
ATOM      2  O   UNL     1      16.348  -6.832  31.815  0.00  0.00    -0.268 OA
ATOM      6  N   UNL     1      16.305  -7.217  29.541  0.00  0.00    -0.283 N 
ATOM     11  C   UNL     1      16.712  -7.435  27.206  0.00  0.00    +0.094 C 
ATOM     12  C   UNL     1      17.751  -7.260  29.383  0.00  0.00    +0.164 C 
ATOM     13  C   UNL     1      17.984  -7.801  27.974  0.00  0.00    +0.056 C 
ATOM     14  C   UNL     1      15.623  -7.489  28.273  0.00  0.00    +0.131 C 
ATOM     22  C   UNL     1      15.701  -7.059  30.792  0.00  0.00    +0.264 C 
ENDROOT
BRANCH  11   7
ATOM      3  O   UNL     1      17.293  -6.863  24.449  0.00  0.00    -0.253 OA
ATOM      7  N   UNL     1      16.794  -6.133  26.595  0.00  0.00    -0.295 N 
ATOM      8  N   UNL     1      17.102  -4.595  24.909  0.00  0.00    -0.297 N 
ATOM     23  C   UNL     1      17.082  -5.947  25.243  0.00  0.00    +0.300 C 
ATOM     35  H   UNL     1      16.705  -5.310  27.184  0.00  0.00    +0.151 HD
ATOM     36  H   UNL     1      16.844  -3.925  25.626  0.00  0.00    +0.151 HD
BRANCH   8  15
ATOM     15  C   UNL     1      17.375  -4.114  23.573  0.00  0.00    +0.074 C 
ATOM     16  C   UNL     1      18.747  -3.438  23.501  0.00  0.00    +0.022 C 
ATOM     17  C   UNL     1      16.266  -3.173  23.089  0.00  0.00    +0.022 C 
ATOM     19  C   UNL     1      18.772  -2.086  24.212  0.00  0.00    +0.002 C 
ATOM     20  C   UNL     1      16.294  -1.821  23.802  0.00  0.00    +0.002 C 
ATOM     21  C   UNL     1      17.668  -1.163  23.706  0.00  0.00    +0.000 C 
ENDBRANCH   8  15
ENDBRANCH  11   7
BRANCH  22  25
ATOM     10  N   UNL     1      13.540  -8.284  31.111  0.00  0.00    -0.346 N 
ATOM     25  C   UNL     1      14.247  -7.144  30.827  0.00  0.00    +0.104 A 
ATOM     27  C   UNL     1      13.341  -6.135  30.588  0.00  0.00    +0.032 A 
ATOM     31  C   UNL     1      12.197  -8.016  31.058  0.00  0.00    +0.086 A 
ATOM     32  C   UNL     1      12.044  -6.687  30.734  0.00  0.00    +0.020 A 
ATOM     33  C   UNL     1      14.107  -9.577  31.422  0.00  0.00    +0.149 C 
ENDBRANCH  22  25
BRANCH  12  18
ATOM      1  O   UNL     1      19.504  -5.651  29.599  0.00  0.00    -0.274 OA
ATOM      9  N   UNL     1      17.293  -4.917  29.609  0.00  0.00    -0.301 N 
ATOM     18  C   UNL     1      18.296  -5.871  29.534  0.00  0.00    +0.234 C 
ATOM     37  H   UNL     1      16.329  -5.205  29.474  0.00  0.00    +0.150 HD
BRANCH   9  24
ATOM     24  C   UNL     1      17.552  -3.508  29.778  0.00  0.00    +0.184 C 
BRANCH  24  26
ATOM     26  C   UNL     1      16.316  -2.738  30.291  0.00  0.00    +0.014 C 
ATOM     29  C   UNL     1      16.645  -1.327  30.789  0.00  0.00    +0.009 C 
ATOM     30  C   UNL     1      15.590  -3.523  31.387  0.00  0.00    +0.009 C 
ENDBRANCH  24  26
BRANCH  24  28
ATOM      5  O   UNL     1      17.612  -3.084  27.397  0.00  0.00    -0.249 OA
ATOM     28  C   UNL     1      18.105  -2.881  28.502  0.00  0.00    +0.328 C 
BRANCH  28   4
ATOM      4  O   UNL     1      19.188  -2.092  28.743  0.00  0.00    -0.467 OA
ATOM     34  C   UNL     1      20.187  -2.075  27.716  0.00  0.00    +0.280 C 
ENDBRANCH  28   4
ENDBRANCH  24  28
ENDBRANCH   9  24
ENDBRANCH  12  18
TORSDOF 8
ENDMDL
MODEL 7
REMARK VINA RESULT:      -5.6      3.662      8.236
REMARK  Name = 7049409
REMARK  12 active torsions:
REMARK  status: ('A' for Active; 'I' for Inactive)
REMARK    1  A    between atoms: O_4  and  C_28
REMARK    2  A    between atoms: O_4  and  C_34
REMARK    3  A    between atoms: N_7  and  C_11
REMARK    4  A    between atoms: N_8  and  C_15
REMARK    5  A    between atoms: N_9  and  C_24
REMARK    6  A    between atoms: N_10  and  C_33
REMARK    7  A    between atoms: C_12  and  C_18
REMARK    8  A    between atoms: C_22  and  C_25
REMARK    9  A    between atoms: C_24  and  C_26
REMARK   10  A    between atoms: C_24  and  C_28
REMARK   11  A    between atoms: C_26  and  C_29
REMARK   12  A    between atoms: C_26  and  C_30
REMARK                            x       y       z     vdW  Elec       q    Type
REMARK                         _______ _______ _______ _____ _____    ______ ____
ROOT
ATOM      2  O   UNL     1      15.913   9.275   1.781  0.00  0.00    -0.268 OA
ATOM      6  N   UNL     1      15.399   9.101   4.023  0.00  0.00    -0.283 N 
ATOM     11  C   UNL     1      14.708   8.478   6.214  0.00  0.00    +0.094 C 
ATOM     12  C   UNL     1      15.380   7.645   4.045  0.00  0.00    +0.164 C 
ATOM     13  C   UNL     1      15.341   7.268   5.524  0.00  0.00    +0.056 C 
ATOM     14  C   UNL     1      15.165   9.656   5.359  0.00  0.00    +0.131 C 
ATOM     22  C   UNL     1      15.731   9.819   2.871  0.00  0.00    +0.264 C 
ENDROOT
BRANCH  11   7
ATOM      3  O   UNL     1      13.165   6.440   7.529  0.00  0.00    -0.253 OA
ATOM      7  N   UNL     1      13.272   8.388   6.272  0.00  0.00    -0.295 N 
ATOM      8  N   UNL     1      11.221   7.508   6.841  0.00  0.00    -0.297 N 
ATOM     23  C   UNL     1      12.603   7.360   6.937  0.00  0.00    +0.300 C 
ATOM     35  H   UNL     1      12.719   9.064   5.753  0.00  0.00    +0.151 HD
ATOM     36  H   UNL     1      10.864   8.343   6.389  0.00  0.00    +0.151 HD
BRANCH   8  15
ATOM     15  C   UNL     1      10.283   6.584   7.438  0.00  0.00    +0.074 C 
ATOM     16  C   UNL     1      10.092   5.347   6.556  0.00  0.00    +0.022 C 
ATOM     17  C   UNL     1       8.944   7.269   7.731  0.00  0.00    +0.022 C 
ATOM     19  C   UNL     1       9.297   5.650   5.287  0.00  0.00    +0.002 C 
ATOM     20  C   UNL     1       8.151   7.571   6.459  0.00  0.00    +0.002 C 
ATOM     21  C   UNL     1       7.965   6.322   5.604  0.00  0.00    +0.000 C 
ENDBRANCH   8  15
ENDBRANCH  11   7
BRANCH  22  25
ATOM     10  N   UNL     1      16.959  11.946   3.363  0.00  0.00    -0.346 N 
ATOM     25  C   UNL     1      15.822  11.267   3.012  0.00  0.00    +0.104 A 
ATOM     27  C   UNL     1      14.818  12.192   2.826  0.00  0.00    +0.032 A 
ATOM     31  C   UNL     1      16.697  13.290   3.405  0.00  0.00    +0.086 A 
ATOM     32  C   UNL     1      15.372  13.473   3.076  0.00  0.00    +0.020 A 
ATOM     33  C   UNL     1      18.246  11.351   3.649  0.00  0.00    +0.149 C 
ENDBRANCH  22  25
BRANCH  12  18
ATOM      1  O   UNL     1      13.076   7.745   3.425  0.00  0.00    -0.274 OA
ATOM      9  N   UNL     1      14.395   6.020   2.582  0.00  0.00    -0.301 N 
ATOM     18  C   UNL     1      14.155   7.166   3.325  0.00  0.00    +0.234 C 
ATOM     37  H   UNL     1      15.344   5.667   2.516  0.00  0.00    +0.150 HD
BRANCH   9  24
ATOM     24  C   UNL     1      13.375   5.347   1.815  0.00  0.00    +0.184 C 
BRANCH  24  26
ATOM     26  C   UNL     1      13.670   3.842   1.635  0.00  0.00    +0.014 C 
ATOM     29  C   UNL     1      15.164   3.530   1.495  0.00  0.00    +0.009 C 
ATOM     30  C   UNL     1      12.902   3.265   0.444  0.00  0.00    +0.009 C 
ENDBRANCH  24  26
BRANCH  24  28
ATOM      5  O   UNL     1      12.017   6.247   0.027  0.00  0.00    -0.249 OA
ATOM     28  C   UNL     1      13.140   6.030   0.472  0.00  0.00    +0.328 C 
BRANCH  28   4
ATOM      4  O   UNL     1      14.306   6.356  -0.152  0.00  0.00    -0.467 OA
ATOM     34  C   UNL     1      14.397   5.986  -1.532  0.00  0.00    +0.280 C 
ENDBRANCH  28   4
ENDBRANCH  24  28
ENDBRANCH   9  24
ENDBRANCH  12  18
TORSDOF 8
ENDMDL
MODEL 8
REMARK VINA RESULT:      -5.6      3.284      7.405
REMARK  Name = 7049409
REMARK  12 active torsions:
REMARK  status: ('A' for Active; 'I' for Inactive)
REMARK    1  A    between atoms: O_4  and  C_28
REMARK    2  A    between atoms: O_4  and  C_34
REMARK    3  A    between atoms: N_7  and  C_11
REMARK    4  A    between atoms: N_8  and  C_15
REMARK    5  A    between atoms: N_9  and  C_24
REMARK    6  A    between atoms: N_10  and  C_33
REMARK    7  A    between atoms: C_12  and  C_18
REMARK    8  A    between atoms: C_22  and  C_25
REMARK    9  A    between atoms: C_24  and  C_26
REMARK   10  A    between atoms: C_24  and  C_28
REMARK   11  A    between atoms: C_26  and  C_29
REMARK   12  A    between atoms: C_26  and  C_30
REMARK                            x       y       z     vdW  Elec       q    Type
REMARK                         _______ _______ _______ _____ _____    ______ ____
ROOT
ATOM      2  O   UNL     1       9.785   4.598   0.106  0.00  0.00    -0.268 OA
ATOM      6  N   UNL     1      12.054   4.186   0.057  0.00  0.00    -0.283 N 
ATOM     11  C   UNL     1      14.367   3.831   0.488  0.00  0.00    +0.094 C 
ATOM     12  C   UNL     1      12.152   3.804   1.459  0.00  0.00    +0.164 C 
ATOM     13  C   UNL     1      13.543   3.194   1.610  0.00  0.00    +0.056 C 
ATOM     14  C   UNL     1      13.345   4.054  -0.622  0.00  0.00    +0.131 C 
ATOM     22  C   UNL     1      10.830   4.506  -0.539  0.00  0.00    +0.264 C 
ENDROOT
BRANCH  11   7
ATOM      3  O   UNL     1      16.653   5.084  -0.725  0.00  0.00    -0.253 OA
ATOM      7  N   UNL     1      14.990   5.064   0.894  0.00  0.00    -0.295 N 
ATOM      8  N   UNL     1      16.504   6.797   0.836  0.00  0.00    -0.297 N 
ATOM     23  C   UNL     1      16.101   5.602   0.245  0.00  0.00    +0.300 C 
ATOM     35  H   UNL     1      14.649   5.531   1.730  0.00  0.00    +0.151 HD
ATOM     36  H   UNL     1      15.935   7.171   1.587  0.00  0.00    +0.151 HD
BRANCH   8  15
ATOM     15  C   UNL     1      17.632   7.571   0.365  0.00  0.00    +0.074 C 
ATOM     16  C   UNL     1      18.554   7.962   1.524  0.00  0.00    +0.022 C 
ATOM     17  C   UNL     1      17.166   8.806  -0.414  0.00  0.00    +0.022 C 
ATOM     19  C   UNL     1      17.938   9.029   2.428  0.00  0.00    +0.002 C 
ATOM     20  C   UNL     1      16.552   9.872   0.494  0.00  0.00    +0.002 C 
ATOM     21  C   UNL     1      17.493  10.252   1.633  0.00  0.00    +0.000 C 
ENDBRANCH   8  15
ENDBRANCH  11   7
BRANCH  22  25
ATOM     10  N   UNL     1      10.825   3.792  -2.939  0.00  0.00    -0.346 N 
ATOM     25  C   UNL     1      10.853   4.763  -1.973  0.00  0.00    +0.104 A 
ATOM     27  C   UNL     1      10.908   5.985  -2.606  0.00  0.00    +0.032 A 
ATOM     31  C   UNL     1      10.860   4.375  -4.178  0.00  0.00    +0.086 A 
ATOM     32  C   UNL     1      10.913   5.739  -4.001  0.00  0.00    +0.020 A 
ATOM     33  C   UNL     1      10.765   2.365  -2.704  0.00  0.00    +0.149 C 
ENDBRANCH  22  25
BRANCH  12  18
ATOM      1  O   UNL     1      12.895   5.860   2.421  0.00  0.00    -0.274 OA
ATOM      9  N   UNL     1      10.759   5.084   2.933  0.00  0.00    -0.301 N 
ATOM     18  C   UNL     1      11.995   5.031   2.307  0.00  0.00    +0.234 C 
ATOM     37  H   UNL     1      10.065   4.377   2.712  0.00  0.00    +0.150 HD
BRANCH   9  24
ATOM     24  C   UNL     1      10.368   6.151   3.822  0.00  0.00    +0.184 C 
BRANCH  24  26
ATOM     26  C   UNL     1       9.337   5.692   4.876  0.00  0.00    +0.014 C 
ATOM     29  C   UNL     1       8.934   6.803   5.852  0.00  0.00    +0.009 C 
ATOM     30  C   UNL     1       9.843   4.473   5.652  0.00  0.00    +0.009 C 
ENDBRANCH  24  26
BRANCH  24  28
ATOM      5  O   UNL     1       8.759   7.415   2.533  0.00  0.00    -0.249 OA
ATOM     28  C   UNL     1       9.869   7.369   3.052  0.00  0.00    +0.328 C 
BRANCH  28   4
ATOM      4  O   UNL     1      10.793   8.369   3.015  0.00  0.00    -0.467 OA
ATOM     34  C   UNL     1      11.589   8.525   4.196  0.00  0.00    +0.280 C 
ENDBRANCH  28   4
ENDBRANCH  24  28
ENDBRANCH   9  24
ENDBRANCH  12  18
TORSDOF 8
ENDMDL
MODEL 9
REMARK VINA RESULT:      -5.6     24.119     28.770
REMARK  Name = 7049409
REMARK  12 active torsions:
REMARK  status: ('A' for Active; 'I' for Inactive)
REMARK    1  A    between atoms: O_4  and  C_28
REMARK    2  A    between atoms: O_4  and  C_34
REMARK    3  A    between atoms: N_7  and  C_11
REMARK    4  A    between atoms: N_8  and  C_15
REMARK    5  A    between atoms: N_9  and  C_24
REMARK    6  A    between atoms: N_10  and  C_33
REMARK    7  A    between atoms: C_12  and  C_18
REMARK    8  A    between atoms: C_22  and  C_25
REMARK    9  A    between atoms: C_24  and  C_26
REMARK   10  A    between atoms: C_24  and  C_28
REMARK   11  A    between atoms: C_26  and  C_29
REMARK   12  A    between atoms: C_26  and  C_30
REMARK                            x       y       z     vdW  Elec       q    Type
REMARK                         _______ _______ _______ _____ _____    ______ ____
ROOT
ATOM      2  O   UNL     1      15.598  -4.467  32.435  0.00  0.00    -0.268 OA
ATOM      6  N   UNL     1      16.583  -5.314  30.529  0.00  0.00    -0.283 N 
ATOM     11  C   UNL     1      17.876  -5.789  28.588  0.00  0.00    +0.094 C 
ATOM     12  C   UNL     1      17.827  -4.573  30.678  0.00  0.00    +0.164 C 
ATOM     13  C   UNL     1      18.786  -5.192  29.665  0.00  0.00    +0.056 C 
ATOM     14  C   UNL     1      16.628  -6.202  29.364  0.00  0.00    +0.131 C 
ATOM     22  C   UNL     1      15.560  -5.243  31.480  0.00  0.00    +0.264 C 
ENDROOT
BRANCH  11   7
ATOM      3  O   UNL     1      18.923  -5.783  25.911  0.00  0.00    -0.253 OA
ATOM      7  N   UNL     1      17.566  -4.846  27.545  0.00  0.00    -0.295 N 
ATOM      8  N   UNL     1      17.659  -3.890  25.453  0.00  0.00    -0.297 N 
ATOM     23  C   UNL     1      18.123  -4.919  26.268  0.00  0.00    +0.300 C 
ATOM     35  H   UNL     1      16.968  -4.054  27.764  0.00  0.00    +0.151 HD
ATOM     36  H   UNL     1      16.945  -3.273  25.826  0.00  0.00    +0.151 HD
BRANCH   8  15
ATOM     15  C   UNL     1      18.072  -3.723  24.077  0.00  0.00    +0.074 C 
ATOM     16  C   UNL     1      18.711  -2.348  23.857  0.00  0.00    +0.022 C 
ATOM     17  C   UNL     1      16.898  -3.949  23.118  0.00  0.00    +0.022 C 
ATOM     19  C   UNL     1      17.689  -1.213  23.901  0.00  0.00    +0.002 C 
ATOM     20  C   UNL     1      15.878  -2.811  23.163  0.00  0.00    +0.002 C 
ATOM     21  C   UNL     1      16.537  -1.455  22.931  0.00  0.00    +0.000 C 
ENDBRANCH   8  15
ENDBRANCH  11   7
BRANCH  22  25
ATOM     10  N   UNL     1      14.329  -7.411  31.718  0.00  0.00    -0.346 N 
ATOM     25  C   UNL     1      14.415  -6.119  31.269  0.00  0.00    +0.104 A 
ATOM     27  C   UNL     1      13.246  -5.826  30.603  0.00  0.00    +0.032 A 
ATOM     31  C   UNL     1      13.124  -7.947  31.348  0.00  0.00    +0.086 A 
ATOM     32  C   UNL     1      12.429  -6.983  30.652  0.00  0.00    +0.020 A 
ATOM     33  C   UNL     1      15.346  -8.116  32.468  0.00  0.00    +0.149 C 
ENDBRANCH  22  25
BRANCH  12  18
ATOM      1  O   UNL     1      16.895  -2.778  29.407  0.00  0.00    -0.274 OA
ATOM      9  N   UNL     1      18.183  -2.279  31.283  0.00  0.00    -0.301 N 
ATOM     18  C   UNL     1      17.568  -3.127  30.375  0.00  0.00    +0.234 C 
ATOM     37  H   UNL     1      18.658  -2.681  32.085  0.00  0.00    +0.150 HD
BRANCH   9  24
ATOM     24  C   UNL     1      18.108  -0.841  31.200  0.00  0.00    +0.184 C 
BRANCH  24  26
ATOM     26  C   UNL     1      19.502  -0.179  31.162  0.00  0.00    +0.014 C 
ATOM     29  C   UNL     1      20.364  -0.649  29.986  0.00  0.00    +0.009 C 
ATOM     30  C   UNL     1      20.253  -0.392  32.479  0.00  0.00    +0.009 C 
ENDBRANCH  24  26
BRANCH  24  28
ATOM      5  O   UNL     1      16.940   0.928  32.365  0.00  0.00    -0.249 OA
ATOM     28  C   UNL     1      17.247  -0.259  32.315  0.00  0.00    +0.328 C 
BRANCH  28   4
ATOM      4  O   UNL     1      16.876  -1.202  33.226  0.00  0.00    -0.467 OA
ATOM     34  C   UNL     1      17.210  -0.916  34.589  0.00  0.00    +0.280 C 
ENDBRANCH  28   4
ENDBRANCH  24  28
ENDBRANCH   9  24
ENDBRANCH  12  18
TORSDOF 8
ENDMDL
MODEL 10
REMARK VINA RESULT:      -5.6     23.545     27.950
REMARK  Name = 7049409
REMARK  12 active torsions:
REMARK  status: ('A' for Active; 'I' for Inactive)
REMARK    1  A    between atoms: O_4  and  C_28
REMARK    2  A    between atoms: O_4  and  C_34
REMARK    3  A    between atoms: N_7  and  C_11
REMARK    4  A    between atoms: N_8  and  C_15
REMARK    5  A    between atoms: N_9  and  C_24
REMARK    6  A    between atoms: N_10  and  C_33
REMARK    7  A    between atoms: C_12  and  C_18
REMARK    8  A    between atoms: C_22  and  C_25
REMARK    9  A    between atoms: C_24  and  C_26
REMARK   10  A    between atoms: C_24  and  C_28
REMARK   11  A    between atoms: C_26  and  C_29
REMARK   12  A    between atoms: C_26  and  C_30
REMARK                            x       y       z     vdW  Elec       q    Type
REMARK                         _______ _______ _______ _____ _____    ______ ____
ROOT
ATOM      2  O   UNL     1      15.312  -9.489  28.307  0.00  0.00    -0.268 OA
ATOM      6  N   UNL     1      16.933  -8.720  26.857  0.00  0.00    -0.283 N 
ATOM     11  C   UNL     1      18.632  -7.551  25.670  0.00  0.00    +0.094 C 
ATOM     12  C   UNL     1      17.580  -7.849  27.827  0.00  0.00    +0.164 C 
ATOM     13  C   UNL     1      18.894  -7.428  27.173  0.00  0.00    +0.056 C 
ATOM     14  C   UNL     1      17.639  -8.706  25.573  0.00  0.00    +0.131 C 
ATOM     22  C   UNL     1      15.853  -9.539  27.202  0.00  0.00    +0.264 C 
ENDROOT
BRANCH  11   7
ATOM      3  O   UNL     1      20.132  -5.346  24.596  0.00  0.00    -0.253 OA
ATOM      7  N   UNL     1      18.097  -6.340  25.104  0.00  0.00    -0.295 N 
ATOM      8  N   UNL     1      18.135  -4.261  24.116  0.00  0.00    -0.297 N 
ATOM     23  C   UNL     1      18.901  -5.317  24.603  0.00  0.00    +0.300 C 
ATOM     35  H   UNL     1      17.092  -6.192  25.130  0.00  0.00    +0.151 HD
ATOM     36  H   UNL     1      17.127  -4.371  24.105  0.00  0.00    +0.151 HD
BRANCH   8  15
ATOM     15  C   UNL     1      18.711  -3.067  23.538  0.00  0.00    +0.074 C 
ATOM     16  C   UNL     1      19.067  -2.046  24.623  0.00  0.00    +0.022 C 
ATOM     17  C   UNL     1      17.776  -2.457  22.488  0.00  0.00    +0.022 C 
ATOM     19  C   UNL     1      17.830  -1.396  25.243  0.00  0.00    +0.002 C 
ATOM     20  C   UNL     1      16.541  -1.806  23.111  0.00  0.00    +0.002 C 
ATOM     21  C   UNL     1      16.922  -0.787  24.180  0.00  0.00    +0.000 C 
ENDBRANCH   8  15
ENDBRANCH  11   7
BRANCH  22  25
ATOM     10  N   UNL     1      15.834 -11.717  25.966  0.00  0.00    -0.346 N 
ATOM     25  C   UNL     1      15.368 -10.444  26.169  0.00  0.00    +0.104 A 
ATOM     27  C   UNL     1      14.386 -10.201  25.234  0.00  0.00    +0.032 A 
ATOM     31  C   UNL     1      15.166 -12.289  24.916  0.00  0.00    +0.086 A 
ATOM     32  C   UNL     1      14.259 -11.368  24.440  0.00  0.00    +0.020 A 
ATOM     33  C   UNL     1      16.872 -12.371  26.733  0.00  0.00    +0.149 C 
ENDBRANCH  22  25
BRANCH  12  18
ATOM      1  O   UNL     1      15.794  -6.351  27.311  0.00  0.00    -0.274 OA
ATOM      9  N   UNL     1      17.030  -6.001  29.254  0.00  0.00    -0.301 N 
ATOM     18  C   UNL     1      16.693  -6.667  28.085  0.00  0.00    +0.234 C 
ATOM     37  H   UNL     1      17.749  -6.393  29.853  0.00  0.00    +0.150 HD
BRANCH   9  24
ATOM     24  C   UNL     1      16.345  -4.819  29.715  0.00  0.00    +0.184 C 
BRANCH  24  26
ATOM     26  C   UNL     1      17.282  -3.596  29.817  0.00  0.00    +0.014 C 
ATOM     29  C   UNL     1      16.550  -2.301  30.184  0.00  0.00    +0.009 C 
ATOM     30  C   UNL     1      18.079  -3.399  28.524  0.00  0.00    +0.009 C 
ENDBRANCH  24  26
BRANCH  24  28
ATOM      5  O   UNL     1      16.206  -5.263  32.089  0.00  0.00    -0.249 OA
ATOM     28  C   UNL     1      15.616  -5.070  31.031  0.00  0.00    +0.328 C 
BRANCH  28   4
ATOM      4  O   UNL     1      14.262  -5.054  30.881  0.00  0.00    -0.467 OA
ATOM     34  C   UNL     1      13.655  -6.317  30.584  0.00  0.00    +0.280 C 
ENDBRANCH  28   4
ENDBRANCH  24  28
ENDBRANCH   9  24
ENDBRANCH  12  18
TORSDOF 8
ENDMDL
