MODEL 1
REMARK VINA RESULT:      -8.1      0.000      0.000
REMARK  Name = 11913381
REMARK  7 active torsions:
REMARK  status: ('A' for Active; 'I' for Inactive)
REMARK    1  A    between atoms: N_4  and  C_10
REMARK    2  A    between atoms: N_4  and  C_14
REMARK    3  A    between atoms: N_5  and  C_11
REMARK    4  A    between atoms: C_14  and  C_15
REMARK    5  A    between atoms: C_15  and  C_17
REMARK    6  A    between atoms: C_17  and  C_18
REMARK    7  A    between atoms: C_19  and  C_24
REMARK                            x       y       z     vdW  Elec       q    Type
REMARK                         _______ _______ _______ _____ _____    ______ ____
ROOT
ATOM      2  O   UNL     1     -14.232   4.850  23.731  0.00  0.00    -0.370 OA
ATOM      3  O   UNL     1     -16.775   3.840  22.273  0.00  0.00    -0.370 OA
ATOM      8  C   UNL     1     -16.307   5.157  22.617  0.00  0.00    +0.168 C 
ATOM      9  C   UNL     1     -15.636   5.054  23.972  0.00  0.00    +0.171 C 
ATOM     10  C   UNL     1     -15.194   5.579  21.682  0.00  0.00    +0.111 C 
ATOM     11  C   UNL     1     -16.243   3.816  24.590  0.00  0.00    +0.130 C 
ATOM     12  C   UNL     1     -13.984   4.915  22.320  0.00  0.00    +0.181 C 
ATOM     13  C   UNL     1     -16.544   2.954  23.378  0.00  0.00    +0.185 C 
ENDROOT
BRANCH  11   5
ATOM      5  N   UNL     1     -17.469   4.157  25.279  0.00  0.00    -0.306 N 
ATOM      6  N   UNL     1     -16.702   3.271  27.312  0.00  0.00    -0.214 NA
ATOM      7  N   UNL     1     -18.890   4.265  27.143  0.00  0.00    -0.223 NA
ATOM     16  C   UNL     1     -17.694   3.891  26.617  0.00  0.00    +0.216 A 
ATOM     19  C   UNL     1     -16.955   3.026  28.615  0.00  0.00    +0.076 A 
ATOM     20  C   UNL     1     -19.076   3.990  28.450  0.00  0.00    +0.116 A 
ATOM     21  C   UNL     1     -18.135   3.366  29.243  0.00  0.00    +0.048 A 
ATOM     34  H   UNL     1     -18.194   4.665  24.785  0.00  0.00    +0.149 HD
BRANCH  19  24
ATOM      1  F   UNL     1     -12.659   3.158  30.817  0.00  0.00    -0.205 F 
ATOM     24  C   UNL     1     -15.889   2.370  29.332  0.00  0.00    +0.003 A 
ATOM     28  C   UNL     1     -14.765   3.095  29.737  0.00  0.00    +0.048 A 
ATOM     29  C   UNL     1     -15.976   1.007  29.626  0.00  0.00    +0.010 A 
ATOM     30  C   UNL     1     -13.735   2.461  30.430  0.00  0.00    +0.124 A 
ATOM     31  C   UNL     1     -14.945   0.373  30.320  0.00  0.00    +0.003 A 
ATOM     32  C   UNL     1     -13.825   1.100  30.723  0.00  0.00    +0.038 A 
ENDBRANCH  19  24
ENDBRANCH  11   5
BRANCH  10   4
ATOM      4  N   UNL     1     -15.029   7.031  21.704  0.00  0.00    -0.309 NA
ATOM     33  H   UNL     1     -14.647   7.318  22.605  0.00  0.00    +0.122 HD
BRANCH   4  14
ATOM     14  C   UNL     1     -14.142   7.466  20.636  0.00  0.00    +0.081 C 
BRANCH  14  15
ATOM     15  C   UNL     1     -12.884   8.105  21.219  0.00  0.00    +0.020 C 
BRANCH  15  17
ATOM     17  C   UNL     1     -11.621   7.420  20.688  0.00  0.00    +0.036 C 
BRANCH  17  18
ATOM     18  C   UNL     1     -11.084   8.113  19.462  0.00  0.00    -0.047 A 
ATOM     22  C   UNL     1     -10.533   9.381  19.582  0.00  0.00    +0.003 A 
ATOM     23  C   UNL     1     -11.152   7.474  18.233  0.00  0.00    +0.003 A 
ATOM     25  C   UNL     1     -10.036  10.022  18.447  0.00  0.00    +0.000 A 
ATOM     26  C   UNL     1     -10.656   8.117  17.098  0.00  0.00    +0.000 A 
ATOM     27  C   UNL     1     -10.098   9.391  17.206  0.00  0.00    +0.000 A 
ENDBRANCH  17  18
ENDBRANCH  15  17
ENDBRANCH  14  15
ENDBRANCH   4  14
ENDBRANCH  10   4
TORSDOF 7
ENDMDL
MODEL 2
REMARK VINA RESULT:      -7.9     27.212     29.785
REMARK  Name = 11913381
REMARK  7 active torsions:
REMARK  status: ('A' for Active; 'I' for Inactive)
REMARK    1  A    between atoms: N_4  and  C_10
REMARK    2  A    between atoms: N_4  and  C_14
REMARK    3  A    between atoms: N_5  and  C_11
REMARK    4  A    between atoms: C_14  and  C_15
REMARK    5  A    between atoms: C_15  and  C_17
REMARK    6  A    between atoms: C_17  and  C_18
REMARK    7  A    between atoms: C_19  and  C_24
REMARK                            x       y       z     vdW  Elec       q    Type
REMARK                         _______ _______ _______ _____ _____    ______ ____
ROOT
ATOM      2  O   UNL     1      12.215  12.502  21.599  0.00  0.00    -0.370 OA
ATOM      3  O   UNL     1      12.373  11.573  24.553  0.00  0.00    -0.370 OA
ATOM      8  C   UNL     1      13.266  11.421  23.434  0.00  0.00    +0.168 C 
ATOM      9  C   UNL     1      12.408  11.211  22.202  0.00  0.00    +0.171 C 
ATOM     10  C   UNL     1      13.993  12.720  23.163  0.00  0.00    +0.111 C 
ATOM     11  C   UNL     1      11.100  10.690  22.750  0.00  0.00    +0.130 C 
ATOM     12  C   UNL     1      12.974  13.479  22.326  0.00  0.00    +0.181 C 
ATOM     13  C   UNL     1      11.025  11.352  24.114  0.00  0.00    +0.185 C 
ENDROOT
BRANCH  11   5
ATOM      5  N   UNL     1      11.160   9.252  22.893  0.00  0.00    -0.306 N 
ATOM      6  N   UNL     1      11.767   8.945  20.646  0.00  0.00    -0.214 NA
ATOM      7  N   UNL     1      11.511   7.061  22.128  0.00  0.00    -0.223 NA
ATOM     16  C   UNL     1      11.489   8.394  21.859  0.00  0.00    +0.216 A 
ATOM     19  C   UNL     1      12.084   8.079  19.661  0.00  0.00    +0.076 A 
ATOM     20  C   UNL     1      11.836   6.254  21.097  0.00  0.00    +0.116 A 
ATOM     21  C   UNL     1      12.134   6.711  19.830  0.00  0.00    +0.048 A 
ATOM     34  H   UNL     1      11.006   8.834  23.803  0.00  0.00    +0.149 HD
BRANCH  19  24
ATOM      1  F   UNL     1      15.038  10.564  16.758  0.00  0.00    -0.205 F 
ATOM     24  C   UNL     1      12.376   8.685  18.385  0.00  0.00    +0.003 A 
ATOM     28  C   UNL     1      13.591   9.345  18.183  0.00  0.00    +0.048 A 
ATOM     29  C   UNL     1      11.446   8.612  17.345  0.00  0.00    +0.010 A 
ATOM     30  C   UNL     1      13.873   9.931  16.949  0.00  0.00    +0.124 A 
ATOM     31  C   UNL     1      11.729   9.198  16.110  0.00  0.00    +0.003 A 
ATOM     32  C   UNL     1      12.943   9.857  15.912  0.00  0.00    +0.038 A 
ENDBRANCH  19  24
ENDBRANCH  11   5
BRANCH  10   4
ATOM      4  N   UNL     1      15.198  12.478  22.372  0.00  0.00    -0.309 NA
ATOM     33  H   UNL     1      15.881  13.214  22.556  0.00  0.00    +0.122 HD
BRANCH   4  14
ATOM     14  C   UNL     1      15.777  11.183  22.696  0.00  0.00    +0.081 C 
BRANCH  14  15
ATOM     15  C   UNL     1      16.203  10.458  21.421  0.00  0.00    +0.020 C 
BRANCH  15  17
ATOM     17  C   UNL     1      15.475   9.118  21.280  0.00  0.00    +0.036 C 
BRANCH  17  18
ATOM     18  C   UNL     1      16.394   8.036  20.773  0.00  0.00    -0.047 A 
ATOM     22  C   UNL     1      17.676   7.932  21.294  0.00  0.00    +0.003 A 
ATOM     23  C   UNL     1      15.945   7.163  19.795  0.00  0.00    +0.003 A 
ATOM     25  C   UNL     1      18.527   6.931  20.826  0.00  0.00    +0.000 A 
ATOM     26  C   UNL     1      16.797   6.161  19.325  0.00  0.00    +0.000 A 
ATOM     27  C   UNL     1      18.088   6.046  19.842  0.00  0.00    +0.000 A 
ENDBRANCH  17  18
ENDBRANCH  15  17
ENDBRANCH  14  15
ENDBRANCH   4  14
ENDBRANCH  10   4
TORSDOF 7
ENDMDL
MODEL 3
REMARK VINA RESULT:      -7.8     26.546     29.581
REMARK  Name = 11913381
REMARK  7 active torsions:
REMARK  status: ('A' for Active; 'I' for Inactive)
REMARK    1  A    between atoms: N_4  and  C_10
REMARK    2  A    between atoms: N_4  and  C_14
REMARK    3  A    between atoms: N_5  and  C_11
REMARK    4  A    between atoms: C_14  and  C_15
REMARK    5  A    between atoms: C_15  and  C_17
REMARK    6  A    between atoms: C_17  and  C_18
REMARK    7  A    between atoms: C_19  and  C_24
REMARK                            x       y       z     vdW  Elec       q    Type
REMARK                         _______ _______ _______ _____ _____    ______ ____
ROOT
ATOM      2  O   UNL     1      13.032  13.307  22.835  0.00  0.00    -0.370 OA
ATOM      3  O   UNL     1      11.437  12.664  25.415  0.00  0.00    -0.370 OA
ATOM      8  C   UNL     1      12.671  12.153  24.879  0.00  0.00    +0.168 C 
ATOM      9  C   UNL     1      12.510  12.080  23.373  0.00  0.00    +0.171 C 
ATOM     10  C   UNL     1      13.787  13.154  25.085  0.00  0.00    +0.111 C 
ATOM     11  C   UNL     1      11.014  12.015  23.167  0.00  0.00    +0.130 C 
ATOM     12  C   UNL     1      13.589  14.089  23.902  0.00  0.00    +0.181 C 
ATOM     13  C   UNL     1      10.481  12.799  24.352  0.00  0.00    +0.185 C 
ENDROOT
BRANCH  11   5
ATOM      5  N   UNL     1      10.564  10.642  23.232  0.00  0.00    -0.306 N 
ATOM      6  N   UNL     1      11.633  10.082  21.218  0.00  0.00    -0.214 NA
ATOM      7  N   UNL     1      10.385   8.434  22.456  0.00  0.00    -0.223 NA
ATOM     16  C   UNL     1      10.870   9.691  22.274  0.00  0.00    +0.216 A 
ATOM     19  C   UNL     1      11.911   9.130  20.303  0.00  0.00    +0.076 A 
ATOM     20  C   UNL     1      10.701   7.533  21.504  0.00  0.00    +0.116 A 
ATOM     21  C   UNL     1      11.468   7.827  20.395  0.00  0.00    +0.048 A 
ATOM     34  H   UNL     1      10.040  10.326  24.039  0.00  0.00    +0.149 HD
BRANCH  19  24
ATOM      1  F   UNL     1      14.339  12.590  17.966  0.00  0.00    -0.205 F 
ATOM     24  C   UNL     1      12.723   9.566  19.194  0.00  0.00    +0.003 A 
ATOM     28  C   UNL     1      13.148  10.894  19.114  0.00  0.00    +0.048 A 
ATOM     29  C   UNL     1      13.087   8.661  18.194  0.00  0.00    +0.010 A 
ATOM     30  C   UNL     1      13.932  11.316  18.041  0.00  0.00    +0.124 A 
ATOM     31  C   UNL     1      13.872   9.083  17.120  0.00  0.00    +0.003 A 
ATOM     32  C   UNL     1      14.295  10.410  17.044  0.00  0.00    +0.038 A 
ENDBRANCH  19  24
ENDBRANCH  11   5
BRANCH  10   4
ATOM      4  N   UNL     1      15.089  12.498  24.983  0.00  0.00    -0.309 NA
ATOM     33  H   UNL     1      14.958  11.493  24.872  0.00  0.00    +0.122 HD
BRANCH   4  14
ATOM     14  C   UNL     1      15.844  13.021  23.854  0.00  0.00    +0.081 C 
BRANCH  14  15
ATOM     15  C   UNL     1      16.572  11.889  23.133  0.00  0.00    +0.020 C 
BRANCH  15  17
ATOM     17  C   UNL     1      15.956  11.625  21.757  0.00  0.00    +0.036 C 
BRANCH  17  18
ATOM     18  C   UNL     1      15.750  10.152  21.511  0.00  0.00    -0.047 A 
ATOM     22  C   UNL     1      16.341   9.556  20.407  0.00  0.00    +0.003 A 
ATOM     23  C   UNL     1      14.970   9.417  22.392  0.00  0.00    +0.003 A 
ATOM     25  C   UNL     1      16.150   8.193  20.180  0.00  0.00    +0.000 A 
ATOM     26  C   UNL     1      14.779   8.053  22.164  0.00  0.00    +0.000 A 
ATOM     27  C   UNL     1      15.369   7.442  21.058  0.00  0.00    +0.000 A 
ENDBRANCH  17  18
ENDBRANCH  15  17
ENDBRANCH  14  15
ENDBRANCH   4  14
ENDBRANCH  10   4
TORSDOF 7
ENDMDL
MODEL 4
REMARK VINA RESULT:      -7.6     26.859     30.135
REMARK  Name = 11913381
REMARK  7 active torsions:
REMARK  status: ('A' for Active; 'I' for Inactive)
REMARK    1  A    between atoms: N_4  and  C_10
REMARK    2  A    between atoms: N_4  and  C_14
REMARK    3  A    between atoms: N_5  and  C_11
REMARK    4  A    between atoms: C_14  and  C_15
REMARK    5  A    between atoms: C_15  and  C_17
REMARK    6  A    between atoms: C_17  and  C_18
REMARK    7  A    between atoms: C_19  and  C_24
REMARK                            x       y       z     vdW  Elec       q    Type
REMARK                         _______ _______ _______ _____ _____    ______ ____
ROOT
ATOM      2  O   UNL     1      14.689  12.769  21.078  0.00  0.00    -0.370 OA
ATOM      3  O   UNL     1      12.710  14.035  19.054  0.00  0.00    -0.370 OA
ATOM      8  C   UNL     1      12.518  13.230  20.232  0.00  0.00    +0.168 C 
ATOM      9  C   UNL     1      13.640  12.211  20.266  0.00  0.00    +0.171 C 
ATOM     10  C   UNL     1      12.733  14.062  21.477  0.00  0.00    +0.111 C 
ATOM     11  C   UNL     1      14.092  12.113  18.828  0.00  0.00    +0.130 C 
ATOM     12  C   UNL     1      14.247  14.021  21.621  0.00  0.00    +0.181 C 
ATOM     13  C   UNL     1      13.808  13.506  18.295  0.00  0.00    +0.185 C 
ENDROOT
BRANCH  11   5
ATOM      5  N   UNL     1      13.292  11.134  18.124  0.00  0.00    -0.306 N 
ATOM      6  N   UNL     1      14.657   9.357  18.822  0.00  0.00    -0.214 NA
ATOM      7  N   UNL     1      12.736   8.966  17.420  0.00  0.00    -0.223 NA
ATOM     16  C   UNL     1      13.569   9.779  18.122  0.00  0.00    +0.216 A 
ATOM     19  C   UNL     1      14.898   8.029  18.798  0.00  0.00    +0.076 A 
ATOM     20  C   UNL     1      13.035   7.651  17.439  0.00  0.00    +0.116 A 
ATOM     21  C   UNL     1      14.114   7.120  18.117  0.00  0.00    +0.048 A 
ATOM     34  H   UNL     1      12.451  11.431  17.643  0.00  0.00    +0.149 HD
BRANCH  19  24
ATOM      1  F   UNL     1      18.534   4.937  19.533  0.00  0.00    -0.205 F 
ATOM     24  C   UNL     1      16.054   7.603  19.548  0.00  0.00    +0.003 A 
ATOM     28  C   UNL     1      16.750   6.453  19.171  0.00  0.00    +0.048 A 
ATOM     29  C   UNL     1      16.482   8.341  20.654  0.00  0.00    +0.010 A 
ATOM     30  C   UNL     1      17.868   6.041  19.896  0.00  0.00    +0.124 A 
ATOM     31  C   UNL     1      17.600   7.929  21.380  0.00  0.00    +0.003 A 
ATOM     32  C   UNL     1      18.294   6.779  21.001  0.00  0.00    +0.038 A 
ENDBRANCH  19  24
ENDBRANCH  11   5
BRANCH  10   4
ATOM      4  N   UNL     1      12.110  13.424  22.634  0.00  0.00    -0.309 NA
ATOM     33  H   UNL     1      11.823  14.137  23.304  0.00  0.00    +0.122 HD
BRANCH   4  14
ATOM     14  C   UNL     1      10.953  12.638  22.231  0.00  0.00    +0.081 C 
BRANCH  14  15
ATOM     15  C   UNL     1      10.873  11.352  23.051  0.00  0.00    +0.020 C 
BRANCH  15  17
ATOM     17  C   UNL     1      12.172  10.549  22.944  0.00  0.00    +0.036 C 
BRANCH  17  18
ATOM     18  C   UNL     1      11.926   9.161  22.409  0.00  0.00    -0.047 A 
ATOM     22  C   UNL     1      12.997   8.412  21.941  0.00  0.00    +0.003 A 
ATOM     23  C   UNL     1      10.635   8.656  22.390  0.00  0.00    +0.003 A 
ATOM     25  C   UNL     1      12.770   7.128  21.446  0.00  0.00    +0.000 A 
ATOM     26  C   UNL     1      10.409   7.371  21.894  0.00  0.00    +0.000 A 
ATOM     27  C   UNL     1      11.476   6.608  21.422  0.00  0.00    +0.000 A 
ENDBRANCH  17  18
ENDBRANCH  15  17
ENDBRANCH  14  15
ENDBRANCH   4  14
ENDBRANCH  10   4
TORSDOF 7
ENDMDL
MODEL 5
REMARK VINA RESULT:      -7.4     19.883     21.690
REMARK  Name = 11913381
REMARK  7 active torsions:
REMARK  status: ('A' for Active; 'I' for Inactive)
REMARK    1  A    between atoms: N_4  and  C_10
REMARK    2  A    between atoms: N_4  and  C_14
REMARK    3  A    between atoms: N_5  and  C_11
REMARK    4  A    between atoms: C_14  and  C_15
REMARK    5  A    between atoms: C_15  and  C_17
REMARK    6  A    between atoms: C_17  and  C_18
REMARK    7  A    between atoms: C_19  and  C_24
REMARK                            x       y       z     vdW  Elec       q    Type
REMARK                         _______ _______ _______ _____ _____    ______ ____
ROOT
ATOM      2  O   UNL     1      -6.769 -11.479  10.626  0.00  0.00    -0.370 OA
ATOM      3  O   UNL     1      -5.640  -8.595  10.773  0.00  0.00    -0.370 OA
ATOM      8  C   UNL     1      -5.358  -9.709   9.907  0.00  0.00    +0.168 C 
ATOM      9  C   UNL     1      -5.432 -10.965  10.754  0.00  0.00    +0.171 C 
ATOM     10  C   UNL     1      -6.467  -9.880   8.893  0.00  0.00    +0.111 C 
ATOM     11  C   UNL     1      -5.195 -10.472  12.162  0.00  0.00    +0.130 C 
ATOM     12  C   UNL     1      -7.493 -10.675   9.683  0.00  0.00    +0.181 C 
ATOM     13  C   UNL     1      -5.766  -9.066  12.123  0.00  0.00    +0.185 C 
ENDROOT
BRANCH  11   5
ATOM      5  N   UNL     1      -3.776 -10.429  12.440  0.00  0.00    -0.306 N 
ATOM      6  N   UNL     1      -4.112 -10.617  14.755  0.00  0.00    -0.214 NA
ATOM      7  N   UNL     1      -1.890 -10.451  13.837  0.00  0.00    -0.223 NA
ATOM     16  C   UNL     1      -3.243 -10.501  13.715  0.00  0.00    +0.216 A 
ATOM     19  C   UNL     1      -3.559 -10.684  15.984  0.00  0.00    +0.076 A 
ATOM     20  C   UNL     1      -1.405 -10.524  15.093  0.00  0.00    +0.116 A 
ATOM     21  C   UNL     1      -2.199 -10.642  16.216  0.00  0.00    +0.048 A 
ATOM     34  H   UNL     1      -3.118 -10.396  11.670  0.00  0.00    +0.149 HD
BRANCH  19  24
ATOM      1  F   UNL     1      -7.820  -9.647  18.007  0.00  0.00    -0.205 F 
ATOM     24  C   UNL     1      -4.498 -10.808  17.072  0.00  0.00    +0.003 A 
ATOM     28  C   UNL     1      -5.731 -10.155  17.013  0.00  0.00    +0.048 A 
ATOM     29  C   UNL     1      -4.177 -11.584  18.189  0.00  0.00    +0.010 A 
ATOM     30  C   UNL     1      -6.638 -10.275  18.066  0.00  0.00    +0.124 A 
ATOM     31  C   UNL     1      -5.085 -11.703  19.242  0.00  0.00    +0.003 A 
ATOM     32  C   UNL     1      -6.316 -11.049  19.180  0.00  0.00    +0.038 A 
ENDBRANCH  19  24
ENDBRANCH  11   5
BRANCH  10   4
ATOM      4  N   UNL     1      -6.003 -10.668   7.753  0.00  0.00    -0.309 NA
ATOM     33  H   UNL     1      -6.605 -11.484   7.634  0.00  0.00    +0.122 HD
BRANCH   4  14
ATOM     14  C   UNL     1      -6.013  -9.872   6.535  0.00  0.00    +0.081 C 
BRANCH  14  15
ATOM     15  C   UNL     1      -7.448  -9.565   6.113  0.00  0.00    +0.020 C 
BRANCH  15  17
ATOM     17  C   UNL     1      -7.579  -8.124   5.612  0.00  0.00    +0.036 C 
BRANCH  17  18
ATOM     18  C   UNL     1      -8.548  -7.328   6.449  0.00  0.00    -0.047 A 
ATOM     22  C   UNL     1      -9.887  -7.290   6.087  0.00  0.00    +0.003 A 
ATOM     23  C   UNL     1      -8.087  -6.647   7.564  0.00  0.00    +0.003 A 
ATOM     25  C   UNL     1     -10.785  -6.554   6.861  0.00  0.00    +0.000 A 
ATOM     26  C   UNL     1      -8.985  -5.909   8.338  0.00  0.00    +0.000 A 
ATOM     27  C   UNL     1     -10.334  -5.864   7.986  0.00  0.00    +0.000 A 
ENDBRANCH  17  18
ENDBRANCH  15  17
ENDBRANCH  14  15
ENDBRANCH   4  14
ENDBRANCH  10   4
TORSDOF 7
ENDMDL
MODEL 6
REMARK VINA RESULT:      -7.4     21.545     23.329
REMARK  Name = 11913381
REMARK  7 active torsions:
REMARK  status: ('A' for Active; 'I' for Inactive)
REMARK    1  A    between atoms: N_4  and  C_10
REMARK    2  A    between atoms: N_4  and  C_14
REMARK    3  A    between atoms: N_5  and  C_11
REMARK    4  A    between atoms: C_14  and  C_15
REMARK    5  A    between atoms: C_15  and  C_17
REMARK    6  A    between atoms: C_17  and  C_18
REMARK    7  A    between atoms: C_19  and  C_24
REMARK                            x       y       z     vdW  Elec       q    Type
REMARK                         _______ _______ _______ _____ _____    ______ ____
ROOT
ATOM      2  O   UNL     1      -6.317 -11.121   9.977  0.00  0.00    -0.370 OA
ATOM      3  O   UNL     1      -5.323  -8.399  11.080  0.00  0.00    -0.370 OA
ATOM      8  C   UNL     1      -4.918  -9.202   9.956  0.00  0.00    +0.168 C 
ATOM      9  C   UNL     1      -5.019 -10.653  10.382  0.00  0.00    +0.171 C 
ATOM     10  C   UNL     1      -5.922  -9.075   8.832  0.00  0.00    +0.111 C 
ATOM     11  C   UNL     1      -4.932 -10.600  11.890  0.00  0.00    +0.130 C 
ATOM     12  C   UNL     1      -6.984 -10.081   9.246  0.00  0.00    +0.181 C 
ATOM     13  C   UNL     1      -5.553  -9.252  12.211  0.00  0.00    +0.185 C 
ENDROOT
BRANCH  11   5
ATOM      5  N   UNL     1      -3.547 -10.626  12.308  0.00  0.00    -0.306 N 
ATOM      6  N   UNL     1      -4.119 -10.596  14.584  0.00  0.00    -0.214 NA
ATOM      7  N   UNL     1      -1.813 -10.653  13.888  0.00  0.00    -0.223 NA
ATOM     16  C   UNL     1      -3.148 -10.625  13.632  0.00  0.00    +0.216 A 
ATOM     19  C   UNL     1      -3.694 -10.595  15.864  0.00  0.00    +0.076 A 
ATOM     20  C   UNL     1      -1.458 -10.651  15.190  0.00  0.00    +0.116 A 
ATOM     21  C   UNL     1      -2.364 -10.622  16.230  0.00  0.00    +0.048 A 
ATOM     34  H   UNL     1      -2.817 -10.700  11.609  0.00  0.00    +0.149 HD
BRANCH  19  24
ATOM      1  F   UNL     1      -8.074  -9.177  17.323  0.00  0.00    -0.205 F 
ATOM     24  C   UNL     1      -4.740 -10.566  16.857  0.00  0.00    +0.003 A 
ATOM     28  C   UNL     1      -5.927  -9.872  16.606  0.00  0.00    +0.048 A 
ATOM     29  C   UNL     1      -4.572 -11.233  18.073  0.00  0.00    +0.010 A 
ATOM     30  C   UNL     1      -6.938  -9.843  17.566  0.00  0.00    +0.124 A 
ATOM     31  C   UNL     1      -5.584 -11.204  19.033  0.00  0.00    +0.003 A 
ATOM     32  C   UNL     1      -6.768 -10.510  18.779  0.00  0.00    +0.038 A 
ENDBRANCH  19  24
ENDBRANCH  11   5
BRANCH  10   4
ATOM      4  N   UNL     1      -5.324  -9.483   7.562  0.00  0.00    -0.309 NA
ATOM     33  H   UNL     1      -4.820 -10.361   7.688  0.00  0.00    +0.122 HD
BRANCH   4  14
ATOM     14  C   UNL     1      -6.347  -9.650   6.539  0.00  0.00    +0.081 C 
BRANCH  14  15
ATOM     15  C   UNL     1      -5.952 -10.762   5.571  0.00  0.00    +0.020 C 
BRANCH  15  17
ATOM     17  C   UNL     1      -4.768 -11.569   6.111  0.00  0.00    +0.036 C 
BRANCH  17  18
ATOM     18  C   UNL     1      -4.016 -12.265   5.005  0.00  0.00    -0.047 A 
ATOM     22  C   UNL     1      -4.540 -12.263   3.720  0.00  0.00    +0.003 A 
ATOM     23  C   UNL     1      -2.816 -12.897   5.289  0.00  0.00    +0.003 A 
ATOM     25  C   UNL     1      -3.845 -12.907   2.696  0.00  0.00    +0.000 A 
ATOM     26  C   UNL     1      -2.121 -13.542   4.264  0.00  0.00    +0.000 A 
ATOM     27  C   UNL     1      -2.636 -13.546   2.968  0.00  0.00    +0.000 A 
ENDBRANCH  17  18
ENDBRANCH  15  17
ENDBRANCH  14  15
ENDBRANCH   4  14
ENDBRANCH  10   4
TORSDOF 7
ENDMDL
MODEL 7
REMARK VINA RESULT:      -7.3     29.981     34.084
REMARK  Name = 11913381
REMARK  7 active torsions:
REMARK  status: ('A' for Active; 'I' for Inactive)
REMARK    1  A    between atoms: N_4  and  C_10
REMARK    2  A    between atoms: N_4  and  C_14
REMARK    3  A    between atoms: N_5  and  C_11
REMARK    4  A    between atoms: C_14  and  C_15
REMARK    5  A    between atoms: C_15  and  C_17
REMARK    6  A    between atoms: C_17  and  C_18
REMARK    7  A    between atoms: C_19  and  C_24
REMARK                            x       y       z     vdW  Elec       q    Type
REMARK                         _______ _______ _______ _____ _____    ______ ____
ROOT
ATOM      2  O   UNL     1      19.336   6.520  20.097  0.00  0.00    -0.370 OA
ATOM      3  O   UNL     1      18.994   8.728  22.246  0.00  0.00    -0.370 OA
ATOM      8  C   UNL     1      19.197   7.306  22.333  0.00  0.00    +0.168 C 
ATOM      9  C   UNL     1      18.421   6.672  21.196  0.00  0.00    +0.171 C 
ATOM     10  C   UNL     1      20.640   6.963  22.035  0.00  0.00    +0.111 C 
ATOM     11  C   UNL     1      17.364   7.697  20.856  0.00  0.00    +0.130 C 
ATOM     12  C   UNL     1      20.645   6.931  20.515  0.00  0.00    +0.181 C 
ATOM     13  C   UNL     1      18.048   9.007  21.202  0.00  0.00    +0.185 C 
ENDROOT
BRANCH  11   5
ATOM      5  N   UNL     1      16.199   7.503  21.693  0.00  0.00    -0.306 N 
ATOM      6  N   UNL     1      14.729   8.163  19.986  0.00  0.00    -0.214 NA
ATOM      7  N   UNL     1      13.898   7.509  22.151  0.00  0.00    -0.223 NA
ATOM     16  C   UNL     1      14.904   7.731  21.264  0.00  0.00    +0.216 A 
ATOM     19  C   UNL     1      13.453   8.376  19.602  0.00  0.00    +0.076 A 
ATOM     20  C   UNL     1      12.648   7.741  21.701  0.00  0.00    +0.116 A 
ATOM     21  C   UNL     1      12.363   8.180  20.424  0.00  0.00    +0.048 A 
ATOM     34  H   UNL     1      16.314   7.133  22.629  0.00  0.00    +0.149 HD
BRANCH  19  24
ATOM      1  F   UNL     1      10.693   9.098  15.705  0.00  0.00    -0.205 F 
ATOM     24  C   UNL     1      13.291   8.831  18.243  0.00  0.00    +0.003 A 
ATOM     28  C   UNL     1      12.045   8.743  17.617  0.00  0.00    +0.048 A 
ATOM     29  C   UNL     1      14.379   9.362  17.547  0.00  0.00    +0.010 A 
ATOM     30  C   UNL     1      11.889   9.183  16.303  0.00  0.00    +0.124 A 
ATOM     31  C   UNL     1      14.223   9.802  16.232  0.00  0.00    +0.003 A 
ATOM     32  C   UNL     1      12.977   9.713  15.610  0.00  0.00    +0.038 A 
ENDBRANCH  19  24
ENDBRANCH  11   5
BRANCH  10   4
ATOM      4  N   UNL     1      20.970   5.638  22.557  0.00  0.00    -0.309 NA
ATOM     33  H   UNL     1      20.113   5.101  22.692  0.00  0.00    +0.122 HD
BRANCH   4  14
ATOM     14  C   UNL     1      21.853   4.928  21.643  0.00  0.00    +0.081 C 
BRANCH  14  15
ATOM     15  C   UNL     1      21.815   3.428  21.927  0.00  0.00    +0.020 C 
BRANCH  15  17
ATOM     17  C   UNL     1      22.527   3.097  23.241  0.00  0.00    +0.036 C 
BRANCH  17  18
ATOM     18  C   UNL     1      23.562   2.017  23.058  0.00  0.00    -0.047 A 
ATOM     22  C   UNL     1      24.021   1.318  24.165  0.00  0.00    +0.003 A 
ATOM     23  C   UNL     1      24.042   1.741  21.787  0.00  0.00    +0.003 A 
ATOM     25  C   UNL     1      24.979   0.319  23.996  0.00  0.00    +0.000 A 
ATOM     26  C   UNL     1      25.002   0.742  21.618  0.00  0.00    +0.000 A 
ATOM     27  C   UNL     1      25.470   0.031  22.723  0.00  0.00    +0.000 A 
ENDBRANCH  17  18
ENDBRANCH  15  17
ENDBRANCH  14  15
ENDBRANCH   4  14
ENDBRANCH  10   4
TORSDOF 7
ENDMDL
MODEL 8
REMARK VINA RESULT:      -7.2      1.819      2.857
REMARK  Name = 11913381
REMARK  7 active torsions:
REMARK  status: ('A' for Active; 'I' for Inactive)
REMARK    1  A    between atoms: N_4  and  C_10
REMARK    2  A    between atoms: N_4  and  C_14
REMARK    3  A    between atoms: N_5  and  C_11
REMARK    4  A    between atoms: C_14  and  C_15
REMARK    5  A    between atoms: C_15  and  C_17
REMARK    6  A    between atoms: C_17  and  C_18
REMARK    7  A    between atoms: C_19  and  C_24
REMARK                            x       y       z     vdW  Elec       q    Type
REMARK                         _______ _______ _______ _____ _____    ______ ____
ROOT
ATOM      2  O   UNL     1     -15.273   7.295  22.840  0.00  0.00    -0.370 OA
ATOM      3  O   UNL     1     -13.394   4.867  22.414  0.00  0.00    -0.370 OA
ATOM      8  C   UNL     1     -14.277   5.582  21.531  0.00  0.00    +0.168 C 
ATOM      9  C   UNL     1     -15.502   5.967  22.338  0.00  0.00    +0.171 C 
ATOM     10  C   UNL     1     -13.663   6.906  21.134  0.00  0.00    +0.111 C 
ATOM     11  C   UNL     1     -15.517   4.975  23.477  0.00  0.00    +0.130 C 
ATOM     12  C   UNL     1     -14.031   7.788  22.317  0.00  0.00    +0.181 C 
ATOM     13  C   UNL     1     -14.042   4.679  23.681  0.00  0.00    +0.185 C 
ENDROOT
BRANCH  11   5
ATOM      5  N   UNL     1     -16.219   3.774  23.079  0.00  0.00    -0.306 N 
ATOM      6  N   UNL     1     -16.302   2.962  25.280  0.00  0.00    -0.214 NA
ATOM      7  N   UNL     1     -17.261   1.707  23.460  0.00  0.00    -0.223 NA
ATOM     16  C   UNL     1     -16.606   2.785  23.965  0.00  0.00    +0.216 A 
ATOM     19  C   UNL     1     -16.694   1.978  26.116  0.00  0.00    +0.076 A 
ATOM     20  C   UNL     1     -17.624   0.761  24.351  0.00  0.00    +0.116 A 
ATOM     21  C   UNL     1     -17.364   0.844  25.704  0.00  0.00    +0.048 A 
ATOM     34  H   UNL     1     -16.496   3.657  22.112  0.00  0.00    +0.149 HD
BRANCH  19  24
ATOM      1  F   UNL     1     -15.884   0.257  30.555  0.00  0.00    -0.205 F 
ATOM     24  C   UNL     1     -16.363   2.186  27.504  0.00  0.00    +0.003 A 
ATOM     28  C   UNL     1     -16.281   1.099  28.377  0.00  0.00    +0.048 A 
ATOM     29  C   UNL     1     -16.122   3.477  27.981  0.00  0.00    +0.010 A 
ATOM     30  C   UNL     1     -15.961   1.301  29.720  0.00  0.00    +0.124 A 
ATOM     31  C   UNL     1     -15.803   3.679  29.324  0.00  0.00    +0.003 A 
ATOM     32  C   UNL     1     -15.722   2.591  30.193  0.00  0.00    +0.038 A 
ENDBRANCH  19  24
ENDBRANCH  11   5
BRANCH  10   4
ATOM      4  N   UNL     1     -14.293   7.421  19.920  0.00  0.00    -0.309 NA
ATOM     33  H   UNL     1     -14.954   8.159  20.165  0.00  0.00    +0.122 HD
BRANCH   4  14
ATOM     14  C   UNL     1     -13.294   7.946  19.001  0.00  0.00    +0.081 C 
BRANCH  14  15
ATOM     15  C   UNL     1     -11.904   7.445  19.386  0.00  0.00    +0.020 C 
BRANCH  15  17
ATOM     17  C   UNL     1     -10.982   7.385  18.166  0.00  0.00    +0.036 C 
BRANCH  17  18
ATOM     18  C   UNL     1     -10.697   8.758  17.614  0.00  0.00    -0.047 A 
ATOM     22  C   UNL     1     -10.303   9.771  18.477  0.00  0.00    +0.003 A 
ATOM     23  C   UNL     1     -10.835   8.988  16.254  0.00  0.00    +0.003 A 
ATOM     25  C   UNL     1     -10.040  11.041  17.966  0.00  0.00    +0.000 A 
ATOM     26  C   UNL     1     -10.572  10.261  15.743  0.00  0.00    +0.000 A 
ATOM     27  C   UNL     1     -10.174  11.287  16.600  0.00  0.00    +0.000 A 
ENDBRANCH  17  18
ENDBRANCH  15  17
ENDBRANCH  14  15
ENDBRANCH   4  14
ENDBRANCH  10   4
TORSDOF 7
ENDMDL
MODEL 9
REMARK VINA RESULT:      -7.2     31.112     34.631
REMARK  Name = 11913381
REMARK  7 active torsions:
REMARK  status: ('A' for Active; 'I' for Inactive)
REMARK    1  A    between atoms: N_4  and  C_10
REMARK    2  A    between atoms: N_4  and  C_14
REMARK    3  A    between atoms: N_5  and  C_11
REMARK    4  A    between atoms: C_14  and  C_15
REMARK    5  A    between atoms: C_15  and  C_17
REMARK    6  A    between atoms: C_17  and  C_18
REMARK    7  A    between atoms: C_19  and  C_24
REMARK                            x       y       z     vdW  Elec       q    Type
REMARK                         _______ _______ _______ _____ _____    ______ ____
ROOT
ATOM      2  O   UNL     1      13.639   8.430   1.769  0.00  0.00    -0.370 OA
ATOM      3  O   UNL     1      15.550   7.184   3.869  0.00  0.00    -0.370 OA
ATOM      8  C   UNL     1      14.871   6.638   2.724  0.00  0.00    +0.168 C 
ATOM      9  C   UNL     1      13.509   7.302   2.652  0.00  0.00    +0.171 C 
ATOM     10  C   UNL     1      15.562   7.068   1.449  0.00  0.00    +0.111 C 
ATOM     11  C   UNL     1      13.255   7.772   4.065  0.00  0.00    +0.130 C 
ATOM     12  C   UNL     1      14.965   8.448   1.221  0.00  0.00    +0.181 C 
ATOM     13  C   UNL     1      14.655   8.054   4.578  0.00  0.00    +0.185 C 
ENDROOT
BRANCH  11   5
ATOM      5  N   UNL     1      12.642   6.712   4.837  0.00  0.00    -0.306 N 
ATOM      6  N   UNL     1      10.472   7.424   4.295  0.00  0.00    -0.214 NA
ATOM      7  N   UNL     1      10.828   5.502   5.704  0.00  0.00    -0.223 NA
ATOM     16  C   UNL     1      11.274   6.541   4.948  0.00  0.00    +0.216 A 
ATOM     19  C   UNL     1       9.144   7.228   4.426  0.00  0.00    +0.076 A 
ATOM     20  C   UNL     1       9.489   5.365   5.792  0.00  0.00    +0.116 A 
ATOM     21  C   UNL     1       8.590   6.205   5.168  0.00  0.00    +0.048 A 
ATOM     34  H   UNL     1      13.229   6.018   5.284  0.00  0.00    +0.149 HD
BRANCH  19  24
ATOM      1  F   UNL     1       5.621  10.531   4.402  0.00  0.00    -0.205 F 
ATOM     24  C   UNL     1       8.313   8.175   3.723  0.00  0.00    +0.003 A 
ATOM     28  C   UNL     1       7.348   8.911   4.415  0.00  0.00    +0.048 A 
ATOM     29  C   UNL     1       8.469   8.359   2.347  0.00  0.00    +0.010 A 
ATOM     30  C   UNL     1       6.545   9.826   3.736  0.00  0.00    +0.124 A 
ATOM     31  C   UNL     1       7.665   9.275   1.668  0.00  0.00    +0.003 A 
ATOM     32  C   UNL     1       6.703  10.009   2.362  0.00  0.00    +0.038 A 
ENDBRANCH  19  24
ENDBRANCH  11   5
BRANCH  10   4
ATOM      4  N   UNL     1      15.196   6.184   0.344  0.00  0.00    -0.309 NA
ATOM     33  H   UNL     1      15.537   6.576  -0.534  0.00  0.00    +0.122 HD
BRANCH   4  14
ATOM     14  C   UNL     1      15.758   4.856   0.537  0.00  0.00    +0.081 C 
BRANCH  14  15
ATOM     15  C   UNL     1      14.747   3.788   0.127  0.00  0.00    +0.020 C 
BRANCH  15  17
ATOM     17  C   UNL     1      13.882   3.362   1.316  0.00  0.00    +0.036 C 
BRANCH  17  18
ATOM     18  C   UNL     1      12.474   3.887   1.197  0.00  0.00    -0.047 A 
ATOM     22  C   UNL     1      11.669   3.941   2.326  0.00  0.00    +0.003 A 
ATOM     23  C   UNL     1      12.004   4.305  -0.039  0.00  0.00    +0.003 A 
ATOM     25  C   UNL     1      10.366   4.426   2.216  0.00  0.00    +0.000 A 
ATOM     26  C   UNL     1      10.700   4.789  -0.149  0.00  0.00    +0.000 A 
ATOM     27  C   UNL     1       9.881   4.850   0.979  0.00  0.00    +0.000 A 
ENDBRANCH  17  18
ENDBRANCH  15  17
ENDBRANCH  14  15
ENDBRANCH   4  14
ENDBRANCH  10   4
TORSDOF 7
ENDMDL
MODEL 10
REMARK VINA RESULT:      -7.2     18.573     20.985
REMARK  Name = 11913381
REMARK  7 active torsions:
REMARK  status: ('A' for Active; 'I' for Inactive)
REMARK    1  A    between atoms: N_4  and  C_10
REMARK    2  A    between atoms: N_4  and  C_14
REMARK    3  A    between atoms: N_5  and  C_11
REMARK    4  A    between atoms: C_14  and  C_15
REMARK    5  A    between atoms: C_15  and  C_17
REMARK    6  A    between atoms: C_17  and  C_18
REMARK    7  A    between atoms: C_19  and  C_24
REMARK                            x       y       z     vdW  Elec       q    Type
REMARK                         _______ _______ _______ _____ _____    ______ ____
ROOT
ATOM      2  O   UNL     1      -7.839 -10.887  15.802  0.00  0.00    -0.370 OA
ATOM      3  O   UNL     1      -6.886 -11.618  18.660  0.00  0.00    -0.370 OA
ATOM      8  C   UNL     1      -7.086 -10.359  17.991  0.00  0.00    +0.168 C 
ATOM      9  C   UNL     1      -6.658 -10.545  16.549  0.00  0.00    +0.171 C 
ATOM     10  C   UNL     1      -8.562 -10.041  17.903  0.00  0.00    +0.111 C 
ATOM     11  C   UNL     1      -5.712 -11.723  16.595  0.00  0.00    +0.130 C 
ATOM     12  C   UNL     1      -8.978 -10.831  16.672  0.00  0.00    +0.181 C 
ATOM     13  C   UNL     1      -6.252 -12.536  17.757  0.00  0.00    +0.185 C 
ENDROOT
BRANCH  11   5
ATOM      5  N   UNL     1      -4.369 -11.268  16.883  0.00  0.00    -0.306 N 
ATOM      6  N   UNL     1      -3.839 -11.052  14.606  0.00  0.00    -0.214 NA
ATOM      7  N   UNL     1      -2.220 -10.521  16.310  0.00  0.00    -0.223 NA
ATOM     16  C   UNL     1      -3.448 -10.937  15.904  0.00  0.00    +0.216 A 
ATOM     19  C   UNL     1      -2.916 -10.722  13.679  0.00  0.00    +0.076 A 
ATOM     20  C   UNL     1      -1.346 -10.207  15.331  0.00  0.00    +0.116 A 
ATOM     21  C   UNL     1      -1.642 -10.289  13.986  0.00  0.00    +0.048 A 
ATOM     34  H   UNL     1      -4.085 -11.129  17.845  0.00  0.00    +0.149 HD
BRANCH  19  24
ATOM      1  F   UNL     1      -3.409  -8.904   9.232  0.00  0.00    -0.205 F 
ATOM     24  C   UNL     1      -3.351 -10.849  12.310  0.00  0.00    +0.003 A 
ATOM     28  C   UNL     1      -3.166  -9.794  11.413  0.00  0.00    +0.048 A 
ATOM     29  C   UNL     1      -3.958 -12.030  11.875  0.00  0.00    +0.010 A 
ATOM     30  C   UNL     1      -3.587  -9.918  10.090  0.00  0.00    +0.124 A 
ATOM     31  C   UNL     1      -4.380 -12.153  10.550  0.00  0.00    +0.003 A 
ATOM     32  C   UNL     1      -4.194 -11.097   9.657  0.00  0.00    +0.038 A 
ENDBRANCH  19  24
ENDBRANCH  11   5
BRANCH  10   4
ATOM      4  N   UNL     1      -8.765  -8.613  17.665  0.00  0.00    -0.309 NA
ATOM     33  H   UNL     1      -8.114  -8.290  16.949  0.00  0.00    +0.122 HD
BRANCH   4  14
ATOM     14  C   UNL     1     -10.132  -8.350  17.237  0.00  0.00    +0.081 C 
BRANCH  14  15
ATOM     15  C   UNL     1     -10.147  -7.302  16.127  0.00  0.00    +0.020 C 
BRANCH  15  17
ATOM     17  C   UNL     1     -11.116  -6.163  16.457  0.00  0.00    +0.036 C 
BRANCH  17  18
ATOM     18  C   UNL     1     -12.250  -6.090  15.468  0.00  0.00    -0.047 A 
ATOM     22  C   UNL     1     -13.482  -6.634  15.803  0.00  0.00    +0.003 A 
ATOM     23  C   UNL     1     -12.045  -5.484  14.238  0.00  0.00    +0.003 A 
ATOM     25  C   UNL     1     -14.532  -6.567  14.887  0.00  0.00    +0.000 A 
ATOM     26  C   UNL     1     -13.096  -5.419  13.321  0.00  0.00    +0.000 A 
ATOM     27  C   UNL     1     -14.339  -5.960  13.647  0.00  0.00    +0.000 A 
ENDBRANCH  17  18
ENDBRANCH  15  17
ENDBRANCH  14  15
ENDBRANCH   4  14
ENDBRANCH  10   4
TORSDOF 7
ENDMDL
