MODEL 1
REMARK VINA RESULT:      -7.6      0.000      0.000
REMARK  Name = 71694340
REMARK  7 active torsions:
REMARK  status: ('A' for Active; 'I' for Inactive)
REMARK    1  A    between atoms: N_6  and  C_22
REMARK    2  A    between atoms: N_6  and  C_24
REMARK    3  A    between atoms: N_8  and  C_28
REMARK    4  A    between atoms: C_10  and  C_15
REMARK    5  A    between atoms: C_15  and  C_18
REMARK    6  A    between atoms: C_22  and  C_26
REMARK    7  A    between atoms: C_26  and  C_34
REMARK                            x       y       z     vdW  Elec       q    Type
REMARK                         _______ _______ _______ _____ _____    ______ ____
ROOT
ATOM      1  O   UNL     1      20.701  11.174  22.884  0.00  0.00    -0.274 OA
ATOM      3  O   UNL     1      20.112   6.400  20.644  0.00  0.00    -0.488 OA
ATOM      5  N   UNL     1      22.287   9.490  22.810  0.00  0.00    -0.300 N 
ATOM      7  N   UNL     1      19.416   8.129  22.878  0.00  0.00    -0.304 NA
ATOM     10  C   UNL     1      23.858   8.385  20.618  0.00  0.00    +0.008 C 
ATOM     11  C   UNL     1      22.789   7.567  21.403  0.00  0.00    +0.032 C 
ATOM     12  C   UNL     1      23.520   9.891  20.719  0.00  0.00    +0.023 C 
ATOM     13  C   UNL     1      22.671   8.075  22.853  0.00  0.00    +0.115 C 
ATOM     14  C   UNL     1      23.284  10.347  22.162  0.00  0.00    +0.108 C 
ATOM     16  C   UNL     1      22.999   6.078  21.360  0.00  0.00    -0.023 C 
ATOM     17  C   UNL     1      21.026  10.003  23.114  0.00  0.00    +0.229 C 
ATOM     19  C   UNL     1      22.177   5.124  20.890  0.00  0.00    +0.010 C 
ATOM     20  C   UNL     1      20.015   9.097  23.791  0.00  0.00    +0.178 C 
ATOM     21  C   UNL     1      20.787   5.193  20.311  0.00  0.00    +0.256 C 
ATOM     23  C   UNL     1      18.824   8.700  21.670  0.00  0.00    +0.120 C 
ATOM     25  C   UNL     1      18.111   7.647  20.839  0.00  0.00    +0.010 A 
ATOM     27  C   UNL     1      18.781   6.512  20.326  0.00  0.00    +0.125 A 
ATOM     28  C   UNL     1      16.059   6.893  19.771  0.00  0.00    +0.030 A 
ATOM     29  C   UNL     1      16.748   7.822  20.549  0.00  0.00    +0.031 A 
ATOM     32  C   UNL     1      18.081   5.590  19.540  0.00  0.00    +0.048 A 
ATOM     33  C   UNL     1      16.725   5.781  19.267  0.00  0.00    +0.027 A 
ATOM     41  H   UNL     1      18.707   7.601  23.387  0.00  0.00    +0.123 HD
ENDROOT
BRANCH  28   8
ATOM      4  O   UNL     1      12.015   7.735  18.990  0.00  0.00    -0.377 OA
ATOM      8  N   UNL     1      14.701   7.082  19.494  0.00  0.00    -0.326 N 
ATOM     30  C   UNL     1      13.727   7.109  20.590  0.00  0.00    +0.133 C 
ATOM     31  C   UNL     1      14.340   7.884  18.317  0.00  0.00    +0.133 C 
ATOM     35  C   UNL     1      12.331   6.828  20.046  0.00  0.00    +0.178 C 
ATOM     36  C   UNL     1      12.911   7.561  17.893  0.00  0.00    +0.178 C 
ENDBRANCH  28   8
BRANCH  10  15
ATOM     15  C   UNL     1      25.306   8.127  21.051  0.00  0.00    +0.100 C 
BRANCH  15  18
ATOM      2  O   UNL     1      26.031   7.249  18.942  0.00  0.00    -0.276 OA
ATOM      6  N   UNL     1      26.577   6.021  20.832  0.00  0.00    -0.304 N 
ATOM     18  C   UNL     1      25.997   7.106  20.167  0.00  0.00    +0.216 C 
ATOM     24  C   UNL     1      26.524   5.873  22.280  0.00  0.00    +0.132 C 
BRANCH   6  22
ATOM     22  C   UNL     1      27.279   4.953  20.124  0.00  0.00    +0.113 C 
BRANCH  22  26
ATOM     26  C   UNL     1      26.324   3.977  19.440  0.00  0.00    +0.074 C 
BRANCH  26  34
ATOM      9  N   UNL     1      26.714   2.429  21.279  0.00  0.00    -0.260 NA
ATOM     34  C   UNL     1      25.833   2.890  20.364  0.00  0.00    +0.043 A 
ATOM     37  C   UNL     1      24.533   2.427  20.235  0.00  0.00    +0.023 A 
ATOM     38  C   UNL     1      24.110   1.427  21.103  0.00  0.00    +0.003 A 
ATOM     39  C   UNL     1      26.268   1.455  22.104  0.00  0.00    +0.111 A 
ATOM     40  C   UNL     1      24.988   0.926  22.058  0.00  0.00    +0.020 A 
ENDBRANCH  26  34
ENDBRANCH  22  26
ENDBRANCH   6  22
ENDBRANCH  15  18
ENDBRANCH  10  15
TORSDOF 6
ENDMDL
MODEL 2
REMARK VINA RESULT:      -6.8     31.063     34.228
REMARK  Name = 71694340
REMARK  7 active torsions:
REMARK  status: ('A' for Active; 'I' for Inactive)
REMARK    1  A    between atoms: N_6  and  C_22
REMARK    2  A    between atoms: N_6  and  C_24
REMARK    3  A    between atoms: N_8  and  C_28
REMARK    4  A    between atoms: C_10  and  C_15
REMARK    5  A    between atoms: C_15  and  C_18
REMARK    6  A    between atoms: C_22  and  C_26
REMARK    7  A    between atoms: C_26  and  C_34
REMARK                            x       y       z     vdW  Elec       q    Type
REMARK                         _______ _______ _______ _____ _____    ______ ____
ROOT
ATOM      1  O   UNL     1      -7.882 -11.056  20.012  0.00  0.00    -0.274 OA
ATOM      3  O   UNL     1      -8.783 -10.529  14.810  0.00  0.00    -0.488 OA
ATOM      5  N   UNL     1      -6.632 -11.991  18.304  0.00  0.00    -0.300 N 
ATOM      7  N   UNL     1      -9.639 -11.759  17.303  0.00  0.00    -0.304 NA
ATOM     10  C   UNL     1      -4.836 -10.814  16.332  0.00  0.00    +0.008 C 
ATOM     11  C   UNL     1      -6.175 -11.520  15.960  0.00  0.00    +0.032 C 
ATOM     12  C   UNL     1      -4.925 -10.297  17.788  0.00  0.00    +0.023 C 
ATOM     13  C   UNL     1      -6.516 -12.620  16.984  0.00  0.00    +0.115 C 
ATOM     14  C   UNL     1      -5.386 -11.377  18.771  0.00  0.00    +0.108 C 
ATOM     16  C   UNL     1      -6.220 -12.050  14.552  0.00  0.00    -0.023 C 
ATOM     17  C   UNL     1      -7.821 -11.753  18.993  0.00  0.00    +0.229 C 
ATOM     19  C   UNL     1      -7.072 -11.737  13.561  0.00  0.00    +0.010 C 
ATOM     20  C   UNL     1      -9.096 -12.407  18.493  0.00  0.00    +0.178 C 
ATOM     21  C   UNL     1      -8.270 -10.823  13.517  0.00  0.00    +0.256 C 
ATOM     23  C   UNL     1      -9.848 -10.318  17.422  0.00  0.00    +0.120 C 
ATOM     25  C   UNL     1     -10.533  -9.743  16.194  0.00  0.00    +0.010 A 
ATOM     27  C   UNL     1      -9.973  -9.850  14.900  0.00  0.00    +0.125 A 
ATOM     28  C   UNL     1     -12.403  -8.497  15.260  0.00  0.00    +0.030 A 
ATOM     29  C   UNL     1     -11.750  -9.060  16.356  0.00  0.00    +0.031 A 
ATOM     32  C   UNL     1     -10.634  -9.275  13.809  0.00  0.00    +0.048 A 
ATOM     33  C   UNL     1     -11.845  -8.603  13.991  0.00  0.00    +0.027 A 
ATOM     41  H   UNL     1     -10.523 -12.211  17.064  0.00  0.00    +0.123 HD
ENDROOT
BRANCH  28   8
ATOM      4  O   UNL     1     -15.902  -6.263  15.925  0.00  0.00    -0.377 OA
ATOM      8  N   UNL     1     -13.614  -7.822  15.439  0.00  0.00    -0.326 N 
ATOM     30  C   UNL     1     -14.348  -7.957  16.701  0.00  0.00    +0.133 C 
ATOM     31  C   UNL     1     -13.806  -6.545  14.738  0.00  0.00    +0.133 C 
ATOM     35  C   UNL     1     -15.807  -7.569  16.494  0.00  0.00    +0.178 C 
ATOM     36  C   UNL     1     -15.294  -6.233  14.634  0.00  0.00    +0.178 C 
ENDBRANCH  28   8
BRANCH  10  15
ATOM     15  C   UNL     1      -3.584 -11.678  16.143  0.00  0.00    +0.100 C 
BRANCH  15  18
ATOM      2  O   UNL     1      -2.521 -10.282  14.508  0.00  0.00    -0.276 OA
ATOM      6  N   UNL     1      -2.744 -12.530  13.982  0.00  0.00    -0.304 N 
ATOM     18  C   UNL     1      -2.902 -11.416  14.812  0.00  0.00    +0.216 C 
ATOM     24  C   UNL     1      -3.203 -13.860  14.362  0.00  0.00    +0.132 C 
BRANCH   6  22
ATOM     22  C   UNL     1      -2.108 -12.445  12.669  0.00  0.00    +0.113 C 
BRANCH  22  26
ATOM     26  C   UNL     1      -3.077 -12.743  11.527  0.00  0.00    +0.074 C 
BRANCH  26  34
ATOM      9  N   UNL     1      -4.211 -11.711   9.634  0.00  0.00    -0.260 NA
ATOM     34  C   UNL     1      -3.423 -11.519  10.715  0.00  0.00    +0.043 A 
ATOM     37  C   UNL     1      -2.930 -10.284  11.107  0.00  0.00    +0.023 A 
ATOM     38  C   UNL     1      -3.269  -9.176  10.338  0.00  0.00    +0.003 A 
ATOM     39  C   UNL     1      -4.518 -10.611   8.911  0.00  0.00    +0.111 A 
ATOM     40  C   UNL     1      -4.077  -9.334   9.218  0.00  0.00    +0.020 A 
ENDBRANCH  26  34
ENDBRANCH  22  26
ENDBRANCH   6  22
ENDBRANCH  15  18
ENDBRANCH  10  15
TORSDOF 6
ENDMDL
MODEL 3
REMARK VINA RESULT:      -6.8     31.750     34.410
REMARK  Name = 71694340
REMARK  7 active torsions:
REMARK  status: ('A' for Active; 'I' for Inactive)
REMARK    1  A    between atoms: N_6  and  C_22
REMARK    2  A    between atoms: N_6  and  C_24
REMARK    3  A    between atoms: N_8  and  C_28
REMARK    4  A    between atoms: C_10  and  C_15
REMARK    5  A    between atoms: C_15  and  C_18
REMARK    6  A    between atoms: C_22  and  C_26
REMARK    7  A    between atoms: C_26  and  C_34
REMARK                            x       y       z     vdW  Elec       q    Type
REMARK                         _______ _______ _______ _____ _____    ______ ____
ROOT
ATOM      1  O   UNL     1      -9.573 -11.243  10.111  0.00  0.00    -0.274 OA
ATOM      3  O   UNL     1      -4.726 -10.329  12.067  0.00  0.00    -0.488 OA
ATOM      5  N   UNL     1      -7.744 -10.459   8.929  0.00  0.00    -0.300 N 
ATOM      7  N   UNL     1      -7.489  -9.430  11.925  0.00  0.00    -0.304 NA
ATOM     10  C   UNL     1      -5.259 -11.740   8.105  0.00  0.00    +0.008 C 
ATOM     11  C   UNL     1      -5.319 -10.557   9.117  0.00  0.00    +0.032 C 
ATOM     12  C   UNL     1      -6.614 -12.488   8.119  0.00  0.00    +0.023 C 
ATOM     13  C   UNL     1      -6.527  -9.647   8.822  0.00  0.00    +0.115 C 
ATOM     14  C   UNL     1      -7.809 -11.546   7.949  0.00  0.00    +0.108 C 
ATOM     16  C   UNL     1      -4.045  -9.761   9.210  0.00  0.00    -0.023 C 
ATOM     17  C   UNL     1      -8.667 -10.412   9.974  0.00  0.00    +0.229 C 
ATOM     19  C   UNL     1      -3.261  -9.549  10.280  0.00  0.00    +0.010 C 
ATOM     20  C   UNL     1      -8.582  -9.272  10.971  0.00  0.00    +0.178 C 
ATOM     21  C   UNL     1      -3.395  -9.965  11.723  0.00  0.00    +0.256 C 
ATOM     23  C   UNL     1      -7.471 -10.703  12.642  0.00  0.00    +0.120 C 
ATOM     25  C   UNL     1      -6.385 -10.737  13.704  0.00  0.00    +0.010 A 
ATOM     27  C   UNL     1      -5.017 -10.561  13.389  0.00  0.00    +0.125 A 
ATOM     28  C   UNL     1      -5.786 -11.041  16.042  0.00  0.00    +0.030 A 
ATOM     29  C   UNL     1      -6.751 -10.979  15.038  0.00  0.00    +0.031 A 
ATOM     32  C   UNL     1      -4.057 -10.633  14.404  0.00  0.00    +0.048 A 
ATOM     33  C   UNL     1      -4.443 -10.871  15.725  0.00  0.00    +0.027 A 
ATOM     41  H   UNL     1      -7.533  -8.663  12.597  0.00  0.00    +0.123 HD
ENDROOT
BRANCH  28   8
ATOM      4  O   UNL     1      -6.682 -11.874  20.065  0.00  0.00    -0.377 OA
ATOM      8  N   UNL     1      -6.168 -11.281  17.366  0.00  0.00    -0.326 N 
ATOM     30  C   UNL     1      -6.697 -12.594  17.748  0.00  0.00    +0.133 C 
ATOM     31  C   UNL     1      -5.464 -10.556  18.433  0.00  0.00    +0.133 C 
ATOM     35  C   UNL     1      -7.484 -12.475  19.048  0.00  0.00    +0.178 C 
ATOM     36  C   UNL     1      -6.317 -10.544  19.696  0.00  0.00    +0.178 C 
ENDBRANCH  28   8
BRANCH  10  15
ATOM     15  C   UNL     1      -4.881 -11.340   6.674  0.00  0.00    +0.100 C 
BRANCH  15  18
ATOM      2  O   UNL     1      -3.270 -13.110   6.528  0.00  0.00    -0.276 OA
ATOM      6  N   UNL     1      -4.485 -12.636   4.609  0.00  0.00    -0.304 N 
ATOM     18  C   UNL     1      -4.131 -12.443   5.949  0.00  0.00    +0.216 C 
ATOM     24  C   UNL     1      -5.505 -11.834   3.946  0.00  0.00    +0.132 C 
BRANCH   6  22
ATOM     22  C   UNL     1      -3.857 -13.657   3.773  0.00  0.00    +0.113 C 
BRANCH  22  26
ATOM     26  C   UNL     1      -2.883 -13.064   2.757  0.00  0.00    +0.074 C 
BRANCH  26  34
ATOM      9  N   UNL     1      -0.822 -13.710   1.630  0.00  0.00    -0.260 NA
ATOM     34  C   UNL     1      -1.530 -13.732   2.781  0.00  0.00    +0.043 A 
ATOM     37  C   UNL     1      -1.085 -14.320   3.955  0.00  0.00    +0.023 A 
ATOM     38  C   UNL     1       0.167 -14.925   3.945  0.00  0.00    +0.003 A 
ATOM     39  C   UNL     1       0.389 -14.309   1.658  0.00  0.00    +0.111 A 
ATOM     40  C   UNL     1       0.924 -14.924   2.779  0.00  0.00    +0.020 A 
ENDBRANCH  26  34
ENDBRANCH  22  26
ENDBRANCH   6  22
ENDBRANCH  15  18
ENDBRANCH  10  15
TORSDOF 6
ENDMDL
MODEL 4
REMARK VINA RESULT:      -6.8     15.802     21.119
REMARK  Name = 71694340
REMARK  7 active torsions:
REMARK  status: ('A' for Active; 'I' for Inactive)
REMARK    1  A    between atoms: N_6  and  C_22
REMARK    2  A    between atoms: N_6  and  C_24
REMARK    3  A    between atoms: N_8  and  C_28
REMARK    4  A    between atoms: C_10  and  C_15
REMARK    5  A    between atoms: C_15  and  C_18
REMARK    6  A    between atoms: C_22  and  C_26
REMARK    7  A    between atoms: C_26  and  C_34
REMARK                            x       y       z     vdW  Elec       q    Type
REMARK                         _______ _______ _______ _____ _____    ______ ____
ROOT
ATOM      1  O   UNL     1      11.157   5.785   7.696  0.00  0.00    -0.274 OA
ATOM      3  O   UNL     1       8.735  10.199   6.019  0.00  0.00    -0.488 OA
ATOM      5  N   UNL     1       9.824   5.986   5.814  0.00  0.00    -0.300 N 
ATOM      7  N   UNL     1       8.772   8.055   7.985  0.00  0.00    -0.304 NA
ATOM     10  C   UNL     1      10.236   7.343   3.268  0.00  0.00    +0.008 C 
ATOM     11  C   UNL     1       9.137   7.757   4.291  0.00  0.00    +0.032 C 
ATOM     12  C   UNL     1      11.380   6.619   4.018  0.00  0.00    +0.023 C 
ATOM     13  C   UNL     1       8.663   6.538   5.107  0.00  0.00    +0.115 C 
ATOM     14  C   UNL     1      10.873   5.491   4.919  0.00  0.00    +0.108 C 
ATOM     16  C   UNL     1       7.974   8.492   3.682  0.00  0.00    -0.023 C 
ATOM     17  C   UNL     1      10.079   6.104   7.181  0.00  0.00    +0.229 C 
ATOM     19  C   UNL     1       7.522   9.728   3.956  0.00  0.00    +0.010 C 
ATOM     20  C   UNL     1       8.973   6.613   8.086  0.00  0.00    +0.178 C 
ATOM     21  C   UNL     1       7.962  10.758   4.964  0.00  0.00    +0.256 C 
ATOM     23  C   UNL     1       9.973   8.864   8.184  0.00  0.00    +0.120 C 
ATOM     25  C   UNL     1       9.658  10.350   8.192  0.00  0.00    +0.010 A 
ATOM     27  C   UNL     1       9.050  10.997   7.091  0.00  0.00    +0.125 A 
ATOM     28  C   UNL     1       9.757  12.480   9.363  0.00  0.00    +0.030 A 
ATOM     29  C   UNL     1      10.007  11.110   9.321  0.00  0.00    +0.031 A 
ATOM     32  C   UNL     1       8.812  12.375   7.141  0.00  0.00    +0.048 A 
ATOM     33  C   UNL     1       9.163  13.111   8.275  0.00  0.00    +0.027 A 
ATOM     41  H   UNL     1       8.061   8.331   8.664  0.00  0.00    +0.123 HD
ENDROOT
BRANCH  28   8
ATOM      4  O   UNL     1      10.579  14.620  12.888  0.00  0.00    -0.377 OA
ATOM      8  N   UNL     1      10.109  13.221  10.495  0.00  0.00    -0.326 N 
ATOM     30  C   UNL     1       9.576  14.575  10.679  0.00  0.00    +0.133 C 
ATOM     31  C   UNL     1      10.405  12.492  11.736  0.00  0.00    +0.133 C 
ATOM     35  C   UNL     1      10.448  15.344  11.664  0.00  0.00    +0.178 C 
ATOM     36  C   UNL     1      11.234  13.371  12.665  0.00  0.00    +0.178 C 
ENDBRANCH  28   8
BRANCH  10  15
ATOM     15  C   UNL     1       9.733   6.488   2.099  0.00  0.00    +0.100 C 
BRANCH  15  18
ATOM      2  O   UNL     1      10.995   7.447   0.300  0.00  0.00    -0.276 OA
ATOM      6  N   UNL     1      11.305   5.185   0.709  0.00  0.00    -0.304 N 
ATOM     18  C   UNL     1      10.729   6.435   0.955  0.00  0.00    +0.216 C 
ATOM     24  C   UNL     1      10.975   4.004   1.496  0.00  0.00    +0.132 C 
BRANCH   6  22
ATOM     22  C   UNL     1      12.281   4.968  -0.356  0.00  0.00    +0.113 C 
BRANCH  22  26
ATOM     26  C   UNL     1      12.124   3.606  -1.027  0.00  0.00    +0.074 C 
BRANCH  26  34
ATOM      9  N   UNL     1      10.412   4.762  -2.318  0.00  0.00    -0.260 NA
ATOM     34  C   UNL     1      11.057   3.595  -2.094  0.00  0.00    +0.043 A 
ATOM     37  C   UNL     1      10.795   2.420  -2.779  0.00  0.00    +0.023 A 
ATOM     38  C   UNL     1       9.807   2.444  -3.758  0.00  0.00    +0.003 A 
ATOM     39  C   UNL     1       9.458   4.747  -3.275  0.00  0.00    +0.111 A 
ATOM     40  C   UNL     1       9.122   3.626  -4.016  0.00  0.00    +0.020 A 
ENDBRANCH  26  34
ENDBRANCH  22  26
ENDBRANCH   6  22
ENDBRANCH  15  18
ENDBRANCH  10  15
TORSDOF 6
ENDMDL
MODEL 5
REMARK VINA RESULT:      -6.8     31.059     34.542
REMARK  Name = 71694340
REMARK  7 active torsions:
REMARK  status: ('A' for Active; 'I' for Inactive)
REMARK    1  A    between atoms: N_6  and  C_22
REMARK    2  A    between atoms: N_6  and  C_24
REMARK    3  A    between atoms: N_8  and  C_28
REMARK    4  A    between atoms: C_10  and  C_15
REMARK    5  A    between atoms: C_15  and  C_18
REMARK    6  A    between atoms: C_22  and  C_26
REMARK    7  A    between atoms: C_26  and  C_34
REMARK                            x       y       z     vdW  Elec       q    Type
REMARK                         _______ _______ _______ _____ _____    ______ ____
ROOT
ATOM      1  O   UNL     1      -4.088 -16.338  13.556  0.00  0.00    -0.274 OA
ATOM      3  O   UNL     1      -3.587 -11.920  10.659  0.00  0.00    -0.488 OA
ATOM      5  N   UNL     1      -3.199 -14.324  14.271  0.00  0.00    -0.300 N 
ATOM      7  N   UNL     1      -2.600 -14.610  11.163  0.00  0.00    -0.304 NA
ATOM     10  C   UNL     1      -4.424 -11.734  14.811  0.00  0.00    +0.008 C 
ATOM     11  C   UNL     1      -3.390 -11.972  13.670  0.00  0.00    +0.032 C 
ATOM     12  C   UNL     1      -5.129 -13.071  15.143  0.00  0.00    +0.023 C 
ATOM     13  C   UNL     1      -2.415 -13.105  14.044  0.00  0.00    +0.115 C 
ATOM     14  C   UNL     1      -4.140 -14.214  15.389  0.00  0.00    +0.108 C 
ATOM     16  C   UNL     1      -2.651 -10.733  13.241  0.00  0.00    -0.023 C 
ATOM     17  C   UNL     1      -3.272 -15.419  13.411  0.00  0.00    +0.229 C 
ATOM     19  C   UNL     1      -2.609 -10.155  12.029  0.00  0.00    +0.010 C 
ATOM     20  C   UNL     1      -2.282 -15.512  12.265  0.00  0.00    +0.178 C 
ATOM     21  C   UNL     1      -3.216 -10.548  10.706  0.00  0.00    +0.256 C 
ATOM     23  C   UNL     1      -3.960 -14.725  10.640  0.00  0.00    +0.120 C 
ATOM     25  C   UNL     1      -4.170 -13.848   9.417  0.00  0.00    +0.010 A 
ATOM     27  C   UNL     1      -3.990 -12.445   9.456  0.00  0.00    +0.125 A 
ATOM     28  C   UNL     1      -4.809 -13.681   7.076  0.00  0.00    +0.030 A 
ATOM     29  C   UNL     1      -4.583 -14.449   8.217  0.00  0.00    +0.031 A 
ATOM     32  C   UNL     1      -4.228 -11.684   8.306  0.00  0.00    +0.048 A 
ATOM     33  C   UNL     1      -4.634 -12.302   7.122  0.00  0.00    +0.027 A 
ATOM     41  H   UNL     1      -1.932 -14.773  10.409  0.00  0.00    +0.123 HD
ENDROOT
BRANCH  28   8
ATOM      4  O   UNL     1      -5.774 -15.612   3.468  0.00  0.00    -0.377 OA
ATOM      8  N   UNL     1      -5.218 -14.296   5.888  0.00  0.00    -0.326 N 
ATOM     30  C   UNL     1      -5.075 -13.589   4.611  0.00  0.00    +0.133 C 
ATOM     31  C   UNL     1      -5.141 -15.761   5.804  0.00  0.00    +0.133 C 
ATOM     35  C   UNL     1      -6.004 -14.207   3.573  0.00  0.00    +0.178 C 
ATOM     36  C   UNL     1      -6.067 -16.263   4.703  0.00  0.00    +0.178 C 
ENDBRANCH  28   8
BRANCH  10  15
ATOM     15  C   UNL     1      -3.841 -11.103  16.081  0.00  0.00    +0.100 C 
BRANCH  15  18
ATOM      2  O   UNL     1      -5.596  -9.524  16.502  0.00  0.00    -0.276 OA
ATOM      6  N   UNL     1      -5.049 -10.969  18.231  0.00  0.00    -0.304 N 
ATOM     18  C   UNL     1      -4.909 -10.451  16.940  0.00  0.00    +0.216 C 
ATOM     24  C   UNL     1      -4.225 -12.064  18.727  0.00  0.00    +0.132 C 
BRANCH   6  22
ATOM     22  C   UNL     1      -6.030 -10.451  19.181  0.00  0.00    +0.113 C 
BRANCH  22  26
ATOM     26  C   UNL     1      -7.170 -11.434  19.441  0.00  0.00    +0.074 C 
BRANCH  26  34
ATOM      9  N   UNL     1      -9.460 -11.025  20.163  0.00  0.00    -0.260 NA
ATOM     34  C   UNL     1      -8.533 -10.831  19.200  0.00  0.00    +0.043 A 
ATOM     37  C   UNL     1      -8.763 -10.122  18.031  0.00  0.00    +0.023 A 
ATOM     38  C   UNL     1     -10.028  -9.578  17.841  0.00  0.00    +0.003 A 
ATOM     39  C   UNL     1     -10.678 -10.483  19.942  0.00  0.00    +0.111 A 
ATOM     40  C   UNL     1     -11.010  -9.757  18.810  0.00  0.00    +0.020 A 
ENDBRANCH  26  34
ENDBRANCH  22  26
ENDBRANCH   6  22
ENDBRANCH  15  18
ENDBRANCH  10  15
TORSDOF 6
ENDMDL
MODEL 6
REMARK VINA RESULT:      -6.6     13.977     15.914
REMARK  Name = 71694340
REMARK  7 active torsions:
REMARK  status: ('A' for Active; 'I' for Inactive)
REMARK    1  A    between atoms: N_6  and  C_22
REMARK    2  A    between atoms: N_6  and  C_24
REMARK    3  A    between atoms: N_8  and  C_28
REMARK    4  A    between atoms: C_10  and  C_15
REMARK    5  A    between atoms: C_15  and  C_18
REMARK    6  A    between atoms: C_22  and  C_26
REMARK    7  A    between atoms: C_26  and  C_34
REMARK                            x       y       z     vdW  Elec       q    Type
REMARK                         _______ _______ _______ _____ _____    ______ ____
ROOT
ATOM      1  O   UNL     1      16.636  -1.261  31.533  0.00  0.00    -0.274 OA
ATOM      3  O   UNL     1      15.372  -6.332  30.612  0.00  0.00    -0.488 OA
ATOM      5  N   UNL     1      18.030  -2.880  30.642  0.00  0.00    -0.300 N 
ATOM      7  N   UNL     1      15.994  -4.317  32.616  0.00  0.00    -0.304 NA
ATOM     10  C   UNL     1      18.040  -4.242  28.065  0.00  0.00    +0.008 C 
ATOM     11  C   UNL     1      17.787  -4.971  29.418  0.00  0.00    +0.032 C 
ATOM     12  C   UNL     1      17.658  -2.749  28.214  0.00  0.00    +0.023 C 
ATOM     13  C   UNL     1      18.525  -4.259  30.569  0.00  0.00    +0.115 C 
ATOM     14  C   UNL     1      18.306  -2.094  29.437  0.00  0.00    +0.108 C 
ATOM     16  C   UNL     1      18.102  -6.442  29.394  0.00  0.00    -0.023 C 
ATOM     17  C   UNL     1      17.171  -2.373  31.618  0.00  0.00    +0.229 C 
ATOM     19  C   UNL     1      17.286  -7.483  29.632  0.00  0.00    +0.010 C 
ATOM     20  C   UNL     1      16.907  -3.204  32.859  0.00  0.00    +0.178 C 
ATOM     21  C   UNL     1      15.838  -7.550  30.045  0.00  0.00    +0.256 C 
ATOM     23  C   UNL     1      14.723  -3.952  31.997  0.00  0.00    +0.120 C 
ATOM     25  C   UNL     1      13.782  -5.141  31.896  0.00  0.00    +0.010 A 
ATOM     27  C   UNL     1      14.125  -6.315  31.187  0.00  0.00    +0.125 A 
ATOM     28  C   UNL     1      11.616  -6.116  32.422  0.00  0.00    +0.030 A 
ATOM     29  C   UNL     1      12.520  -5.058  32.507  0.00  0.00    +0.031 A 
ATOM     32  C   UNL     1      13.207  -7.367  31.101  0.00  0.00    +0.048 A 
ATOM     33  C   UNL     1      11.958  -7.266  31.719  0.00  0.00    +0.027 A 
ATOM     41  H   UNL     1      15.817  -4.789  33.504  0.00  0.00    +0.123 HD
ENDROOT
BRANCH  28   8
ATOM      4  O   UNL     1       7.983  -5.829  34.519  0.00  0.00    -0.377 OA
ATOM      8  N   UNL     1      10.364  -6.018  33.037  0.00  0.00    -0.326 N 
ATOM     30  C   UNL     1       9.670  -7.231  33.482  0.00  0.00    +0.133 C 
ATOM     31  C   UNL     1      10.067  -4.807  33.816  0.00  0.00    +0.133 C 
ATOM     35  C   UNL     1       8.183  -6.943  33.648  0.00  0.00    +0.178 C 
ATOM     36  C   UNL     1       8.559  -4.647  33.964  0.00  0.00    +0.178 C 
ENDBRANCH  28   8
BRANCH  10  15
ATOM     15  C   UNL     1      19.467  -4.381  27.521  0.00  0.00    +0.100 C 
BRANCH  15  18
ATOM      2  O   UNL     1      19.120  -6.268  26.083  0.00  0.00    -0.276 OA
ATOM      6  N   UNL     1      19.995  -4.353  25.108  0.00  0.00    -0.304 N 
ATOM     18  C   UNL     1      19.504  -5.099  26.185  0.00  0.00    +0.216 C 
ATOM     24  C   UNL     1      20.443  -2.975  25.252  0.00  0.00    +0.132 C 
BRANCH   6  22
ATOM     22  C   UNL     1      20.095  -4.901  23.757  0.00  0.00    +0.113 C 
BRANCH  22  26
ATOM     26  C   UNL     1      18.728  -5.148  23.122  0.00  0.00    +0.074 C 
BRANCH  26  34
ATOM      9  N   UNL     1      18.280  -2.877  22.365  0.00  0.00    -0.260 NA
ATOM     34  C   UNL     1      17.853  -3.919  23.112  0.00  0.00    +0.043 A 
ATOM     37  C   UNL     1      16.680  -3.916  23.850  0.00  0.00    +0.023 A 
ATOM     38  C   UNL     1      15.895  -2.769  23.818  0.00  0.00    +0.003 A 
ATOM     39  C   UNL     1      17.491  -1.779  22.360  0.00  0.00    +0.111 A 
ATOM     40  C   UNL     1      16.301  -1.676  23.061  0.00  0.00    +0.020 A 
ENDBRANCH  26  34
ENDBRANCH  22  26
ENDBRANCH   6  22
ENDBRANCH  15  18
ENDBRANCH  10  15
TORSDOF 6
ENDMDL
MODEL 7
REMARK VINA RESULT:      -6.6     16.231     20.354
REMARK  Name = 71694340
REMARK  7 active torsions:
REMARK  status: ('A' for Active; 'I' for Inactive)
REMARK    1  A    between atoms: N_6  and  C_22
REMARK    2  A    between atoms: N_6  and  C_24
REMARK    3  A    between atoms: N_8  and  C_28
REMARK    4  A    between atoms: C_10  and  C_15
REMARK    5  A    between atoms: C_15  and  C_18
REMARK    6  A    between atoms: C_22  and  C_26
REMARK    7  A    between atoms: C_26  and  C_34
REMARK                            x       y       z     vdW  Elec       q    Type
REMARK                         _______ _______ _______ _____ _____    ______ ____
ROOT
ATOM      1  O   UNL     1      11.127   5.857   7.717  0.00  0.00    -0.274 OA
ATOM      3  O   UNL     1       8.690  10.248   6.003  0.00  0.00    -0.488 OA
ATOM      5  N   UNL     1       9.790   6.037   5.836  0.00  0.00    -0.300 N 
ATOM      7  N   UNL     1       8.738   8.124   7.990  0.00  0.00    -0.304 NA
ATOM     10  C   UNL     1      10.193   7.371   3.276  0.00  0.00    +0.008 C 
ATOM     11  C   UNL     1       9.094   7.791   4.298  0.00  0.00    +0.032 C 
ATOM     12  C   UNL     1      11.340   6.657   4.031  0.00  0.00    +0.023 C 
ATOM     13  C   UNL     1       8.626   6.579   5.126  0.00  0.00    +0.115 C 
ATOM     14  C   UNL     1      10.838   5.536   4.944  0.00  0.00    +0.108 C 
ATOM     16  C   UNL     1       7.928   8.518   3.685  0.00  0.00    -0.023 C 
ATOM     17  C   UNL     1      10.047   6.169   7.201  0.00  0.00    +0.229 C 
ATOM     19  C   UNL     1       7.473   9.754   3.948  0.00  0.00    +0.010 C 
ATOM     20  C   UNL     1       8.942   6.683   8.104  0.00  0.00    +0.178 C 
ATOM     21  C   UNL     1       7.913  10.796   4.945  0.00  0.00    +0.256 C 
ATOM     23  C   UNL     1       9.936   8.937   8.179  0.00  0.00    +0.120 C 
ATOM     25  C   UNL     1       9.617  10.423   8.173  0.00  0.00    +0.010 A 
ATOM     27  C   UNL     1       9.005  11.057   7.067  0.00  0.00    +0.125 A 
ATOM     28  C   UNL     1       9.713  12.564   9.323  0.00  0.00    +0.030 A 
ATOM     29  C   UNL     1       9.966  11.194   9.294  0.00  0.00    +0.031 A 
ATOM     32  C   UNL     1       8.763  12.435   7.105  0.00  0.00    +0.048 A 
ATOM     33  C   UNL     1       9.114  13.183   8.231  0.00  0.00    +0.027 A 
ATOM     41  H   UNL     1       8.027   8.404   8.668  0.00  0.00    +0.123 HD
ENDROOT
BRANCH  28   8
ATOM      4  O   UNL     1      10.792  14.587  12.847  0.00  0.00    -0.377 OA
ATOM      8  N   UNL     1      10.066  13.317  10.448  0.00  0.00    -0.326 N 
ATOM     30  C   UNL     1       9.040  13.698  11.424  0.00  0.00    +0.133 C 
ATOM     31  C   UNL     1      11.419  13.153  10.995  0.00  0.00    +0.133 C 
ATOM     35  C   UNL     1       9.529  14.881  12.251  0.00  0.00    +0.178 C 
ATOM     36  C   UNL     1      11.783  14.365  11.844  0.00  0.00    +0.178 C 
ENDBRANCH  28   8
BRANCH  10  15
ATOM     15  C   UNL     1       9.689   6.503   2.117  0.00  0.00    +0.100 C 
BRANCH  15  18
ATOM      2  O   UNL     1      11.152   7.655   0.607  0.00  0.00    -0.276 OA
ATOM      6  N   UNL     1      10.719   5.423   0.149  0.00  0.00    -0.304 N 
ATOM     18  C   UNL     1      10.587   6.597   0.897  0.00  0.00    +0.216 C 
ATOM     24  C   UNL     1      10.041   4.185   0.511  0.00  0.00    +0.132 C 
BRANCH   6  22
ATOM     22  C   UNL     1      11.547   5.349  -1.053  0.00  0.00    +0.113 C 
BRANCH  22  26
ATOM     26  C   UNL     1      12.231   3.993  -1.211  0.00  0.00    +0.074 C 
BRANCH  26  34
ATOM      9  N   UNL     1      14.576   4.326  -1.780  0.00  0.00    -0.260 NA
ATOM     34  C   UNL     1      13.686   4.019  -0.810  0.00  0.00    +0.043 A 
ATOM     37  C   UNL     1      14.033   3.735   0.501  0.00  0.00    +0.023 A 
ATOM     38  C   UNL     1      15.382   3.769   0.838  0.00  0.00    +0.003 A 
ATOM     39  C   UNL     1      15.878   4.348  -1.415  0.00  0.00    +0.111 A 
ATOM     40  C   UNL     1      16.328   4.081  -0.132  0.00  0.00    +0.020 A 
ENDBRANCH  26  34
ENDBRANCH  22  26
ENDBRANCH   6  22
ENDBRANCH  15  18
ENDBRANCH  10  15
TORSDOF 6
ENDMDL
MODEL 8
REMARK VINA RESULT:      -6.6     31.219     35.243
REMARK  Name = 71694340
REMARK  7 active torsions:
REMARK  status: ('A' for Active; 'I' for Inactive)
REMARK    1  A    between atoms: N_6  and  C_22
REMARK    2  A    between atoms: N_6  and  C_24
REMARK    3  A    between atoms: N_8  and  C_28
REMARK    4  A    between atoms: C_10  and  C_15
REMARK    5  A    between atoms: C_15  and  C_18
REMARK    6  A    between atoms: C_22  and  C_26
REMARK    7  A    between atoms: C_26  and  C_34
REMARK                            x       y       z     vdW  Elec       q    Type
REMARK                         _______ _______ _______ _____ _____    ______ ____
ROOT
ATOM      1  O   UNL     1     -11.304  -8.881  15.668  0.00  0.00    -0.274 OA
ATOM      3  O   UNL     1      -8.858 -11.929  19.258  0.00  0.00    -0.488 OA
ATOM      5  N   UNL     1      -9.018  -9.080  15.966  0.00  0.00    -0.300 N 
ATOM      7  N   UNL     1     -10.415  -9.516  18.787  0.00  0.00    -0.304 NA
ATOM     10  C   UNL     1      -7.164 -11.265  15.428  0.00  0.00    +0.008 C 
ATOM     11  C   UNL     1      -7.469 -10.732  16.861  0.00  0.00    +0.032 C 
ATOM     12  C   UNL     1      -8.364 -10.947  14.504  0.00  0.00    +0.023 C 
ATOM     13  C   UNL     1      -7.835  -9.236  16.820  0.00  0.00    +0.115 C 
ATOM     14  C   UNL     1      -8.790  -9.478  14.574  0.00  0.00    +0.108 C 
ATOM     16  C   UNL     1      -6.379 -11.001  17.863  0.00  0.00    -0.023 C 
ATOM     17  C   UNL     1     -10.315  -8.818  16.408  0.00  0.00    +0.229 C 
ATOM     19  C   UNL     1      -6.442 -11.700  19.009  0.00  0.00    +0.010 C 
ATOM     20  C   UNL     1     -10.522  -8.402  17.851  0.00  0.00    +0.178 C 
ATOM     21  C   UNL     1      -7.588 -12.391  19.702  0.00  0.00    +0.256 C 
ATOM     23  C   UNL     1     -11.268 -10.663  18.486  0.00  0.00    +0.120 C 
ATOM     25  C   UNL     1     -11.194 -11.723  19.573  0.00  0.00    +0.010 A 
ATOM     27  C   UNL     1      -9.978 -12.350  19.931  0.00  0.00    +0.125 A 
ATOM     28  C   UNL     1     -12.360 -13.093  21.210  0.00  0.00    +0.030 A 
ATOM     29  C   UNL     1     -12.377 -12.109  20.223  0.00  0.00    +0.031 A 
ATOM     32  C   UNL     1      -9.974 -13.343  20.918  0.00  0.00    +0.048 A 
ATOM     33  C   UNL     1     -11.162 -13.709  21.555  0.00  0.00    +0.027 A 
ATOM     41  H   UNL     1     -10.626  -9.173  19.725  0.00  0.00    +0.123 HD
ENDROOT
BRANCH  28   8
ATOM      4  O   UNL     1     -16.011 -13.942  23.114  0.00  0.00    -0.377 OA
ATOM      8  N   UNL     1     -13.548 -13.465  21.848  0.00  0.00    -0.326 N 
ATOM     30  C   UNL     1     -13.675 -13.315  23.301  0.00  0.00    +0.133 C 
ATOM     31  C   UNL     1     -14.804 -13.350  21.095  0.00  0.00    +0.133 C 
ATOM     35  C   UNL     1     -14.797 -14.209  23.816  0.00  0.00    +0.178 C 
ATOM     36  C   UNL     1     -15.866 -14.243  21.726  0.00  0.00    +0.178 C 
ENDBRANCH  28   8
BRANCH  10  15
ATOM     15  C   UNL     1      -5.859 -10.742  14.816  0.00  0.00    +0.100 C 
BRANCH  15  18
ATOM      2  O   UNL     1      -5.563 -12.681  13.438  0.00  0.00    -0.276 OA
ATOM      6  N   UNL     1      -3.676 -11.855  14.504  0.00  0.00    -0.304 N 
ATOM     18  C   UNL     1      -5.038 -11.851  14.183  0.00  0.00    +0.216 C 
ATOM     24  C   UNL     1      -3.078 -10.863  15.388  0.00  0.00    +0.132 C 
BRANCH   6  22
ATOM     22  C   UNL     1      -2.751 -12.855  13.976  0.00  0.00    +0.113 C 
BRANCH  22  26
ATOM     26  C   UNL     1      -1.789 -12.276  12.942  0.00  0.00    +0.074 C 
BRANCH  26  34
ATOM      9  N   UNL     1      -3.290 -12.328  11.024  0.00  0.00    -0.260 NA
ATOM     34  C   UNL     1      -2.496 -11.569  11.811  0.00  0.00    +0.043 A 
ATOM     37  C   UNL     1      -2.304 -10.208  11.639  0.00  0.00    +0.023 A 
ATOM     38  C   UNL     1      -2.971  -9.585  10.589  0.00  0.00    +0.003 A 
ATOM     39  C   UNL     1      -3.921 -11.689  10.014  0.00  0.00    +0.111 A 
ATOM     40  C   UNL     1      -3.797 -10.333   9.757  0.00  0.00    +0.020 A 
ENDBRANCH  26  34
ENDBRANCH  22  26
ENDBRANCH   6  22
ENDBRANCH  15  18
ENDBRANCH  10  15
TORSDOF 6
ENDMDL
MODEL 9
REMARK VINA RESULT:      -6.5     33.433     35.859
REMARK  Name = 71694340
REMARK  7 active torsions:
REMARK  status: ('A' for Active; 'I' for Inactive)
REMARK    1  A    between atoms: N_6  and  C_22
REMARK    2  A    between atoms: N_6  and  C_24
REMARK    3  A    between atoms: N_8  and  C_28
REMARK    4  A    between atoms: C_10  and  C_15
REMARK    5  A    between atoms: C_15  and  C_18
REMARK    6  A    between atoms: C_22  and  C_26
REMARK    7  A    between atoms: C_26  and  C_34
REMARK                            x       y       z     vdW  Elec       q    Type
REMARK                         _______ _______ _______ _____ _____    ______ ____
ROOT
ATOM      1  O   UNL     1      -0.531 -16.318   6.398  0.00  0.00    -0.274 OA
ATOM      3  O   UNL     1      -3.996 -12.956   4.195  0.00  0.00    -0.488 OA
ATOM      5  N   UNL     1      -1.187 -16.286   4.179  0.00  0.00    -0.300 N 
ATOM      7  N   UNL     1      -3.626 -15.257   5.937  0.00  0.00    -0.304 NA
ATOM     10  C   UNL     1      -0.660 -14.405   2.015  0.00  0.00    +0.008 C 
ATOM     11  C   UNL     1      -2.081 -14.660   2.602  0.00  0.00    +0.032 C 
ATOM     12  C   UNL     1       0.401 -14.759   3.085  0.00  0.00    +0.023 C 
ATOM     13  C   UNL     1      -2.201 -16.102   3.134  0.00  0.00    +0.115 C 
ATOM     14  C   UNL     1       0.187 -16.149   3.690  0.00  0.00    +0.108 C 
ATOM     16  C   UNL     1      -3.206 -14.331   1.658  0.00  0.00    -0.023 C 
ATOM     17  C   UNL     1      -1.431 -16.348   5.551  0.00  0.00    +0.229 C 
ATOM     19  C   UNL     1      -4.206 -13.448   1.815  0.00  0.00    +0.010 C 
ATOM     20  C   UNL     1      -2.863 -16.497   6.030  0.00  0.00    +0.178 C 
ATOM     21  C   UNL     1      -4.579 -12.547   2.965  0.00  0.00    +0.256 C 
ATOM     23  C   UNL     1      -3.014 -14.102   6.589  0.00  0.00    +0.120 C 
ATOM     25  C   UNL     1      -3.927 -12.887   6.559  0.00  0.00    +0.010 A 
ATOM     27  C   UNL     1      -4.394 -12.325   5.348  0.00  0.00    +0.125 A 
ATOM     28  C   UNL     1      -5.115 -11.160   7.794  0.00  0.00    +0.030 A 
ATOM     29  C   UNL     1      -4.297 -12.289   7.775  0.00  0.00    +0.031 A 
ATOM     32  C   UNL     1      -5.208 -11.187   5.379  0.00  0.00    +0.048 A 
ATOM     33  C   UNL     1      -5.567 -10.611   6.600  0.00  0.00    +0.027 A 
ATOM     41  H   UNL     1      -4.554 -15.418   6.332  0.00  0.00    +0.123 HD
ENDROOT
BRANCH  28   8
ATOM      4  O   UNL     1      -6.008  -9.210  11.410  0.00  0.00    -0.377 OA
ATOM      8  N   UNL     1      -5.475 -10.578   9.014  0.00  0.00    -0.326 N 
ATOM     30  C   UNL     1      -4.693 -10.865  10.221  0.00  0.00    +0.133 C 
ATOM     31  C   UNL     1      -6.123  -9.260   8.988  0.00  0.00    +0.133 C 
ATOM     35  C   UNL     1      -5.522 -10.551  11.460  0.00  0.00    +0.178 C 
ATOM     36  C   UNL     1      -6.878  -9.031  10.292  0.00  0.00    +0.178 C 
ENDBRANCH  28   8
BRANCH  10  15
ATOM     15  C   UNL     1      -0.369 -15.142   0.703  0.00  0.00    +0.100 C 
BRANCH  15  18
ATOM      2  O   UNL     1      -0.406 -13.297  -0.827  0.00  0.00    -0.276 OA
ATOM      6  N   UNL     1       1.561 -14.521  -0.709  0.00  0.00    -0.304 N 
ATOM     18  C   UNL     1       0.242 -14.229  -0.345  0.00  0.00    +0.216 C 
ATOM     24  C   UNL     1       2.306 -15.629  -0.126  0.00  0.00    +0.132 C 
BRANCH   6  22
ATOM     22  C   UNL     1       2.290 -13.737  -1.703  0.00  0.00    +0.113 C 
BRANCH  22  26
ATOM     26  C   UNL     1       2.176 -14.322  -3.110  0.00  0.00    +0.074 C 
BRANCH  26  34
ATOM      9  N   UNL     1       2.703 -13.586  -5.371  0.00  0.00    -0.260 NA
ATOM     34  C   UNL     1       2.139 -13.265  -4.185  0.00  0.00    +0.043 A 
ATOM     37  C   UNL     1       1.543 -12.043  -3.915  0.00  0.00    +0.023 A 
ATOM     38  C   UNL     1       1.524 -11.091  -4.928  0.00  0.00    +0.003 A 
ATOM     39  C   UNL     1       2.666 -12.635  -6.330  0.00  0.00    +0.111 A 
ATOM     40  C   UNL     1       2.094 -11.384  -6.161  0.00  0.00    +0.020 A 
ENDBRANCH  26  34
ENDBRANCH  22  26
ENDBRANCH   6  22
ENDBRANCH  15  18
ENDBRANCH  10  15
TORSDOF 6
ENDMDL
MODEL 10
REMARK VINA RESULT:      -6.4     31.112     36.877
REMARK  Name = 71694340
REMARK  7 active torsions:
REMARK  status: ('A' for Active; 'I' for Inactive)
REMARK    1  A    between atoms: N_6  and  C_22
REMARK    2  A    between atoms: N_6  and  C_24
REMARK    3  A    between atoms: N_8  and  C_28
REMARK    4  A    between atoms: C_10  and  C_15
REMARK    5  A    between atoms: C_15  and  C_18
REMARK    6  A    between atoms: C_22  and  C_26
REMARK    7  A    between atoms: C_26  and  C_34
REMARK                            x       y       z     vdW  Elec       q    Type
REMARK                         _______ _______ _______ _____ _____    ______ ____
ROOT
ATOM      1  O   UNL     1     -11.459  -9.862  10.763  0.00  0.00    -0.274 OA
ATOM      3  O   UNL     1      -9.656  -8.685  15.613  0.00  0.00    -0.488 OA
ATOM      5  N   UNL     1     -12.627  -8.757  12.427  0.00  0.00    -0.300 N 
ATOM      7  N   UNL     1     -10.605 -10.773  13.823  0.00  0.00    -0.304 NA
ATOM     10  C   UNL     1     -12.329  -6.096  13.581  0.00  0.00    +0.008 C 
ATOM     11  C   UNL     1     -12.101  -7.410  14.387  0.00  0.00    +0.032 C 
ATOM     12  C   UNL     1     -12.103  -6.379  12.076  0.00  0.00    +0.023 C 
ATOM     13  C   UNL     1     -12.982  -8.548  13.836  0.00  0.00    +0.115 C 
ATOM     14  C   UNL     1     -12.893  -7.592  11.579  0.00  0.00    +0.108 C 
ATOM     16  C   UNL     1     -12.273  -7.258  15.874  0.00  0.00    -0.023 C 
ATOM     17  C   UNL     1     -11.890  -9.828  11.922  0.00  0.00    +0.229 C 
ATOM     19  C   UNL     1     -11.379  -7.483  16.852  0.00  0.00    +0.010 C 
ATOM     20  C   UNL     1     -11.634 -11.024  12.819  0.00  0.00    +0.178 C 
ATOM     21  C   UNL     1      -9.963  -7.999  16.820  0.00  0.00    +0.256 C 
ATOM     23  C   UNL     1      -9.334 -10.280  13.298  0.00  0.00    +0.120 C 
ATOM     25  C   UNL     1      -8.279 -10.167  14.386  0.00  0.00    +0.010 A 
ATOM     27  C   UNL     1      -8.459  -9.353  15.528  0.00  0.00    +0.125 A 
ATOM     28  C   UNL     1      -6.072 -10.786  15.200  0.00  0.00    +0.030 A 
ATOM     29  C   UNL     1      -7.076 -10.877  14.238  0.00  0.00    +0.031 A 
ATOM     32  C   UNL     1      -7.441  -9.263  16.483  0.00  0.00    +0.048 A 
ATOM     33  C   UNL     1      -6.254  -9.980  16.318  0.00  0.00    +0.027 A 
ATOM     41  H   UNL     1     -10.445 -11.636  14.344  0.00  0.00    +0.123 HD
ENDROOT
BRANCH  28   8
ATOM      4  O   UNL     1      -2.477 -12.833  14.449  0.00  0.00    -0.377 OA
ATOM      8  N   UNL     1      -4.881 -11.500  15.037  0.00  0.00    -0.326 N 
ATOM     30  C   UNL     1      -4.903 -12.829  14.417  0.00  0.00    +0.133 C 
ATOM     31  C   UNL     1      -3.638 -10.741  14.843  0.00  0.00    +0.133 C 
ATOM     35  C   UNL     1      -3.638 -13.593  14.788  0.00  0.00    +0.178 C 
ATOM     36  C   UNL     1      -2.440 -11.615  15.192  0.00  0.00    +0.178 C 
ENDBRANCH  28   8
BRANCH  10  15
ATOM     15  C   UNL     1     -13.695  -5.436  13.805  0.00  0.00    +0.100 C 
BRANCH  15  18
ATOM      2  O   UNL     1     -13.194  -3.218  13.048  0.00  0.00    -0.276 OA
ATOM      6  N   UNL     1     -14.920  -4.329  11.968  0.00  0.00    -0.304 N 
ATOM     18  C   UNL     1     -13.898  -4.222  12.918  0.00  0.00    +0.216 C 
ATOM     24  C   UNL     1     -15.740  -5.526  11.834  0.00  0.00    +0.132 C 
BRANCH   6  22
ATOM     22  C   UNL     1     -15.242  -3.249  11.040  0.00  0.00    +0.113 C 
BRANCH  22  26
ATOM     26  C   UNL     1     -15.000  -3.636   9.582  0.00  0.00    +0.074 C 
BRANCH  26  34
ATOM      9  N   UNL     1     -13.395  -5.274   8.762  0.00  0.00    -0.260 NA
ATOM     34  C   UNL     1     -13.575  -4.053   9.314  0.00  0.00    +0.043 A 
ATOM     37  C   UNL     1     -12.543  -3.187   9.636  0.00  0.00    +0.023 A 
ATOM     38  C   UNL     1     -11.241  -3.600   9.374  0.00  0.00    +0.003 A 
ATOM     39  C   UNL     1     -12.116  -5.642   8.523  0.00  0.00    +0.111 A 
ATOM     40  C   UNL     1     -11.016  -4.850   8.807  0.00  0.00    +0.020 A 
ENDBRANCH  26  34
ENDBRANCH  22  26
ENDBRANCH   6  22
ENDBRANCH  15  18
ENDBRANCH  10  15
TORSDOF 6
ENDMDL
