MODEL 1
REMARK VINA RESULT:      -6.2      0.000      0.000
REMARK  Name = 28962369
REMARK  9 active torsions:
REMARK  status: ('A' for Active; 'I' for Inactive)
REMARK    1  A    between atoms: S_1  and  N_9
REMARK    2  A    between atoms: S_1  and  C_22
REMARK    3  A    between atoms: O_4  and  C_12
REMARK    4  A    between atoms: O_5  and  C_20
REMARK    5  A    between atoms: N_8  and  C_10
REMARK    6  A    between atoms: N_9  and  C_19
REMARK    7  A    between atoms: C_11  and  C_19
REMARK    8  A    between atoms: C_13  and  C_20
REMARK    9  A    between atoms: C_16  and  C_21
REMARK                            x       y       z     vdW  Elec       q    Type
REMARK                         _______ _______ _______ _____ _____    ______ ____
ROOT
ATOM      3  O   UNL     1      10.972   8.038  20.178  0.00  0.00    -0.366 OA
ATOM     10  C   UNL     1      10.855   9.709  21.870  0.00  0.00    +0.118 C 
ATOM     11  C   UNL     1      11.157   9.455  20.387  0.00  0.00    +0.154 C 
ATOM     12  C   UNL     1      11.157   8.365  22.516  0.00  0.00    +0.165 C 
ATOM     13  C   UNL     1      10.650   7.415  21.437  0.00  0.00    +0.174 C 
ENDROOT
BRANCH  10   8
ATOM      8  N   UNL     1      11.520  10.850  22.473  0.00  0.00    -0.295 NA
ATOM     14  C   UNL     1      11.218  10.920  23.910  0.00  0.00    +0.085 C 
ATOM     15  C   UNL     1      11.134  12.091  21.790  0.00  0.00    +0.085 C 
ATOM     16  C   UNL     1      11.621  13.417  23.888  0.00  0.00    -0.012 C 
ATOM     17  C   UNL     1      11.954  12.086  24.573  0.00  0.00    +0.018 C 
ATOM     18  C   UNL     1      11.867  13.298  22.380  0.00  0.00    +0.018 C 
ATOM     21  C   UNL     1      12.433  14.560  24.489  0.00  0.00    +0.007 C 
ENDBRANCH  10   8
BRANCH  12   4
ATOM      4  O   UNL     1      12.553   8.186  22.717  0.00  0.00    -0.388 OA
ATOM     26  H   UNL     1      12.992   8.307  21.858  0.00  0.00    +0.210 HD
ENDBRANCH  12   4
BRANCH  11  19
ATOM     19  C   UNL     1      12.562   9.803  19.905  0.00  0.00    +0.139 C 
BRANCH  19   9
ATOM      9  N   UNL     1      13.430   8.620  20.037  0.00  0.00    -0.187 NA
ATOM     27  H   UNL     1      13.984   8.615  20.904  0.00  0.00    +0.148 HD
BRANCH   9   1
ATOM      1  S   UNL     1      14.172   7.947  18.660  0.00  0.00    +0.065 S 
ATOM      6  O   UNL     1      14.619   9.015  17.786  0.00  0.00    -0.153 OA
ATOM      7  O   UNL     1      13.334   6.884  18.142  0.00  0.00    -0.153 OA
BRANCH   1  22
ATOM      2  S   UNL     1      15.927   7.616  20.985  0.00  0.00    -0.077 S 
ATOM     22  C   UNL     1      15.604   7.182  19.361  0.00  0.00    +0.142 A 
ATOM     23  C   UNL     1      16.533   6.293  18.868  0.00  0.00    +0.036 A 
ATOM     24  C   UNL     1      17.525   5.964  19.838  0.00  0.00    +0.010 A 
ATOM     25  C   UNL     1      17.315   6.614  21.033  0.00  0.00    +0.047 A 
ENDBRANCH   1  22
ENDBRANCH   9   1
ENDBRANCH  19   9
ENDBRANCH  11  19
BRANCH  13  20
ATOM     20  C   UNL     1      11.240   6.017  21.469  0.00  0.00    +0.190 C 
BRANCH  20   5
ATOM      5  O   UNL     1      12.588   6.078  21.031  0.00  0.00    -0.392 OA
ATOM     28  H   UNL     1      12.963   5.186  21.135  0.00  0.00    +0.210 HD
ENDBRANCH  20   5
ENDBRANCH  13  20
TORSDOF 8
ENDMDL
MODEL 2
REMARK VINA RESULT:      -6.2     29.396     30.473
REMARK  Name = 28962369
REMARK  9 active torsions:
REMARK  status: ('A' for Active; 'I' for Inactive)
REMARK    1  A    between atoms: S_1  and  N_9
REMARK    2  A    between atoms: S_1  and  C_22
REMARK    3  A    between atoms: O_4  and  C_12
REMARK    4  A    between atoms: O_5  and  C_20
REMARK    5  A    between atoms: N_8  and  C_10
REMARK    6  A    between atoms: N_9  and  C_19
REMARK    7  A    between atoms: C_11  and  C_19
REMARK    8  A    between atoms: C_13  and  C_20
REMARK    9  A    between atoms: C_16  and  C_21
REMARK                            x       y       z     vdW  Elec       q    Type
REMARK                         _______ _______ _______ _____ _____    ______ ____
ROOT
ATOM      3  O   UNL     1     -15.584  -0.144  29.486  0.00  0.00    -0.366 OA
ATOM     10  C   UNL     1     -15.108   1.589  31.047  0.00  0.00    +0.118 C 
ATOM     11  C   UNL     1     -16.073   1.137  29.943  0.00  0.00    +0.154 C 
ATOM     12  C   UNL     1     -13.816   0.870  30.690  0.00  0.00    +0.165 C 
ATOM     13  C   UNL     1     -14.364  -0.459  30.185  0.00  0.00    +0.174 C 
ENDROOT
BRANCH  10   8
ATOM      8  N   UNL     1     -14.986   3.023  31.245  0.00  0.00    -0.295 NA
ATOM     14  C   UNL     1     -13.921   3.319  32.214  0.00  0.00    +0.085 C 
ATOM     15  C   UNL     1     -16.268   3.594  31.676  0.00  0.00    +0.085 C 
ATOM     16  C   UNL     1     -15.056   5.498  32.815  0.00  0.00    -0.012 C 
ATOM     17  C   UNL     1     -13.743   4.828  32.394  0.00  0.00    +0.018 C 
ATOM     18  C   UNL     1     -16.171   5.112  31.837  0.00  0.00    +0.018 C 
ATOM     21  C   UNL     1     -14.896   7.013  32.896  0.00  0.00    +0.007 C 
ENDBRANCH  10   8
BRANCH  12   4
ATOM      4  O   UNL     1     -13.116   1.544  29.651  0.00  0.00    -0.388 OA
ATOM     26  H   UNL     1     -12.951   2.454  29.950  0.00  0.00    +0.210 HD
ENDBRANCH  12   4
BRANCH  11  19
ATOM     19  C   UNL     1     -16.183   2.040  28.719  0.00  0.00    +0.139 C 
BRANCH  19   9
ATOM      9  N   UNL     1     -15.973   1.240  27.500  0.00  0.00    -0.187 NA
ATOM     27  H   UNL     1     -14.985   1.170  27.223  0.00  0.00    +0.148 HD
BRANCH   9   1
ATOM      1  S   UNL     1     -17.112   1.294  26.236  0.00  0.00    +0.065 S 
ATOM      6  O   UNL     1     -18.446   1.401  26.796  0.00  0.00    -0.153 OA
ATOM      7  O   UNL     1     -16.806   0.250  25.277  0.00  0.00    -0.153 OA
BRANCH   1  22
ATOM      2  S   UNL     1     -17.827   4.101  25.785  0.00  0.00    -0.077 S 
ATOM     22  C   UNL     1     -16.720   2.836  25.463  0.00  0.00    +0.142 A 
ATOM     23  C   UNL     1     -15.693   3.243  24.641  0.00  0.00    +0.036 A 
ATOM     24  C   UNL     1     -15.816   4.614  24.270  0.00  0.00    +0.010 A 
ATOM     25  C   UNL     1     -16.933   5.200  24.823  0.00  0.00    +0.047 A 
ENDBRANCH   1  22
ENDBRANCH   9   1
ENDBRANCH  19   9
ENDBRANCH  11  19
BRANCH  13  20
ATOM     20  C   UNL     1     -13.445  -1.236  29.261  0.00  0.00    +0.190 C 
BRANCH  20   5
ATOM      5  O   UNL     1     -12.168  -1.345  29.869  0.00  0.00    -0.392 OA
ATOM     28  H   UNL     1     -11.719  -0.491  29.748  0.00  0.00    +0.210 HD
ENDBRANCH  20   5
ENDBRANCH  13  20
TORSDOF 8
ENDMDL
MODEL 3
REMARK VINA RESULT:      -5.9      3.349      6.766
REMARK  Name = 28962369
REMARK  9 active torsions:
REMARK  status: ('A' for Active; 'I' for Inactive)
REMARK    1  A    between atoms: S_1  and  N_9
REMARK    2  A    between atoms: S_1  and  C_22
REMARK    3  A    between atoms: O_4  and  C_12
REMARK    4  A    between atoms: O_5  and  C_20
REMARK    5  A    between atoms: N_8  and  C_10
REMARK    6  A    between atoms: N_9  and  C_19
REMARK    7  A    between atoms: C_11  and  C_19
REMARK    8  A    between atoms: C_13  and  C_20
REMARK    9  A    between atoms: C_16  and  C_21
REMARK                            x       y       z     vdW  Elec       q    Type
REMARK                         _______ _______ _______ _____ _____    ______ ____
ROOT
ATOM      3  O   UNL     1      12.679   8.186  21.880  0.00  0.00    -0.366 OA
ATOM     10  C   UNL     1      13.526   8.460  19.672  0.00  0.00    +0.118 C 
ATOM     11  C   UNL     1      13.279   9.170  21.010  0.00  0.00    +0.154 C 
ATOM     12  C   UNL     1      12.478   7.356  19.672  0.00  0.00    +0.165 C 
ATOM     13  C   UNL     1      12.485   6.962  21.144  0.00  0.00    +0.174 C 
ENDROOT
BRANCH  10   8
ATOM      8  N   UNL     1      13.538   9.303  18.490  0.00  0.00    -0.295 NA
ATOM     14  C   UNL     1      13.538   8.481  17.272  0.00  0.00    +0.085 C 
ATOM     15  C   UNL     1      14.692  10.210  18.517  0.00  0.00    +0.085 C 
ATOM     16  C   UNL     1      14.660  10.352  15.992  0.00  0.00    -0.012 C 
ATOM     17  C   UNL     1      13.496   9.354  16.017  0.00  0.00    +0.018 C 
ATOM     18  C   UNL     1      14.689  11.144  17.304  0.00  0.00    +0.018 C 
ATOM     21  C   UNL     1      14.557  11.285  14.790  0.00  0.00    +0.007 C 
ENDBRANCH  10   8
BRANCH  12   4
ATOM      4  O   UNL     1      11.200   7.852  19.298  0.00  0.00    -0.388 OA
ATOM     26  H   UNL     1      10.608   7.746  20.062  0.00  0.00    +0.210 HD
ENDBRANCH  12   4
BRANCH  11  19
ATOM     19  C   UNL     1      12.346  10.376  20.982  0.00  0.00    +0.139 C 
BRANCH  19   9
ATOM      9  N   UNL     1      11.456  10.334  22.155  0.00  0.00    -0.187 NA
ATOM     27  H   UNL     1      10.467  10.191  21.911  0.00  0.00    +0.148 HD
BRANCH   9   1
ATOM      1  S   UNL     1      11.769  11.327  23.501  0.00  0.00    +0.065 S 
ATOM      6  O   UNL     1      13.186  11.636  23.551  0.00  0.00    -0.153 OA
ATOM      7  O   UNL     1      11.104  10.773  24.664  0.00  0.00    -0.153 OA
BRANCH   1  22
ATOM      2  S   UNL     1      10.267  13.681  24.394  0.00  0.00    -0.077 S 
ATOM     22  C   UNL     1      10.904  12.807  23.067  0.00  0.00    +0.142 A 
ATOM     23  C   UNL     1      10.628  13.418  21.864  0.00  0.00    +0.036 A 
ATOM     24  C   UNL     1       9.882  14.621  22.034  0.00  0.00    +0.010 A 
ATOM     25  C   UNL     1       9.618  14.882  23.361  0.00  0.00    +0.047 A 
ENDBRANCH   1  22
ENDBRANCH   9   1
ENDBRANCH  19   9
ENDBRANCH  11  19
BRANCH  13  20
ATOM     20  C   UNL     1      11.228   6.273  21.642  0.00  0.00    +0.190 C 
BRANCH  20   5
ATOM      5  O   UNL     1      10.995   5.118  20.853  0.00  0.00    -0.392 OA
ATOM     28  H   UNL     1      10.209   4.676  21.218  0.00  0.00    +0.210 HD
ENDBRANCH  20   5
ENDBRANCH  13  20
TORSDOF 8
ENDMDL
MODEL 4
REMARK VINA RESULT:      -5.9      2.924      5.506
REMARK  Name = 28962369
REMARK  9 active torsions:
REMARK  status: ('A' for Active; 'I' for Inactive)
REMARK    1  A    between atoms: S_1  and  N_9
REMARK    2  A    between atoms: S_1  and  C_22
REMARK    3  A    between atoms: O_4  and  C_12
REMARK    4  A    between atoms: O_5  and  C_20
REMARK    5  A    between atoms: N_8  and  C_10
REMARK    6  A    between atoms: N_9  and  C_19
REMARK    7  A    between atoms: C_11  and  C_19
REMARK    8  A    between atoms: C_13  and  C_20
REMARK    9  A    between atoms: C_16  and  C_21
REMARK                            x       y       z     vdW  Elec       q    Type
REMARK                         _______ _______ _______ _____ _____    ______ ____
ROOT
ATOM      3  O   UNL     1      12.165   9.414  21.252  0.00  0.00    -0.366 OA
ATOM     10  C   UNL     1      14.272   8.396  21.686  0.00  0.00    +0.118 C 
ATOM     11  C   UNL     1      13.582   9.611  21.053  0.00  0.00    +0.154 C 
ATOM     12  C   UNL     1      13.202   7.317  21.614  0.00  0.00    +0.165 C 
ATOM     13  C   UNL     1      11.952   8.142  21.895  0.00  0.00    +0.174 C 
ENDROOT
BRANCH  10   8
ATOM      8  N   UNL     1      15.562   8.028  21.129  0.00  0.00    -0.295 NA
ATOM     14  C   UNL     1      15.858   6.616  21.407  0.00  0.00    +0.085 C 
ATOM     15  C   UNL     1      16.617   8.904  21.652  0.00  0.00    +0.085 C 
ATOM     16  C   UNL     1      18.338   7.093  21.261  0.00  0.00    -0.012 C 
ATOM     17  C   UNL     1      17.190   6.197  20.781  0.00  0.00    +0.018 C 
ATOM     18  C   UNL     1      17.975   8.564  21.034  0.00  0.00    +0.018 C 
ATOM     21  C   UNL     1      19.643   6.734  20.557  0.00  0.00    +0.007 C 
ENDBRANCH  10   8
BRANCH  12   4
ATOM      4  O   UNL     1      13.132   6.739  20.317  0.00  0.00    -0.388 OA
ATOM     26  H   UNL     1      13.976   6.287  20.151  0.00  0.00    +0.210 HD
ENDBRANCH  12   4
BRANCH  11  19
ATOM     19  C   UNL     1      13.802   9.821  19.558  0.00  0.00    +0.139 C 
BRANCH  19   9
ATOM      9  N   UNL     1      12.537   9.587  18.840  0.00  0.00    -0.187 NA
ATOM     27  H   UNL     1      11.755   9.340  19.461  0.00  0.00    +0.148 HD
BRANCH   9   1
ATOM      1  S   UNL     1      12.549   8.849  17.306  0.00  0.00    +0.065 S 
ATOM      6  O   UNL     1      11.235   8.973  16.703  0.00  0.00    -0.153 OA
ATOM      7  O   UNL     1      13.182   7.549  17.410  0.00  0.00    -0.153 OA
BRANCH   1  22
ATOM      2  S   UNL     1      14.641   9.084  15.266  0.00  0.00    -0.077 S 
ATOM     22  C   UNL     1      13.660   9.894  16.411  0.00  0.00    +0.142 A 
ATOM     23  C   UNL     1      13.908  11.248  16.440  0.00  0.00    +0.036 A 
ATOM     24  C   UNL     1      14.919  11.627  15.508  0.00  0.00    +0.010 A 
ATOM     25  C   UNL     1      15.404  10.547  14.805  0.00  0.00    +0.047 A 
ENDBRANCH   1  22
ENDBRANCH   9   1
ENDBRANCH  19   9
ENDBRANCH  11  19
BRANCH  13  20
ATOM     20  C   UNL     1      10.649   7.543  21.400  0.00  0.00    +0.190 C 
BRANCH  20   5
ATOM      5  O   UNL     1      10.338   8.103  20.134  0.00  0.00    -0.392 OA
ATOM     28  H   UNL     1      11.148   8.528  19.802  0.00  0.00    +0.210 HD
ENDBRANCH  20   5
ENDBRANCH  13  20
TORSDOF 8
ENDMDL
MODEL 5
REMARK VINA RESULT:      -5.7      1.833      2.371
REMARK  Name = 28962369
REMARK  9 active torsions:
REMARK  status: ('A' for Active; 'I' for Inactive)
REMARK    1  A    between atoms: S_1  and  N_9
REMARK    2  A    between atoms: S_1  and  C_22
REMARK    3  A    between atoms: O_4  and  C_12
REMARK    4  A    between atoms: O_5  and  C_20
REMARK    5  A    between atoms: N_8  and  C_10
REMARK    6  A    between atoms: N_9  and  C_19
REMARK    7  A    between atoms: C_11  and  C_19
REMARK    8  A    between atoms: C_13  and  C_20
REMARK    9  A    between atoms: C_16  and  C_21
REMARK                            x       y       z     vdW  Elec       q    Type
REMARK                         _______ _______ _______ _____ _____    ______ ____
ROOT
ATOM      3  O   UNL     1      12.929   8.828  19.284  0.00  0.00    -0.366 OA
ATOM     10  C   UNL     1      11.680  10.071  20.884  0.00  0.00    +0.118 C 
ATOM     11  C   UNL     1      12.921  10.092  19.982  0.00  0.00    +0.154 C 
ATOM     12  C   UNL     1      11.451   8.585  21.117  0.00  0.00    +0.165 C 
ATOM     13  C   UNL     1      11.826   8.025  19.750  0.00  0.00    +0.174 C 
ENDROOT
BRANCH  10   8
ATOM      8  N   UNL     1      11.746  10.884  22.085  0.00  0.00    -0.295 NA
ATOM     14  C   UNL     1      10.877  10.327  23.131  0.00  0.00    +0.085 C 
ATOM     15  C   UNL     1      11.389  12.276  21.785  0.00  0.00    +0.085 C 
ATOM     16  C   UNL     1      10.644  12.619  24.178  0.00  0.00    -0.012 C 
ATOM     17  C   UNL     1      10.975  11.142  24.423  0.00  0.00    +0.018 C 
ATOM     18  C   UNL     1      11.505  13.158  23.030  0.00  0.00    +0.018 C 
ATOM     21  C   UNL     1      10.841  13.442  25.446  0.00  0.00    +0.007 C 
ENDBRANCH  10   8
BRANCH  12   4
ATOM      4  O   UNL     1      12.322   8.075  22.118  0.00  0.00    -0.388 OA
ATOM     26  H   UNL     1      13.187   7.919  21.703  0.00  0.00    +0.210 HD
ENDBRANCH  12   4
BRANCH  11  19
ATOM     19  C   UNL     1      14.271  10.231  20.679  0.00  0.00    +0.139 C 
BRANCH  19   9
ATOM      9  N   UNL     1      15.227   9.282  20.085  0.00  0.00    -0.187 NA
ATOM     27  H   UNL     1      15.120   9.177  19.067  0.00  0.00    +0.148 HD
BRANCH   9   1
ATOM      1  S   UNL     1      15.694   7.889  20.945  0.00  0.00    +0.065 S 
ATOM      6  O   UNL     1      15.600   6.733  20.074  0.00  0.00    -0.153 OA
ATOM      7  O   UNL     1      15.033   7.885  22.236  0.00  0.00    -0.153 OA
BRANCH   1  22
ATOM      2  S   UNL     1      18.450   6.889  20.917  0.00  0.00    -0.077 S 
ATOM     22  C   UNL     1      17.408   8.207  21.244  0.00  0.00    +0.142 A 
ATOM     23  C   UNL     1      18.096   9.312  21.693  0.00  0.00    +0.036 A 
ATOM     24  C   UNL     1      19.500   9.073  21.769  0.00  0.00    +0.010 A 
ATOM     25  C   UNL     1      19.828   7.795  21.377  0.00  0.00    +0.047 A 
ENDBRANCH   1  22
ENDBRANCH   9   1
ENDBRANCH  19   9
ENDBRANCH  11  19
BRANCH  13  20
ATOM     20  C   UNL     1      12.229   6.563  19.732  0.00  0.00    +0.190 C 
BRANCH  20   5
ATOM      5  O   UNL     1      11.349   5.833  20.571  0.00  0.00    -0.392 OA
ATOM     28  H   UNL     1      10.630   6.437  20.826  0.00  0.00    +0.210 HD
ENDBRANCH  20   5
ENDBRANCH  13  20
TORSDOF 8
ENDMDL
MODEL 6
REMARK VINA RESULT:      -5.7     27.936     30.002
REMARK  Name = 28962369
REMARK  9 active torsions:
REMARK  status: ('A' for Active; 'I' for Inactive)
REMARK    1  A    between atoms: S_1  and  N_9
REMARK    2  A    between atoms: S_1  and  C_22
REMARK    3  A    between atoms: O_4  and  C_12
REMARK    4  A    between atoms: O_5  and  C_20
REMARK    5  A    between atoms: N_8  and  C_10
REMARK    6  A    between atoms: N_9  and  C_19
REMARK    7  A    between atoms: C_11  and  C_19
REMARK    8  A    between atoms: C_13  and  C_20
REMARK    9  A    between atoms: C_16  and  C_21
REMARK                            x       y       z     vdW  Elec       q    Type
REMARK                         _______ _______ _______ _____ _____    ______ ____
ROOT
ATOM      3  O   UNL     1     -17.915   2.985  24.439  0.00  0.00    -0.366 OA
ATOM     10  C   UNL     1     -17.295   2.302  26.634  0.00  0.00    +0.118 C 
ATOM     11  C   UNL     1     -17.213   3.446  25.615  0.00  0.00    +0.154 C 
ATOM     12  C   UNL     1     -17.457   1.071  25.755  0.00  0.00    +0.165 C 
ATOM     13  C   UNL     1     -18.350   1.627  24.653  0.00  0.00    +0.174 C 
ENDROOT
BRANCH  10   8
ATOM      8  N   UNL     1     -16.220   2.232  27.608  0.00  0.00    -0.295 NA
ATOM     14  C   UNL     1     -16.365   1.035  28.448  0.00  0.00    +0.085 C 
ATOM     15  C   UNL     1     -16.185   3.452  28.424  0.00  0.00    +0.085 C 
ATOM     16  C   UNL     1     -15.093   2.175  30.315  0.00  0.00    -0.012 C 
ATOM     17  C   UNL     1     -15.210   0.918  29.445  0.00  0.00    +0.018 C 
ATOM     18  C   UNL     1     -15.023   3.417  29.420  0.00  0.00    +0.018 C 
ATOM     21  C   UNL     1     -13.880   2.093  31.236  0.00  0.00    +0.007 C 
ENDBRANCH  10   8
BRANCH  12   4
ATOM      4  O   UNL     1     -16.210   0.648  25.217  0.00  0.00    -0.388 OA
ATOM     26  H   UNL     1     -16.353  -0.210  24.784  0.00  0.00    +0.210 HD
ENDBRANCH  12   4
BRANCH  11  19
ATOM     19  C   UNL     1     -15.816   3.867  25.170  0.00  0.00    +0.139 C 
BRANCH  19   9
ATOM      9  N   UNL     1     -15.674   3.637  23.723  0.00  0.00    -0.187 NA
ATOM     27  H   UNL     1     -14.819   3.122  23.473  0.00  0.00    +0.148 HD
BRANCH   9   1
ATOM      1  S   UNL     1     -16.196   4.819  22.614  0.00  0.00    +0.065 S 
ATOM      6  O   UNL     1     -16.894   5.872  23.328  0.00  0.00    -0.153 OA
ATOM      7  O   UNL     1     -16.827   4.164  21.484  0.00  0.00    -0.153 OA
BRANCH   1  22
ATOM      2  S   UNL     1     -14.803   6.846  21.019  0.00  0.00    -0.077 S 
ATOM     22  C   UNL     1     -14.660   5.477  22.038  0.00  0.00    +0.142 A 
ATOM     23  C   UNL     1     -13.346   5.116  22.238  0.00  0.00    +0.036 A 
ATOM     24  C   UNL     1     -12.444   5.975  21.545  0.00  0.00    +0.010 A 
ATOM     25  C   UNL     1     -13.103   6.959  20.842  0.00  0.00    +0.047 A 
ENDBRANCH   1  22
ENDBRANCH   9   1
ENDBRANCH  19   9
ENDBRANCH  11  19
BRANCH  13  20
ATOM     20  C   UNL     1     -18.308   0.876  23.336  0.00  0.00    +0.190 C 
BRANCH  20   5
ATOM      5  O   UNL     1     -17.257   1.401  22.541  0.00  0.00    -0.392 OA
ATOM     28  H   UNL     1     -16.948   0.682  21.963  0.00  0.00    +0.210 HD
ENDBRANCH  20   5
ENDBRANCH  13  20
TORSDOF 8
ENDMDL
MODEL 7
REMARK VINA RESULT:      -5.4     15.040     16.922
REMARK  Name = 28962369
REMARK  9 active torsions:
REMARK  status: ('A' for Active; 'I' for Inactive)
REMARK    1  A    between atoms: S_1  and  N_9
REMARK    2  A    between atoms: S_1  and  C_22
REMARK    3  A    between atoms: O_4  and  C_12
REMARK    4  A    between atoms: O_5  and  C_20
REMARK    5  A    between atoms: N_8  and  C_10
REMARK    6  A    between atoms: N_9  and  C_19
REMARK    7  A    between atoms: C_11  and  C_19
REMARK    8  A    between atoms: C_13  and  C_20
REMARK    9  A    between atoms: C_16  and  C_21
REMARK                            x       y       z     vdW  Elec       q    Type
REMARK                         _______ _______ _______ _____ _____    ______ ____
ROOT
ATOM      3  O   UNL     1       9.411   5.217   6.295  0.00  0.00    -0.366 OA
ATOM     10  C   UNL     1      10.641   7.250   6.438  0.00  0.00    +0.118 C 
ATOM     11  C   UNL     1      10.067   6.206   5.471  0.00  0.00    +0.154 C 
ATOM     12  C   UNL     1      10.835   6.458   7.722  0.00  0.00    +0.165 C 
ATOM     13  C   UNL     1       9.609   5.553   7.682  0.00  0.00    +0.174 C 
ENDROOT
BRANCH  10   8
ATOM      8  N   UNL     1      11.810   7.978   5.976  0.00  0.00    -0.295 NA
ATOM     14  C   UNL     1      12.351   8.818   7.054  0.00  0.00    +0.085 C 
ATOM     15  C   UNL     1      11.481   8.782   4.792  0.00  0.00    +0.085 C 
ATOM     16  C   UNL     1      13.353  10.390   5.344  0.00  0.00    -0.012 C 
ATOM     17  C   UNL     1      13.615   9.551   6.600  0.00  0.00    +0.018 C 
ATOM     18  C   UNL     1      12.715   9.514   4.261  0.00  0.00    +0.018 C 
ATOM     21  C   UNL     1      14.638  11.039   4.840  0.00  0.00    +0.007 C 
ENDBRANCH  10   8
BRANCH  12   4
ATOM      4  O   UNL     1      12.025   5.682   7.680  0.00  0.00    -0.388 OA
ATOM     26  H   UNL     1      12.714   6.173   8.158  0.00  0.00    +0.210 HD
ENDBRANCH  12   4
BRANCH  11  19
ATOM     19  C   UNL     1      11.068   5.467   4.589  0.00  0.00    +0.139 C 
BRANCH  19   9
ATOM      9  N   UNL     1      10.341   4.666   3.590  0.00  0.00    -0.187 NA
ATOM     27  H   UNL     1      10.194   3.689   3.879  0.00  0.00    +0.148 HD
BRANCH   9   1
ATOM      1  S   UNL     1      10.598   4.933   1.928  0.00  0.00    +0.065 S 
ATOM      6  O   UNL     1      10.445   6.347   1.640  0.00  0.00    -0.153 OA
ATOM      7  O   UNL     1       9.850   3.950   1.169  0.00  0.00    -0.153 OA
BRANCH   1  22
ATOM      2  S   UNL     1      13.362   5.870   1.653  0.00  0.00    -0.077 S 
ATOM     22  C   UNL     1      12.310   4.524   1.758  0.00  0.00    +0.142 A 
ATOM     23  C   UNL     1      12.990   3.329   1.690  0.00  0.00    +0.036 A 
ATOM     24  C   UNL     1      14.396   3.521   1.550  0.00  0.00    +0.010 A 
ATOM     25  C   UNL     1      14.734   4.855   1.516  0.00  0.00    +0.047 A 
ENDBRANCH   1  22
ENDBRANCH   9   1
ENDBRANCH  19   9
ENDBRANCH  11  19
BRANCH  13  20
ATOM     20  C   UNL     1       9.712   4.277   8.496  0.00  0.00    +0.190 C 
BRANCH  20   5
ATOM      5  O   UNL     1      10.123   4.605   9.813  0.00  0.00    -0.392 OA
ATOM     28  H   UNL     1       9.487   5.253  10.160  0.00  0.00    +0.210 HD
ENDBRANCH  20   5
ENDBRANCH  13  20
TORSDOF 8
ENDMDL
MODEL 8
REMARK VINA RESULT:      -5.4     25.539     27.942
REMARK  Name = 28962369
REMARK  9 active torsions:
REMARK  status: ('A' for Active; 'I' for Inactive)
REMARK    1  A    between atoms: S_1  and  N_9
REMARK    2  A    between atoms: S_1  and  C_22
REMARK    3  A    between atoms: O_4  and  C_12
REMARK    4  A    between atoms: O_5  and  C_20
REMARK    5  A    between atoms: N_8  and  C_10
REMARK    6  A    between atoms: N_9  and  C_19
REMARK    7  A    between atoms: C_11  and  C_19
REMARK    8  A    between atoms: C_13  and  C_20
REMARK    9  A    between atoms: C_16  and  C_21
REMARK                            x       y       z     vdW  Elec       q    Type
REMARK                         _______ _______ _______ _____ _____    ______ ____
ROOT
ATOM      3  O   UNL     1      -2.795 -12.077  15.130  0.00  0.00    -0.366 OA
ATOM     10  C   UNL     1      -4.249 -11.969  17.012  0.00  0.00    +0.118 C 
ATOM     11  C   UNL     1      -4.090 -12.523  15.590  0.00  0.00    +0.154 C 
ATOM     12  C   UNL     1      -3.350 -10.742  17.005  0.00  0.00    +0.165 C 
ATOM     13  C   UNL     1      -2.198 -11.243  16.142  0.00  0.00    +0.174 C 
ENDROOT
BRANCH  10   8
ATOM      8  N   UNL     1      -5.610 -11.738  17.462  0.00  0.00    -0.295 NA
ATOM     14  C   UNL     1      -5.616 -10.917  18.681  0.00  0.00    +0.085 C 
ATOM     15  C   UNL     1      -6.304 -13.014  17.679  0.00  0.00    +0.085 C 
ATOM     16  C   UNL     1      -7.842 -11.910  19.357  0.00  0.00    -0.012 C 
ATOM     17  C   UNL     1      -7.045 -10.618  19.139  0.00  0.00    +0.018 C 
ATOM     18  C   UNL     1      -7.757 -12.787  18.103  0.00  0.00    +0.018 C 
ATOM     21  C   UNL     1      -9.293 -11.604  19.716  0.00  0.00    +0.007 C 
ENDBRANCH  10   8
BRANCH  12   4
ATOM      4  O   UNL     1      -3.987  -9.633  16.385  0.00  0.00    -0.388 OA
ATOM     26  H   UNL     1      -4.825  -9.950  16.006  0.00  0.00    +0.210 HD
ENDBRANCH  12   4
BRANCH  11  19
ATOM     19  C   UNL     1      -5.117 -12.064  14.559  0.00  0.00    +0.139 C 
BRANCH  19   9
ATOM      9  N   UNL     1      -4.458 -11.205  13.561  0.00  0.00    -0.187 NA
ATOM     27  H   UNL     1      -4.775 -10.227  13.591  0.00  0.00    +0.148 HD
BRANCH   9   1
ATOM      1  S   UNL     1      -4.063 -11.827  12.025  0.00  0.00    +0.065 S 
ATOM      6  O   UNL     1      -5.046 -12.824  11.644  0.00  0.00    -0.153 OA
ATOM      7  O   UNL     1      -2.650 -12.148  11.993  0.00  0.00    -0.153 OA
BRANCH   1  22
ATOM      2  S   UNL     1      -5.520  -9.335  11.516  0.00  0.00    -0.077 S 
ATOM     22  C   UNL     1      -4.295 -10.410  10.993  0.00  0.00    +0.142 A 
ATOM     23  C   UNL     1      -3.688  -9.980   9.834  0.00  0.00    +0.036 A 
ATOM     24  C   UNL     1      -4.236  -8.749   9.369  0.00  0.00    +0.010 A 
ATOM     25  C   UNL     1      -5.241  -8.287  10.190  0.00  0.00    +0.047 A 
ENDBRANCH   1  22
ENDBRANCH   9   1
ENDBRANCH  19   9
ENDBRANCH  11  19
BRANCH  13  20
ATOM     20  C   UNL     1      -1.365 -10.165  15.474  0.00  0.00    +0.190 C 
BRANCH  20   5
ATOM      5  O   UNL     1      -1.877  -9.931  14.172  0.00  0.00    -0.392 OA
ATOM     28  H   UNL     1      -1.640 -10.702  13.629  0.00  0.00    +0.210 HD
ENDBRANCH  20   5
ENDBRANCH  13  20
TORSDOF 8
ENDMDL
MODEL 9
REMARK VINA RESULT:      -5.3     26.417     28.820
REMARK  Name = 28962369
REMARK  9 active torsions:
REMARK  status: ('A' for Active; 'I' for Inactive)
REMARK    1  A    between atoms: S_1  and  N_9
REMARK    2  A    between atoms: S_1  and  C_22
REMARK    3  A    between atoms: O_4  and  C_12
REMARK    4  A    between atoms: O_5  and  C_20
REMARK    5  A    between atoms: N_8  and  C_10
REMARK    6  A    between atoms: N_9  and  C_19
REMARK    7  A    between atoms: C_11  and  C_19
REMARK    8  A    between atoms: C_13  and  C_20
REMARK    9  A    between atoms: C_16  and  C_21
REMARK                            x       y       z     vdW  Elec       q    Type
REMARK                         _______ _______ _______ _____ _____    ______ ____
ROOT
ATOM      3  O   UNL     1      -8.322 -12.790  17.419  0.00  0.00    -0.366 OA
ATOM     10  C   UNL     1      -9.778 -10.922  17.170  0.00  0.00    +0.118 C 
ATOM     11  C   UNL     1      -8.851 -11.888  16.421  0.00  0.00    +0.154 C 
ATOM     12  C   UNL     1      -9.212 -10.930  18.583  0.00  0.00    +0.165 C 
ATOM     13  C   UNL     1      -8.810 -12.394  18.716  0.00  0.00    +0.174 C 
ENDROOT
BRANCH  10   8
ATOM      8  N   UNL     1      -9.948  -9.607  16.578  0.00  0.00    -0.295 NA
ATOM     14  C   UNL     1     -10.561  -8.684  17.543  0.00  0.00    +0.085 C 
ATOM     15  C   UNL     1     -10.747  -9.696  15.349  0.00  0.00    +0.085 C 
ATOM     16  C   UNL     1     -11.500  -7.300  15.646  0.00  0.00    -0.012 C 
ATOM     17  C   UNL     1     -10.699  -7.280  16.953  0.00  0.00    +0.018 C 
ATOM     18  C   UNL     1     -10.891  -8.326  14.683  0.00  0.00    +0.018 C 
ATOM     21  C   UNL     1     -11.548  -5.913  15.012  0.00  0.00    +0.007 C 
ENDBRANCH  10   8
BRANCH  12   4
ATOM      4  O   UNL     1      -8.070 -10.090  18.690  0.00  0.00    -0.388 OA
ATOM     26  H   UNL     1      -7.797 -10.083  19.623  0.00  0.00    +0.210 HD
ENDBRANCH  12   4
BRANCH  11  19
ATOM     19  C   UNL     1      -7.659 -11.269  15.697  0.00  0.00    +0.139 C 
BRANCH  19   9
ATOM      9  N   UNL     1      -6.414 -11.669  16.374  0.00  0.00    -0.187 NA
ATOM     27  H   UNL     1      -6.529 -12.481  16.994  0.00  0.00    +0.148 HD
BRANCH   9   1
ATOM      1  S   UNL     1      -5.297 -10.486  16.876  0.00  0.00    +0.065 S 
ATOM      6  O   UNL     1      -5.069 -10.616  18.303  0.00  0.00    -0.153 OA
ATOM      7  O   UNL     1      -5.678  -9.205  16.313  0.00  0.00    -0.153 OA
BRANCH   1  22
ATOM      2  S   UNL     1      -4.038 -12.310  14.957  0.00  0.00    -0.077 S 
ATOM     22  C   UNL     1      -3.826 -11.001  16.040  0.00  0.00    +0.142 A 
ATOM     23  C   UNL     1      -2.521 -10.564  16.075  0.00  0.00    +0.036 A 
ATOM     24  C   UNL     1      -1.682 -11.315  15.200  0.00  0.00    +0.010 A 
ATOM     25  C   UNL     1      -2.380 -12.296  14.532  0.00  0.00    +0.047 A 
ENDBRANCH   1  22
ENDBRANCH   9   1
ENDBRANCH  19   9
ENDBRANCH  11  19
BRANCH  13  20
ATOM     20  C   UNL     1      -7.748 -12.686  19.759  0.00  0.00    +0.190 C 
BRANCH  20   5
ATOM      5  O   UNL     1      -6.513 -12.924  19.104  0.00  0.00    -0.392 OA
ATOM     28  H   UNL     1      -6.457 -13.881  18.935  0.00  0.00    +0.210 HD
ENDBRANCH  20   5
ENDBRANCH  13  20
TORSDOF 8
ENDMDL
MODEL 10
REMARK VINA RESULT:      -5.3     27.091     28.577
REMARK  Name = 28962369
REMARK  9 active torsions:
REMARK  status: ('A' for Active; 'I' for Inactive)
REMARK    1  A    between atoms: S_1  and  N_9
REMARK    2  A    between atoms: S_1  and  C_22
REMARK    3  A    between atoms: O_4  and  C_12
REMARK    4  A    between atoms: O_5  and  C_20
REMARK    5  A    between atoms: N_8  and  C_10
REMARK    6  A    between atoms: N_9  and  C_19
REMARK    7  A    between atoms: C_11  and  C_19
REMARK    8  A    between atoms: C_13  and  C_20
REMARK    9  A    between atoms: C_16  and  C_21
REMARK                            x       y       z     vdW  Elec       q    Type
REMARK                         _______ _______ _______ _____ _____    ______ ____
ROOT
ATOM      3  O   UNL     1      -1.799 -12.509  14.321  0.00  0.00    -0.366 OA
ATOM     10  C   UNL     1      -2.454 -11.990  12.092  0.00  0.00    +0.118 C 
ATOM     11  C   UNL     1      -2.193 -11.400  13.484  0.00  0.00    +0.154 C 
ATOM     12  C   UNL     1      -2.818 -13.436  12.396  0.00  0.00    +0.165 C 
ATOM     13  C   UNL     1      -1.871 -13.727  13.553  0.00  0.00    +0.174 C 
ENDROOT
BRANCH  10   8
ATOM      8  N   UNL     1      -3.404 -11.274  11.259  0.00  0.00    -0.295 NA
ATOM     14  C   UNL     1      -3.822 -12.108  10.123  0.00  0.00    +0.085 C 
ATOM     15  C   UNL     1      -2.830 -10.003  10.800  0.00  0.00    +0.085 C 
ATOM     16  C   UNL     1      -4.342 -10.033   8.773  0.00  0.00    -0.012 C 
ATOM     17  C   UNL     1      -4.864 -11.388   9.264  0.00  0.00    +0.018 C 
ATOM     18  C   UNL     1      -3.838  -9.211   9.964  0.00  0.00    +0.018 C 
ATOM     21  C   UNL     1      -5.420  -9.278   8.002  0.00  0.00    +0.007 C 
ENDBRANCH  10   8
BRANCH  12   4
ATOM      4  O   UNL     1      -4.170 -13.554  12.820  0.00  0.00    -0.388 OA
ATOM     26  H   UNL     1      -4.429 -12.706  13.217  0.00  0.00    +0.210 HD
ENDBRANCH  12   4
BRANCH  11  19
ATOM     19  C   UNL     1      -3.372 -10.715  14.168  0.00  0.00    +0.139 C 
BRANCH  19   9
ATOM      9  N   UNL     1      -3.858 -11.563  15.270  0.00  0.00    -0.187 NA
ATOM     27  H   UNL     1      -3.297 -12.414  15.407  0.00  0.00    +0.148 HD
BRANCH   9   1
ATOM      1  S   UNL     1      -5.528 -11.700  15.570  0.00  0.00    +0.065 S 
ATOM      6  O   UNL     1      -5.959 -13.053  15.276  0.00  0.00    -0.153 OA
ATOM      7  O   UNL     1      -6.212 -10.571  14.970  0.00  0.00    -0.153 OA
BRANCH   1  22
ATOM      2  S   UNL     1      -6.953 -10.586  17.877  0.00  0.00    -0.077 S 
ATOM     22  C   UNL     1      -5.599 -11.474  17.323  0.00  0.00    +0.142 A 
ATOM     23  C   UNL     1      -4.780 -11.868  18.357  0.00  0.00    +0.036 A 
ATOM     24  C   UNL     1      -5.271 -11.435  19.623  0.00  0.00    +0.010 A 
ATOM     25  C   UNL     1      -6.446 -10.727  19.507  0.00  0.00    +0.047 A 
ENDBRANCH   1  22
ENDBRANCH   9   1
ENDBRANCH  19   9
ENDBRANCH  11  19
BRANCH  13  20
ATOM     20  C   UNL     1      -2.283 -14.868  14.464  0.00  0.00    +0.190 C 
BRANCH  20   5
ATOM      5  O   UNL     1      -3.296 -14.409  15.345  0.00  0.00    -0.392 OA
ATOM     28  H   UNL     1      -3.082 -14.751  16.230  0.00  0.00    +0.210 HD
ENDBRANCH  20   5
ENDBRANCH  13  20
TORSDOF 8
ENDMDL
