MODEL 1
REMARK VINA RESULT:      -7.2      0.000      0.000
REMARK  Name = 11885216
REMARK  4 active torsions:
REMARK  status: ('A' for Active; 'I' for Inactive)
REMARK    1  A    between atoms: S_1  and  C_30
REMARK    2  A    between atoms: S_1  and  C_31
REMARK    3  A    between atoms: N_6  and  C_15
REMARK    4  A    between atoms: C_22  and  C_25
REMARK                            x       y       z     vdW  Elec       q    Type
REMARK                         _______ _______ _______ _____ _____    ______ ____
ROOT
ATOM      2  O   UNL     1      13.693   6.346   7.276  0.00  0.00    -0.253 OA
ATOM      3  O   UNL     1      10.594   7.190   2.170  0.00  0.00    -0.267 OA
ATOM      4  N   UNL     1      11.691   7.509   7.093  0.00  0.00    -0.285 N 
ATOM      5  N   UNL     1      10.127   6.691   4.400  0.00  0.00    -0.311 N 
ATOM      6  N   UNL     1      13.750   8.497   6.480  0.00  0.00    -0.296 N 
ATOM      7  C   UNL     1       9.588   8.493   6.133  0.00  0.00    +0.027 C 
ATOM      8  C   UNL     1       9.628   6.133   6.805  0.00  0.00    +0.054 C 
ATOM      9  C   UNL     1       8.781   7.402   6.823  0.00  0.00    +0.018 C 
ATOM     10  C   UNL     1      10.923   8.742   6.863  0.00  0.00    +0.114 C 
ATOM     11  C   UNL     1      10.917   6.373   7.608  0.00  0.00    +0.119 C 
ATOM     12  C   UNL     1       9.801   8.097   4.667  0.00  0.00    +0.130 C 
ATOM     13  C   UNL     1       9.973   5.715   5.388  0.00  0.00    +0.027 A 
ATOM     14  C   UNL     1      13.086   7.378   6.969  0.00  0.00    +0.302 C 
ATOM     16  C   UNL     1      10.157   4.420   5.089  0.00  0.00    +0.022 A 
ATOM     17  C   UNL     1      10.486   6.364   3.077  0.00  0.00    +0.259 A 
ATOM     22  C   UNL     1      10.722   4.907   2.783  0.00  0.00    +0.047 A 
ATOM     24  C   UNL     1      10.543   4.014   3.767  0.00  0.00    +0.015 A 
ATOM     32  H   UNL     1      13.271   9.380   6.376  0.00  0.00    +0.151 HD
ENDROOT
BRANCH   6  15
ATOM     15  C   UNL     1      15.185   8.523   6.300  0.00  0.00    +0.074 C 
ATOM     18  C   UNL     1      15.601   7.709   5.071  0.00  0.00    +0.022 C 
ATOM     19  C   UNL     1      15.704   9.963   6.215  0.00  0.00    +0.022 C 
ATOM     20  C   UNL     1      15.219   8.395   3.759  0.00  0.00    +0.002 C 
ATOM     21  C   UNL     1      15.321  10.645   4.901  0.00  0.00    +0.002 C 
ATOM     23  C   UNL     1      15.756   9.821   3.692  0.00  0.00    +0.000 C 
ENDBRANCH   6  15
BRANCH  22  25
ATOM     25  C   UNL     1      11.150   4.458   1.445  0.00  0.00    -0.013 A 
ATOM     26  C   UNL     1      12.380   3.821   1.282  0.00  0.00    +0.010 A 
ATOM     27  C   UNL     1      10.325   4.673   0.340  0.00  0.00    +0.010 A 
ATOM     28  C   UNL     1      12.784   3.396   0.016  0.00  0.00    +0.015 A 
ATOM     29  C   UNL     1      10.729   4.249  -0.925  0.00  0.00    +0.015 A 
ATOM     30  C   UNL     1      11.960   3.610  -1.087  0.00  0.00    +0.008 A 
BRANCH  30   1
ATOM      1  S   UNL     1      12.476   3.071  -2.705  0.00  0.00    -0.129 S 
ATOM     31  C   UNL     1      10.883   2.830  -3.540  0.00  0.00    +0.090 C 
ENDBRANCH  30   1
ENDBRANCH  22  25
TORSDOF 3
ENDMDL
MODEL 2
REMARK VINA RESULT:      -7.0     24.154     26.560
REMARK  Name = 11885216
REMARK  4 active torsions:
REMARK  status: ('A' for Active; 'I' for Inactive)
REMARK    1  A    between atoms: S_1  and  C_30
REMARK    2  A    between atoms: S_1  and  C_31
REMARK    3  A    between atoms: N_6  and  C_15
REMARK    4  A    between atoms: C_22  and  C_25
REMARK                            x       y       z     vdW  Elec       q    Type
REMARK                         _______ _______ _______ _____ _____    ______ ____
ROOT
ATOM      2  O   UNL     1      -3.517 -10.014  16.088  0.00  0.00    -0.253 OA
ATOM      3  O   UNL     1      -5.839 -12.269  10.998  0.00  0.00    -0.267 OA
ATOM      4  N   UNL     1      -3.152 -12.159  15.276  0.00  0.00    -0.285 N 
ATOM      5  N   UNL     1      -3.799 -12.323  12.126  0.00  0.00    -0.311 N 
ATOM      6  N   UNL     1      -5.148 -11.595  16.412  0.00  0.00    -0.296 N 
ATOM      7  C   UNL     1      -3.187 -14.177  13.779  0.00  0.00    +0.027 C 
ATOM      8  C   UNL     1      -1.592 -12.365  13.338  0.00  0.00    +0.054 C 
ATOM      9  C   UNL     1      -1.750 -13.882  13.374  0.00  0.00    +0.018 C 
ATOM     10  C   UNL     1      -3.507 -13.582  15.165  0.00  0.00    +0.114 C 
ATOM     11  C   UNL     1      -1.831 -11.797  14.747  0.00  0.00    +0.119 C 
ATOM     12  C   UNL     1      -4.126 -13.637  12.694  0.00  0.00    +0.130 C 
ATOM     13  C   UNL     1      -2.556 -11.729  12.355  0.00  0.00    +0.027 A 
ATOM     14  C   UNL     1      -3.913 -11.175  15.934  0.00  0.00    +0.302 C 
ATOM     16  C   UNL     1      -2.230 -10.588  11.728  0.00  0.00    +0.022 A 
ATOM     17  C   UNL     1      -4.749 -11.755  11.254  0.00  0.00    +0.259 A 
ATOM     22  C   UNL     1      -4.370 -10.456  10.596  0.00  0.00    +0.047 A 
ATOM     24  C   UNL     1      -3.155  -9.942  10.840  0.00  0.00    +0.015 A 
ATOM     32  H   UNL     1      -5.397 -12.572  16.416  0.00  0.00    +0.151 HD
ENDROOT
BRANCH   6  15
ATOM     15  C   UNL     1      -6.044 -10.703  17.115  0.00  0.00    +0.074 C 
ATOM     18  C   UNL     1      -7.496 -11.181  17.006  0.00  0.00    +0.022 C 
ATOM     19  C   UNL     1      -5.622 -10.541  18.580  0.00  0.00    +0.022 C 
ATOM     20  C   UNL     1      -7.763 -12.435  17.837  0.00  0.00    +0.002 C 
ATOM     21  C   UNL     1      -5.892 -11.797  19.409  0.00  0.00    +0.002 C 
ATOM     23  C   UNL     1      -7.346 -12.245  19.292  0.00  0.00    +0.000 C 
ENDBRANCH   6  15
BRANCH  22  25
ATOM     25  C   UNL     1      -5.307  -9.751   9.704  0.00  0.00    -0.013 A 
ATOM     26  C   UNL     1      -6.186  -8.800  10.225  0.00  0.00    +0.010 A 
ATOM     27  C   UNL     1      -5.318 -10.034   8.337  0.00  0.00    +0.010 A 
ATOM     28  C   UNL     1      -7.073  -8.132   9.381  0.00  0.00    +0.015 A 
ATOM     29  C   UNL     1      -6.205  -9.366   7.493  0.00  0.00    +0.015 A 
ATOM     30  C   UNL     1      -7.083  -8.415   8.015  0.00  0.00    +0.008 A 
BRANCH  30   1
ATOM      1  S   UNL     1      -8.217  -7.564   6.937  0.00  0.00    -0.129 S 
ATOM     31  C   UNL     1      -8.742  -6.172   7.977  0.00  0.00    +0.090 C 
ENDBRANCH  30   1
ENDBRANCH  22  25
TORSDOF 3
ENDMDL
MODEL 3
REMARK VINA RESULT:      -6.6     26.397     29.762
REMARK  Name = 11885216
REMARK  4 active torsions:
REMARK  status: ('A' for Active; 'I' for Inactive)
REMARK    1  A    between atoms: S_1  and  C_30
REMARK    2  A    between atoms: S_1  and  C_31
REMARK    3  A    between atoms: N_6  and  C_15
REMARK    4  A    between atoms: C_22  and  C_25
REMARK                            x       y       z     vdW  Elec       q    Type
REMARK                         _______ _______ _______ _____ _____    ______ ____
ROOT
ATOM      2  O   UNL     1     -10.966   8.241  14.993  0.00  0.00    -0.253 OA
ATOM      3  O   UNL     1     -14.230   9.733  19.841  0.00  0.00    -0.267 OA
ATOM      4  N   UNL     1     -11.333  10.404  15.755  0.00  0.00    -0.285 N 
ATOM      5  N   UNL     1     -12.228  10.398  18.848  0.00  0.00    -0.311 N 
ATOM      6  N   UNL     1     -12.973   9.241  14.509  0.00  0.00    -0.296 N 
ATOM      7  C   UNL     1     -12.091  12.331  17.178  0.00  0.00    +0.027 C 
ATOM      8  C   UNL     1     -10.056  11.101  17.784  0.00  0.00    +0.054 C 
ATOM      9  C   UNL     1     -10.666  12.495  17.687  0.00  0.00    +0.018 C 
ATOM     10  C   UNL     1     -12.112  11.651  15.795  0.00  0.00    +0.114 C 
ATOM     11  C   UNL     1     -10.007  10.470  16.382  0.00  0.00    +0.119 C 
ATOM     12  C   UNL     1     -12.897  11.541  18.217  0.00  0.00    +0.130 C 
ATOM     13  C   UNL     1     -10.849  10.211  18.722  0.00  0.00    +0.027 A 
ATOM     14  C   UNL     1     -11.707   9.226  15.081  0.00  0.00    +0.302 C 
ATOM     16  C   UNL     1     -10.237   9.232  19.406  0.00  0.00    +0.022 A 
ATOM     17  C   UNL     1     -13.020   9.576  19.674  0.00  0.00    +0.259 A 
ATOM     22  C   UNL     1     -12.311   8.463  20.399  0.00  0.00    +0.047 A 
ATOM     24  C   UNL     1     -10.983   8.344  20.252  0.00  0.00    +0.015 A 
ATOM     32  H   UNL     1     -13.508  10.095  14.456  0.00  0.00    +0.151 HD
ENDROOT
BRANCH   6  15
ATOM     15  C   UNL     1     -13.500   8.110  13.779  0.00  0.00    +0.074 C 
ATOM     18  C   UNL     1     -14.645   7.442  14.547  0.00  0.00    +0.022 C 
ATOM     19  C   UNL     1     -13.943   8.521  12.370  0.00  0.00    +0.022 C 
ATOM     20  C   UNL     1     -15.917   8.290  14.554  0.00  0.00    +0.002 C 
ATOM     21  C   UNL     1     -15.216   9.368  12.381  0.00  0.00    +0.002 C 
ATOM     23  C   UNL     1     -16.343   8.677  13.142  0.00  0.00    +0.000 C 
ENDBRANCH   6  15
BRANCH  22  25
ATOM     25  C   UNL     1     -13.051   7.514  21.250  0.00  0.00    -0.013 A 
ATOM     26  C   UNL     1     -12.695   6.165  21.264  0.00  0.00    +0.010 A 
ATOM     27  C   UNL     1     -14.108   7.964  22.042  0.00  0.00    +0.010 A 
ATOM     28  C   UNL     1     -13.395   5.267  22.070  0.00  0.00    +0.015 A 
ATOM     29  C   UNL     1     -14.808   7.066  22.847  0.00  0.00    +0.015 A 
ATOM     30  C   UNL     1     -14.451   5.717  22.861  0.00  0.00    +0.008 A 
BRANCH  30   1
ATOM      1  S   UNL     1     -15.347   4.570  23.888  0.00  0.00    -0.129 S 
ATOM     31  C   UNL     1     -16.824   5.535  24.319  0.00  0.00    +0.090 C 
ENDBRANCH  30   1
ENDBRANCH  22  25
TORSDOF 3
ENDMDL
MODEL 4
REMARK VINA RESULT:      -6.6     26.081     28.842
REMARK  Name = 11885216
REMARK  4 active torsions:
REMARK  status: ('A' for Active; 'I' for Inactive)
REMARK    1  A    between atoms: S_1  and  C_30
REMARK    2  A    between atoms: S_1  and  C_31
REMARK    3  A    between atoms: N_6  and  C_15
REMARK    4  A    between atoms: C_22  and  C_25
REMARK                            x       y       z     vdW  Elec       q    Type
REMARK                         _______ _______ _______ _____ _____    ______ ____
ROOT
ATOM      2  O   UNL     1      -5.547 -13.384  13.481  0.00  0.00    -0.253 OA
ATOM      3  O   UNL     1      -7.760  -8.797  16.714  0.00  0.00    -0.267 OA
ATOM      4  N   UNL     1      -4.405 -12.235  15.145  0.00  0.00    -0.285 N 
ATOM      5  N   UNL     1      -6.453 -10.691  17.091  0.00  0.00    -0.311 N 
ATOM      6  N   UNL     1      -4.638 -11.341  12.968  0.00  0.00    -0.296 N 
ATOM      7  C   UNL     1      -3.896 -10.640  17.018  0.00  0.00    +0.027 C 
ATOM      8  C   UNL     1      -5.057 -12.748  17.499  0.00  0.00    +0.054 C 
ATOM      9  C   UNL     1      -3.976 -11.796  18.004  0.00  0.00    +0.018 C 
ATOM     10  C   UNL     1      -3.538 -11.139  15.604  0.00  0.00    +0.114 C 
ATOM     11  C   UNL     1      -4.644 -13.301  16.126  0.00  0.00    +0.119 C 
ATOM     12  C   UNL     1      -5.229  -9.882  17.037  0.00  0.00    +0.130 C 
ATOM     13  C   UNL     1      -6.402 -12.054  17.392  0.00  0.00    +0.027 A 
ATOM     14  C   UNL     1      -4.910 -12.388  13.840  0.00  0.00    +0.302 C 
ATOM     16  C   UNL     1      -7.538 -12.750  17.558  0.00  0.00    +0.022 A 
ATOM     17  C   UNL     1      -7.674 -10.005  16.941  0.00  0.00    +0.259 A 
ATOM     22  C   UNL     1      -8.930 -10.820  17.095  0.00  0.00    +0.047 A 
ATOM     24  C   UNL     1      -8.819 -12.121  17.401  0.00  0.00    +0.015 A 
ATOM     32  H   UNL     1      -3.994 -10.608  13.222  0.00  0.00    +0.151 HD
ENDROOT
BRANCH   6  15
ATOM     15  C   UNL     1      -5.084 -11.351  11.592  0.00  0.00    +0.074 C 
ATOM     18  C   UNL     1      -6.079 -10.217  11.326  0.00  0.00    +0.022 C 
ATOM     19  C   UNL     1      -3.894 -11.283  10.627  0.00  0.00    +0.022 C 
ATOM     20  C   UNL     1      -5.410  -8.843  11.313  0.00  0.00    +0.002 C 
ATOM     21  C   UNL     1      -3.229  -9.907  10.616  0.00  0.00    +0.002 C 
ATOM     23  C   UNL     1      -4.238  -8.797  10.339  0.00  0.00    +0.000 C 
ENDBRANCH   6  15
BRANCH  22  25
ATOM     25  C   UNL     1     -10.260 -10.214  16.910  0.00  0.00    -0.013 A 
ATOM     26  C   UNL     1     -10.974  -9.745  18.014  0.00  0.00    +0.010 A 
ATOM     27  C   UNL     1     -10.809 -10.110  15.632  0.00  0.00    +0.010 A 
ATOM     28  C   UNL     1     -12.234  -9.171  17.839  0.00  0.00    +0.015 A 
ATOM     29  C   UNL     1     -12.068  -9.537  15.456  0.00  0.00    +0.015 A 
ATOM     30  C   UNL     1     -12.781  -9.067  16.561  0.00  0.00    +0.008 A 
BRANCH  30   1
ATOM      1  S   UNL     1     -14.390  -8.337  16.336  0.00  0.00    -0.129 S 
ATOM     31  C   UNL     1     -13.969  -6.737  15.589  0.00  0.00    +0.090 C 
ENDBRANCH  30   1
ENDBRANCH  22  25
TORSDOF 3
ENDMDL
MODEL 5
REMARK VINA RESULT:      -6.4     42.514     43.819
REMARK  Name = 11885216
REMARK  4 active torsions:
REMARK  status: ('A' for Active; 'I' for Inactive)
REMARK    1  A    between atoms: S_1  and  C_30
REMARK    2  A    between atoms: S_1  and  C_31
REMARK    3  A    between atoms: N_6  and  C_15
REMARK    4  A    between atoms: C_22  and  C_25
REMARK                            x       y       z     vdW  Elec       q    Type
REMARK                         _______ _______ _______ _____ _____    ______ ____
ROOT
ATOM      2  O   UNL     1      -6.678  -5.757  38.674  0.00  0.00    -0.253 OA
ATOM      3  O   UNL     1     -10.212 -10.508  39.817  0.00  0.00    -0.267 OA
ATOM      4  N   UNL     1      -6.436  -7.214  40.466  0.00  0.00    -0.285 N 
ATOM      5  N   UNL     1      -7.937 -10.004  39.891  0.00  0.00    -0.311 N 
ATOM      6  N   UNL     1      -8.058  -5.493  40.487  0.00  0.00    -0.296 N 
ATOM      7  C   UNL     1      -6.779  -9.165  42.012  0.00  0.00    +0.027 C 
ATOM      8  C   UNL     1      -5.478  -9.461  39.952  0.00  0.00    +0.054 C 
ATOM      9  C   UNL     1      -5.534  -9.822  41.432  0.00  0.00    +0.018 C 
ATOM     10  C   UNL     1      -6.726  -7.633  41.846  0.00  0.00    +0.114 C 
ATOM     11  C   UNL     1      -5.341  -7.936  39.806  0.00  0.00    +0.119 C 
ATOM     12  C   UNL     1      -8.015  -9.772  41.338  0.00  0.00    +0.130 C 
ATOM     13  C   UNL     1      -6.716  -9.941  39.216  0.00  0.00    +0.027 A 
ATOM     14  C   UNL     1      -7.034  -6.130  39.796  0.00  0.00    +0.302 C 
ATOM     16  C   UNL     1      -6.645 -10.275  37.918  0.00  0.00    +0.022 A 
ATOM     17  C   UNL     1      -9.125 -10.403  39.247  0.00  0.00    +0.259 A 
ATOM     22  C   UNL     1      -9.021 -10.736  37.783  0.00  0.00    +0.047 A 
ATOM     24  C   UNL     1      -7.818 -10.674  37.193  0.00  0.00    +0.015 A 
ATOM     32  H   UNL     1      -8.240  -5.705  41.456  0.00  0.00    +0.151 HD
ENDROOT
BRANCH   6  15
ATOM     15  C   UNL     1      -8.768  -4.360  39.936  0.00  0.00    +0.074 C 
ATOM     18  C   UNL     1     -10.209  -4.733  39.574  0.00  0.00    +0.022 C 
ATOM     19  C   UNL     1      -8.729  -3.165  40.897  0.00  0.00    +0.022 C 
ATOM     20  C   UNL     1     -11.086  -4.943  40.808  0.00  0.00    +0.002 C 
ATOM     21  C   UNL     1      -9.609  -3.378  42.129  0.00  0.00    +0.002 C 
ATOM     23  C   UNL     1     -11.040  -3.738  41.743  0.00  0.00    +0.000 C 
ENDBRANCH   6  15
BRANCH  22  25
ATOM     25  C   UNL     1     -10.211 -11.118  37.001  0.00  0.00    -0.013 A 
ATOM     26  C   UNL     1     -11.301 -10.251  36.919  0.00  0.00    +0.010 A 
ATOM     27  C   UNL     1     -10.249 -12.348  36.344  0.00  0.00    +0.010 A 
ATOM     28  C   UNL     1     -12.427 -10.612  36.179  0.00  0.00    +0.015 A 
ATOM     29  C   UNL     1     -11.374 -12.710  35.604  0.00  0.00    +0.015 A 
ATOM     30  C   UNL     1     -12.464 -11.841  35.522  0.00  0.00    +0.008 A 
BRANCH  30   1
ATOM      1  S   UNL     1     -13.903 -12.305  34.579  0.00  0.00    -0.129 S 
ATOM     31  C   UNL     1     -13.227 -13.581  33.478  0.00  0.00    +0.090 C 
ENDBRANCH  30   1
ENDBRANCH  22  25
TORSDOF 3
ENDMDL
MODEL 6
REMARK VINA RESULT:      -6.3     24.316     27.508
REMARK  Name = 11885216
REMARK  4 active torsions:
REMARK  status: ('A' for Active; 'I' for Inactive)
REMARK    1  A    between atoms: S_1  and  C_30
REMARK    2  A    between atoms: S_1  and  C_31
REMARK    3  A    between atoms: N_6  and  C_15
REMARK    4  A    between atoms: C_22  and  C_25
REMARK                            x       y       z     vdW  Elec       q    Type
REMARK                         _______ _______ _______ _____ _____    ______ ____
ROOT
ATOM      2  O   UNL     1      20.053  -5.221  24.753  0.00  0.00    -0.253 OA
ATOM      3  O   UNL     1      17.015  -2.474  29.181  0.00  0.00    -0.267 OA
ATOM      4  N   UNL     1      20.790  -3.367  25.942  0.00  0.00    -0.285 N 
ATOM      5  N   UNL     1      19.219  -3.095  28.740  0.00  0.00    -0.311 N 
ATOM      6  N   UNL     1      19.217  -3.161  24.188  0.00  0.00    -0.296 N 
ATOM      7  C   UNL     1      20.903  -1.516  27.638  0.00  0.00    +0.027 C 
ATOM      8  C   UNL     1      21.595  -3.785  28.268  0.00  0.00    +0.054 C 
ATOM      9  C   UNL     1      21.950  -2.308  28.409  0.00  0.00    +0.018 C 
ATOM     10  C   UNL     1      20.891  -1.914  26.148  0.00  0.00    +0.114 C 
ATOM     11  C   UNL     1      21.671  -4.185  26.785  0.00  0.00    +0.119 C 
ATOM     12  C   UNL     1      19.536  -1.732  28.299  0.00  0.00    +0.130 C 
ATOM     13  C   UNL     1      20.209  -4.078  28.812  0.00  0.00    +0.027 A 
ATOM     14  C   UNL     1      20.021  -4.001  24.949  0.00  0.00    +0.302 C 
ATOM     16  C   UNL     1      19.927  -5.282  29.332  0.00  0.00    +0.022 A 
ATOM     17  C   UNL     1      17.905  -3.326  29.192  0.00  0.00    +0.259 A 
ATOM     22  C   UNL     1      17.609  -4.698  29.737  0.00  0.00    +0.047 A 
ATOM     24  C   UNL     1      18.604  -5.595  29.796  0.00  0.00    +0.015 A 
ATOM     32  H   UNL     1      19.308  -2.158  24.253  0.00  0.00    +0.151 HD
ENDROOT
BRANCH   6  15
ATOM     15  C   UNL     1      18.372  -3.659  23.126  0.00  0.00    +0.074 C 
ATOM     18  C   UNL     1      17.059  -4.221  23.682  0.00  0.00    +0.022 C 
ATOM     19  C   UNL     1      18.109  -2.573  22.075  0.00  0.00    +0.022 C 
ATOM     20  C   UNL     1      16.123  -3.125  24.190  0.00  0.00    +0.002 C 
ATOM     21  C   UNL     1      17.171  -1.480  22.587  0.00  0.00    +0.002 C 
ATOM     23  C   UNL     1      15.868  -2.064  23.125  0.00  0.00    +0.000 C 
ENDBRANCH   6  15
BRANCH  22  25
ATOM     25  C   UNL     1      16.255  -5.062  30.192  0.00  0.00    -0.013 A 
ATOM     26  C   UNL     1      15.712  -4.456  31.325  0.00  0.00    +0.010 A 
ATOM     27  C   UNL     1      15.516  -6.016  29.491  0.00  0.00    +0.010 A 
ATOM     28  C   UNL     1      14.431  -4.801  31.756  0.00  0.00    +0.015 A 
ATOM     29  C   UNL     1      14.236  -6.361  29.922  0.00  0.00    +0.015 A 
ATOM     30  C   UNL     1      13.693  -5.754  31.055  0.00  0.00    +0.008 A 
BRANCH  30   1
ATOM      1  S   UNL     1      12.058  -6.197  31.606  0.00  0.00    -0.129 S 
ATOM     31  C   UNL     1      11.543  -4.693  32.483  0.00  0.00    +0.090 C 
ENDBRANCH  30   1
ENDBRANCH  22  25
TORSDOF 3
ENDMDL
MODEL 7
REMARK VINA RESULT:      -6.3     26.780     30.212
REMARK  Name = 11885216
REMARK  4 active torsions:
REMARK  status: ('A' for Active; 'I' for Inactive)
REMARK    1  A    between atoms: S_1  and  C_30
REMARK    2  A    between atoms: S_1  and  C_31
REMARK    3  A    between atoms: N_6  and  C_15
REMARK    4  A    between atoms: C_22  and  C_25
REMARK                            x       y       z     vdW  Elec       q    Type
REMARK                         _______ _______ _______ _____ _____    ______ ____
ROOT
ATOM      2  O   UNL     1     -13.709  10.211  14.753  0.00  0.00    -0.253 OA
ATOM      3  O   UNL     1     -12.775   9.902  20.705  0.00  0.00    -0.267 OA
ATOM      4  N   UNL     1     -12.192  11.503  15.947  0.00  0.00    -0.285 N 
ATOM      5  N   UNL     1     -11.487  10.132  18.774  0.00  0.00    -0.311 N 
ATOM      6  N   UNL     1     -14.501  12.015  15.929  0.00  0.00    -0.296 N 
ATOM      7  C   UNL     1     -10.805  12.412  17.835  0.00  0.00    +0.027 C 
ATOM      8  C   UNL     1     -10.098  10.362  16.686  0.00  0.00    +0.054 C 
ATOM      9  C   UNL     1      -9.595  11.674  17.281  0.00  0.00    +0.018 C 
ATOM     10  C   UNL     1     -11.837  12.699  16.725  0.00  0.00    +0.114 C 
ATOM     11  C   UNL     1     -11.060  10.667  15.526  0.00  0.00    +0.119 C 
ATOM     12  C   UNL     1     -11.408  11.584  18.976  0.00  0.00    +0.130 C 
ATOM     13  C   UNL     1     -10.800   9.512  17.728  0.00  0.00    +0.027 A 
ATOM     14  C   UNL     1     -13.483  11.175  15.493  0.00  0.00    +0.302 C 
ATOM     16  C   UNL     1     -10.785   8.174  17.633  0.00  0.00    +0.022 A 
ATOM     17  C   UNL     1     -12.190   9.394  19.747  0.00  0.00    +0.259 A 
ATOM     22  C   UNL     1     -12.186   7.897  19.592  0.00  0.00    +0.047 A 
ATOM     24  C   UNL     1     -11.494   7.357  18.577  0.00  0.00    +0.015 A 
ATOM     32  H   UNL     1     -14.291  12.879  16.405  0.00  0.00    +0.151 HD
ENDROOT
BRANCH   6  15
ATOM     15  C   UNL     1     -15.881  11.814  15.546  0.00  0.00    +0.074 C 
ATOM     18  C   UNL     1     -16.648  11.050  16.629  0.00  0.00    +0.022 C 
ATOM     19  C   UNL     1     -16.562  13.148  15.219  0.00  0.00    +0.022 C 
ATOM     20  C   UNL     1     -16.905  11.899  17.874  0.00  0.00    +0.002 C 
ATOM     21  C   UNL     1     -16.818  13.994  16.467  0.00  0.00    +0.002 C 
ATOM     23  C   UNL     1     -17.592  13.215  17.525  0.00  0.00    +0.000 C 
ENDBRANCH   6  15
BRANCH  22  25
ATOM     25  C   UNL     1     -12.929   7.031  20.525  0.00  0.00    -0.013 A 
ATOM     26  C   UNL     1     -12.240   6.154  21.362  0.00  0.00    +0.010 A 
ATOM     27  C   UNL     1     -14.323   7.087  20.570  0.00  0.00    +0.010 A 
ATOM     28  C   UNL     1     -12.943   5.334  22.245  0.00  0.00    +0.015 A 
ATOM     29  C   UNL     1     -15.026   6.268  21.453  0.00  0.00    +0.015 A 
ATOM     30  C   UNL     1     -14.335   5.390  22.291  0.00  0.00    +0.008 A 
BRANCH  30   1
ATOM      1  S   UNL     1     -15.235   4.342  23.416  0.00  0.00    -0.129 S 
ATOM     31  C   UNL     1     -16.927   4.474  22.772  0.00  0.00    +0.090 C 
ENDBRANCH  30   1
ENDBRANCH  22  25
TORSDOF 3
ENDMDL
MODEL 8
REMARK VINA RESULT:      -6.3     15.121     17.772
REMARK  Name = 11885216
REMARK  4 active torsions:
REMARK  status: ('A' for Active; 'I' for Inactive)
REMARK    1  A    between atoms: S_1  and  C_30
REMARK    2  A    between atoms: S_1  and  C_31
REMARK    3  A    between atoms: N_6  and  C_15
REMARK    4  A    between atoms: C_22  and  C_25
REMARK                            x       y       z     vdW  Elec       q    Type
REMARK                         _______ _______ _______ _____ _____    ______ ____
ROOT
ATOM      2  O   UNL     1      -1.610   9.621   1.802  0.00  0.00    -0.253 OA
ATOM      3  O   UNL     1      -6.462   9.735   5.384  0.00  0.00    -0.267 OA
ATOM      4  N   UNL     1      -1.694  10.558   3.926  0.00  0.00    -0.285 N 
ATOM      5  N   UNL     1      -4.169   9.372   5.609  0.00  0.00    -0.311 N 
ATOM      6  N   UNL     1      -2.559  11.696   2.042  0.00  0.00    -0.296 N 
ATOM      7  C   UNL     1      -2.527  11.245   6.194  0.00  0.00    +0.027 C 
ATOM      8  C   UNL     1      -1.695   8.963   5.846  0.00  0.00    +0.054 C 
ATOM      9  C   UNL     1      -1.692  10.137   6.820  0.00  0.00    +0.018 C 
ATOM     10  C   UNL     1      -1.941  11.685   4.838  0.00  0.00    +0.114 C 
ATOM     11  C   UNL     1      -1.031   9.394   4.528  0.00  0.00    +0.119 C 
ATOM     12  C   UNL     1      -3.974  10.755   6.061  0.00  0.00    +0.130 C 
ATOM     13  C   UNL     1      -3.104   8.469   5.576  0.00  0.00    +0.027 A 
ATOM     14  C   UNL     1      -1.934  10.559   2.539  0.00  0.00    +0.302 C 
ATOM     16  C   UNL     1      -3.325   7.179   5.279  0.00  0.00    +0.022 A 
ATOM     17  C   UNL     1      -5.492   8.977   5.328  0.00  0.00    +0.259 A 
ATOM     22  C   UNL     1      -5.702   7.533   4.961  0.00  0.00    +0.047 A 
ATOM     24  C   UNL     1      -4.644   6.708   4.962  0.00  0.00    +0.015 A 
ATOM     32  H   UNL     1      -2.683  12.514   2.619  0.00  0.00    +0.151 HD
ENDROOT
BRANCH   6  15
ATOM     15  C   UNL     1      -2.869  11.851   0.638  0.00  0.00    +0.074 C 
ATOM     18  C   UNL     1      -4.272  11.323   0.321  0.00  0.00    +0.022 C 
ATOM     19  C   UNL     1      -2.713  13.312   0.197  0.00  0.00    +0.022 C 
ATOM     20  C   UNL     1      -5.375  12.225   0.874  0.00  0.00    +0.002 C 
ATOM     21  C   UNL     1      -3.819  14.210   0.751  0.00  0.00    +0.002 C 
ATOM     23  C   UNL     1      -5.205  13.669   0.414  0.00  0.00    +0.000 C 
ENDBRANCH   6  15
BRANCH  22  25
ATOM     25  C   UNL     1      -7.037   7.023   4.600  0.00  0.00    -0.013 A 
ATOM     26  C   UNL     1      -7.631   6.019   5.364  0.00  0.00    +0.010 A 
ATOM     27  C   UNL     1      -7.707   7.543   3.492  0.00  0.00    +0.010 A 
ATOM     28  C   UNL     1      -8.895   5.536   5.023  0.00  0.00    +0.015 A 
ATOM     29  C   UNL     1      -8.970   7.062   3.151  0.00  0.00    +0.015 A 
ATOM     30  C   UNL     1      -9.564   6.057   3.916  0.00  0.00    +0.008 A 
BRANCH  30   1
ATOM      1  S   UNL     1     -11.177   5.440   3.478  0.00  0.00    -0.129 S 
ATOM     31  C   UNL     1     -11.249   5.822   1.704  0.00  0.00    +0.090 C 
ENDBRANCH  30   1
ENDBRANCH  22  25
TORSDOF 3
ENDMDL
MODEL 9
REMARK VINA RESULT:      -6.3     29.463     32.833
REMARK  Name = 11885216
REMARK  4 active torsions:
REMARK  status: ('A' for Active; 'I' for Inactive)
REMARK    1  A    between atoms: S_1  and  C_30
REMARK    2  A    between atoms: S_1  and  C_31
REMARK    3  A    between atoms: N_6  and  C_15
REMARK    4  A    between atoms: C_22  and  C_25
REMARK                            x       y       z     vdW  Elec       q    Type
REMARK                         _______ _______ _______ _____ _____    ______ ____
ROOT
ATOM      2  O   UNL     1     -14.788  11.145  21.292  0.00  0.00    -0.253 OA
ATOM      3  O   UNL     1     -13.329   5.522  22.915  0.00  0.00    -0.267 OA
ATOM      4  N   UNL     1     -13.092   9.869  20.349  0.00  0.00    -0.285 N 
ATOM      5  N   UNL     1     -13.548   6.736  20.937  0.00  0.00    -0.311 N 
ATOM      6  N   UNL     1     -12.797  10.974  22.419  0.00  0.00    -0.296 N 
ATOM      7  C   UNL     1     -11.577   7.933  19.828  0.00  0.00    +0.027 C 
ATOM      8  C   UNL     1     -13.803   8.045  18.800  0.00  0.00    +0.054 C 
ATOM      9  C   UNL     1     -12.340   7.706  18.531  0.00  0.00    +0.018 C 
ATOM     10  C   UNL     1     -11.700   9.397  20.295  0.00  0.00    +0.114 C 
ATOM     11  C   UNL     1     -13.917   9.530  19.182  0.00  0.00    +0.119 C 
ATOM     12  C   UNL     1     -12.096   6.950  20.884  0.00  0.00    +0.130 C 
ATOM     13  C   UNL     1     -14.379   7.182  19.906  0.00  0.00    +0.027 A 
ATOM     14  C   UNL     1     -13.640  10.693  21.350  0.00  0.00    +0.302 C 
ATOM     16  C   UNL     1     -15.684   6.870  19.912  0.00  0.00    +0.022 A 
ATOM     17  C   UNL     1     -14.037   5.965  22.010  0.00  0.00    +0.259 A 
ATOM     22  C   UNL     1     -15.511   5.664  22.008  0.00  0.00    +0.047 A 
ATOM     24  C   UNL     1     -16.257   6.104  20.983  0.00  0.00    +0.015 A 
ATOM     32  H   UNL     1     -11.819  10.727  22.388  0.00  0.00    +0.151 HD
ENDROOT
BRANCH   6  15
ATOM     15  C   UNL     1     -13.210  11.809  23.525  0.00  0.00    +0.074 C 
ATOM     18  C   UNL     1     -14.338  11.149  24.324  0.00  0.00    +0.022 C 
ATOM     19  C   UNL     1     -12.021  12.156  24.428  0.00  0.00    +0.022 C 
ATOM     20  C   UNL     1     -13.853   9.953  25.143  0.00  0.00    +0.002 C 
ATOM     21  C   UNL     1     -11.539  10.958  25.246  0.00  0.00    +0.002 C 
ATOM     23  C   UNL     1     -12.678  10.326  26.040  0.00  0.00    +0.000 C 
ENDBRANCH   6  15
BRANCH  22  25
ATOM     25  C   UNL     1     -16.137   4.908  23.107  0.00  0.00    -0.013 A 
ATOM     26  C   UNL     1     -16.737   5.586  24.168  0.00  0.00    +0.010 A 
ATOM     27  C   UNL     1     -16.128   3.512  23.089  0.00  0.00    +0.010 A 
ATOM     28  C   UNL     1     -17.330   4.870  25.209  0.00  0.00    +0.015 A 
ATOM     29  C   UNL     1     -16.720   2.797  24.128  0.00  0.00    +0.015 A 
ATOM     30  C   UNL     1     -17.321   3.476  25.190  0.00  0.00    +0.008 A 
BRANCH  30   1
ATOM      1  S   UNL     1     -18.075   2.561  26.519  0.00  0.00    -0.129 S 
ATOM     31  C   UNL     1     -17.198   0.974  26.419  0.00  0.00    +0.090 C 
ENDBRANCH  30   1
ENDBRANCH  22  25
TORSDOF 3
ENDMDL
MODEL 10
REMARK VINA RESULT:      -6.2     14.681     17.538
REMARK  Name = 11885216
REMARK  4 active torsions:
REMARK  status: ('A' for Active; 'I' for Inactive)
REMARK    1  A    between atoms: S_1  and  C_30
REMARK    2  A    between atoms: S_1  and  C_31
REMARK    3  A    between atoms: N_6  and  C_15
REMARK    4  A    between atoms: C_22  and  C_25
REMARK                            x       y       z     vdW  Elec       q    Type
REMARK                         _______ _______ _______ _____ _____    ______ ____
ROOT
ATOM      2  O   UNL     1      -1.099   8.822   0.249  0.00  0.00    -0.253 OA
ATOM      3  O   UNL     1      -5.579  10.893   3.718  0.00  0.00    -0.267 OA
ATOM      4  N   UNL     1      -1.088  10.839   1.402  0.00  0.00    -0.285 N 
ATOM      5  N   UNL     1      -3.249  10.813   3.788  0.00  0.00    -0.311 N 
ATOM      6  N   UNL     1      -2.245  10.597  -0.647  0.00  0.00    -0.296 N 
ATOM      7  C   UNL     1      -1.777  12.717   2.921  0.00  0.00    +0.027 C 
ATOM      8  C   UNL     1      -0.734  10.708   3.869  0.00  0.00    +0.054 C 
ATOM      9  C   UNL     1      -0.769  12.231   3.954  0.00  0.00    +0.018 C 
ATOM     10  C   UNL     1      -1.372  12.279   1.500  0.00  0.00    +0.114 C 
ATOM     11  C   UNL     1      -0.247  10.289   2.472  0.00  0.00    +0.119 C 
ATOM     12  C   UNL     1      -3.167  12.197   3.307  0.00  0.00    +0.130 C 
ATOM     13  C   UNL     1      -2.099  10.104   4.143  0.00  0.00    +0.027 A 
ATOM     14  C   UNL     1      -1.454  10.003   0.330  0.00  0.00    +0.302 C 
ATOM     16  C   UNL     1      -2.202   8.886   4.695  0.00  0.00    +0.022 A 
ATOM     17  C   UNL     1      -4.541  10.284   3.982  0.00  0.00    +0.259 A 
ATOM     22  C   UNL     1      -4.623   8.901   4.569  0.00  0.00    +0.047 A 
ATOM     24  C   UNL     1      -3.485   8.276   4.905  0.00  0.00    +0.015 A 
ATOM     32  H   UNL     1      -2.404  11.593  -0.650  0.00  0.00    +0.151 HD
ENDROOT
BRANCH   6  15
ATOM     15  C   UNL     1      -2.700   9.872  -1.812  0.00  0.00    +0.074 C 
ATOM     18  C   UNL     1      -4.193   9.545  -1.711  0.00  0.00    +0.022 C 
ATOM     19  C   UNL     1      -2.388  10.646  -3.099  0.00  0.00    +0.022 C 
ATOM     20  C   UNL     1      -5.076  10.781  -1.882  0.00  0.00    +0.002 C 
ATOM     21  C   UNL     1      -3.274  11.881  -3.267  0.00  0.00    +0.002 C 
ATOM     23  C   UNL     1      -4.755  11.527  -3.173  0.00  0.00    +0.000 C 
ENDBRANCH   6  15
BRANCH  22  25
ATOM     25  C   UNL     1      -5.922   8.233   4.769  0.00  0.00    -0.013 A 
ATOM     26  C   UNL     1      -6.950   8.892   5.443  0.00  0.00    +0.010 A 
ATOM     27  C   UNL     1      -6.124   6.940   4.285  0.00  0.00    +0.010 A 
ATOM     28  C   UNL     1      -8.179   8.260   5.633  0.00  0.00    +0.015 A 
ATOM     29  C   UNL     1      -7.352   6.307   4.474  0.00  0.00    +0.015 A 
ATOM     30  C   UNL     1      -8.380   6.968   5.149  0.00  0.00    +0.008 A 
BRANCH  30   1
ATOM      1  S   UNL     1      -9.948   6.158   5.392  0.00  0.00    -0.129 S 
ATOM     31  C   UNL     1      -9.810   4.739   4.269  0.00  0.00    +0.090 C 
ENDBRANCH  30   1
ENDBRANCH  22  25
TORSDOF 3
ENDMDL
