MODEL 1
REMARK VINA RESULT:      -7.8      0.000      0.000
REMARK  Name = 51137360
REMARK  6 active torsions:
REMARK  status: ('A' for Active; 'I' for Inactive)
REMARK    1  A    between atoms: N_2  and  C_11
REMARK    2  A    between atoms: C_7  and  C_12
REMARK    3  A    between atoms: C_11  and  C_13
REMARK    4  A    between atoms: C_14  and  C_15
REMARK    5  A    between atoms: C_15  and  C_18
REMARK    6  A    between atoms: C_24  and  C_29
REMARK                            x       y       z     vdW  Elec       q    Type
REMARK                         _______ _______ _______ _____ _____    ______ ____
ROOT
ATOM      1  O   UNL     1     -15.321   2.423  29.252  0.00  0.00    -0.424 OA
ATOM      3  N   UNL     1     -16.099   0.499  28.418  0.00  0.00    -0.112 NA
ATOM      4  N   UNL     1     -15.098   0.198  29.324  0.00  0.00    -0.112 NA
ATOM     12  C   UNL     1     -16.195   1.807  28.409  0.00  0.00    +0.222 A 
ATOM     14  C   UNL     1     -14.673   1.351  29.785  0.00  0.00    +0.222 A 
ENDROOT
BRANCH  12   7
ATOM      2  N   UNL     1     -16.521   3.659  25.521  0.00  0.00    -0.297 NA
ATOM      7  C   UNL     1     -17.118   2.701  27.611  0.00  0.00    +0.092 C 
ATOM      8  C   UNL     1     -16.775   4.191  27.760  0.00  0.00    +0.029 C 
ATOM      9  C   UNL     1     -17.111   2.445  26.094  0.00  0.00    +0.097 C 
ATOM     10  C   UNL     1     -16.980   4.760  26.366  0.00  0.00    +0.085 C 
BRANCH   2  11
ATOM     11  C   UNL     1     -16.872   3.845  24.122  0.00  0.00    +0.119 C 
BRANCH  11  13
ATOM     13  C   UNL     1     -15.764   4.511  23.349  0.00  0.00    -0.033 A 
ATOM     16  C   UNL     1     -14.447   4.423  23.801  0.00  0.00    +0.006 A 
ATOM     17  C   UNL     1     -16.055   5.217  22.181  0.00  0.00    +0.006 A 
ATOM     22  C   UNL     1     -13.422   5.040  23.086  0.00  0.00    +0.019 A 
ATOM     23  C   UNL     1     -15.029   5.834  21.465  0.00  0.00    +0.019 A 
ATOM     24  C   UNL     1     -13.713   5.745  21.917  0.00  0.00    +0.052 A 
BRANCH  24  29
ATOM      6  N   UNL     1     -11.809   6.892  20.589  0.00  0.00    -0.191 NA
ATOM     29  C   UNL     1     -12.662   6.378  21.184  0.00  0.00    +0.099 C 
ENDBRANCH  24  29
ENDBRANCH  11  13
ENDBRANCH   2  11
ENDBRANCH  12   7
BRANCH  14  15
ATOM     15  C   UNL     1     -13.624   1.633  30.773  0.00  0.00    +0.135 C 
BRANCH  15  18
ATOM      5  N   UNL     1     -15.037   2.118  34.156  0.00  0.00    -0.360 N 
ATOM     18  C   UNL     1     -14.136   2.111  32.128  0.00  0.00    -0.013 A 
ATOM     19  C   UNL     1     -14.105   3.445  32.623  0.00  0.00    +0.003 A 
ATOM     20  C   UNL     1     -14.676   3.421  33.898  0.00  0.00    +0.047 A 
ATOM     21  C   UNL     1     -14.715   1.319  33.092  0.00  0.00    +0.087 A 
ATOM     25  C   UNL     1     -13.644   4.673  32.109  0.00  0.00    +0.010 A 
ATOM     26  C   UNL     1     -14.810   4.570  34.685  0.00  0.00    +0.026 A 
ATOM     27  C   UNL     1     -13.771   5.829  32.886  0.00  0.00    +0.001 A 
ATOM     28  C   UNL     1     -14.346   5.776  34.154  0.00  0.00    +0.002 A 
ATOM     30  H   UNL     1     -15.477   1.799  35.009  0.00  0.00    +0.165 HD
ENDBRANCH  15  18
ENDBRANCH  14  15
TORSDOF 6
ENDMDL
MODEL 2
REMARK VINA RESULT:      -7.5     30.234     33.974
REMARK  Name = 51137360
REMARK  6 active torsions:
REMARK  status: ('A' for Active; 'I' for Inactive)
REMARK    1  A    between atoms: N_2  and  C_11
REMARK    2  A    between atoms: C_7  and  C_12
REMARK    3  A    between atoms: C_11  and  C_13
REMARK    4  A    between atoms: C_14  and  C_15
REMARK    5  A    between atoms: C_15  and  C_18
REMARK    6  A    between atoms: C_24  and  C_29
REMARK                            x       y       z     vdW  Elec       q    Type
REMARK                         _______ _______ _______ _____ _____    ______ ____
ROOT
ATOM      1  O   UNL     1      13.484   9.177  18.117  0.00  0.00    -0.424 OA
ATOM      3  N   UNL     1      13.879   8.600  15.991  0.00  0.00    -0.112 NA
ATOM      4  N   UNL     1      13.639   7.444  16.710  0.00  0.00    -0.112 NA
ATOM     12  C   UNL     1      13.778   9.586  16.852  0.00  0.00    +0.222 A 
ATOM     14  C   UNL     1      13.414   7.828  17.945  0.00  0.00    +0.222 A 
ENDROOT
BRANCH  12   7
ATOM      2  N   UNL     1      16.052  12.140  16.432  0.00  0.00    -0.297 NA
ATOM      7  C   UNL     1      13.939  11.075  16.637  0.00  0.00    +0.092 C 
ATOM      8  C   UNL     1      14.312  11.823  17.926  0.00  0.00    +0.029 C 
ATOM      9  C   UNL     1      15.032  11.465  15.625  0.00  0.00    +0.097 C 
ATOM     10  C   UNL     1      15.322  12.864  17.472  0.00  0.00    +0.085 C 
BRANCH   2  11
ATOM     11  C   UNL     1      16.905  13.013  15.640  0.00  0.00    +0.119 C 
BRANCH  11  13
ATOM     13  C   UNL     1      18.294  12.451  15.486  0.00  0.00    -0.033 A 
ATOM     16  C   UNL     1      19.273  12.741  16.435  0.00  0.00    +0.006 A 
ATOM     17  C   UNL     1      18.600  11.639  14.392  0.00  0.00    +0.006 A 
ATOM     22  C   UNL     1      20.558  12.220  16.292  0.00  0.00    +0.019 A 
ATOM     23  C   UNL     1      19.885  11.118  14.249  0.00  0.00    +0.019 A 
ATOM     24  C   UNL     1      20.865  11.408  15.199  0.00  0.00    +0.052 A 
BRANCH  24  29
ATOM      6  N   UNL     1      23.252  10.442  14.933  0.00  0.00    -0.191 NA
ATOM     29  C   UNL     1      22.182  10.874  15.052  0.00  0.00    +0.099 C 
ENDBRANCH  24  29
ENDBRANCH  11  13
ENDBRANCH   2  11
ENDBRANCH  12   7
BRANCH  14  15
ATOM     15  C   UNL     1      13.102   7.022  19.132  0.00  0.00    +0.135 C 
BRANCH  15  18
ATOM      5  N   UNL     1      15.233   7.225  22.148  0.00  0.00    -0.360 N 
ATOM     18  C   UNL     1      14.191   7.013  20.200  0.00  0.00    -0.013 A 
ATOM     19  C   UNL     1      15.552   6.638  20.019  0.00  0.00    +0.003 A 
ATOM     20  C   UNL     1      16.184   6.780  21.256  0.00  0.00    +0.047 A 
ATOM     21  C   UNL     1      14.025   7.368  21.519  0.00  0.00    +0.087 A 
ATOM     25  C   UNL     1      16.309   6.191  18.918  0.00  0.00    +0.010 A 
ATOM     26  C   UNL     1      17.541   6.497  21.448  0.00  0.00    +0.026 A 
ATOM     27  C   UNL     1      17.667   5.902  19.096  0.00  0.00    +0.001 A 
ATOM     28  C   UNL     1      18.271   6.054  20.342  0.00  0.00    +0.002 A 
ATOM     30  H   UNL     1      15.404   7.417  23.126  0.00  0.00    +0.165 HD
ENDBRANCH  15  18
ENDBRANCH  14  15
TORSDOF 6
ENDMDL
MODEL 3
REMARK VINA RESULT:      -7.4     27.669     31.000
REMARK  Name = 51137360
REMARK  6 active torsions:
REMARK  status: ('A' for Active; 'I' for Inactive)
REMARK    1  A    between atoms: N_2  and  C_11
REMARK    2  A    between atoms: C_7  and  C_12
REMARK    3  A    between atoms: C_11  and  C_13
REMARK    4  A    between atoms: C_14  and  C_15
REMARK    5  A    between atoms: C_15  and  C_18
REMARK    6  A    between atoms: C_24  and  C_29
REMARK                            x       y       z     vdW  Elec       q    Type
REMARK                         _______ _______ _______ _____ _____    ______ ____
ROOT
ATOM      1  O   UNL     1      11.866   9.623  20.727  0.00  0.00    -0.424 OA
ATOM      3  N   UNL     1      10.776   7.892  21.632  0.00  0.00    -0.112 NA
ATOM      4  N   UNL     1      10.471   9.021  22.369  0.00  0.00    -0.112 NA
ATOM     12  C   UNL     1      11.592   8.290  20.684  0.00  0.00    +0.222 A 
ATOM     14  C   UNL     1      11.129  10.007  21.806  0.00  0.00    +0.222 A 
ENDROOT
BRANCH  12   7
ATOM      2  N   UNL     1      14.601   7.446  19.233  0.00  0.00    -0.297 NA
ATOM      7  C   UNL     1      12.251   7.493  19.581  0.00  0.00    +0.092 C 
ATOM      8  C   UNL     1      12.654   8.363  18.380  0.00  0.00    +0.029 C 
ATOM      9  C   UNL     1      13.546   6.770  19.994  0.00  0.00    +0.097 C 
ATOM     10  C   UNL     1      13.999   7.802  17.949  0.00  0.00    +0.085 C 
BRANCH   2  11
ATOM     11  C   UNL     1      15.794   6.627  19.082  0.00  0.00    +0.119 C 
BRANCH  11  13
ATOM     13  C   UNL     1      16.883   7.041  20.037  0.00  0.00    -0.033 A 
ATOM     16  C   UNL     1      17.996   6.221  20.223  0.00  0.00    +0.006 A 
ATOM     17  C   UNL     1      16.777   8.245  20.735  0.00  0.00    +0.006 A 
ATOM     22  C   UNL     1      19.003   6.605  21.107  0.00  0.00    +0.019 A 
ATOM     23  C   UNL     1      17.786   8.629  21.618  0.00  0.00    +0.019 A 
ATOM     24  C   UNL     1      18.899   7.809  21.804  0.00  0.00    +0.052 A 
BRANCH  24  29
ATOM      6  N   UNL     1      20.770   8.522  23.446  0.00  0.00    -0.191 NA
ATOM     29  C   UNL     1      19.932   8.202  22.710  0.00  0.00    +0.099 C 
ENDBRANCH  24  29
ENDBRANCH  11  13
ENDBRANCH   2  11
ENDBRANCH  12   7
BRANCH  14  15
ATOM     15  C   UNL     1      11.175  11.429  22.170  0.00  0.00    +0.135 C 
BRANCH  15  18
ATOM      5  N   UNL     1      11.853  12.137  25.735  0.00  0.00    -0.360 N 
ATOM     18  C   UNL     1      11.733  11.713  23.560  0.00  0.00    -0.013 A 
ATOM     19  C   UNL     1      13.106  11.824  23.917  0.00  0.00    +0.003 A 
ATOM     20  C   UNL     1      13.154  12.090  25.287  0.00  0.00    +0.047 A 
ATOM     21  C   UNL     1      10.987  11.910  24.699  0.00  0.00    +0.087 A 
ATOM     25  C   UNL     1      14.317  11.724  23.203  0.00  0.00    +0.010 A 
ATOM     26  C   UNL     1      14.357  12.261  25.981  0.00  0.00    +0.026 A 
ATOM     27  C   UNL     1      15.527  11.891  23.885  0.00  0.00    +0.001 A 
ATOM     28  C   UNL     1      15.544  12.156  25.253  0.00  0.00    +0.002 A 
ATOM     30  H   UNL     1      11.578  12.313  26.693  0.00  0.00    +0.165 HD
ENDBRANCH  15  18
ENDBRANCH  14  15
TORSDOF 6
ENDMDL
MODEL 4
REMARK VINA RESULT:      -7.1      1.915      3.096
REMARK  Name = 51137360
REMARK  6 active torsions:
REMARK  status: ('A' for Active; 'I' for Inactive)
REMARK    1  A    between atoms: N_2  and  C_11
REMARK    2  A    between atoms: C_7  and  C_12
REMARK    3  A    between atoms: C_11  and  C_13
REMARK    4  A    between atoms: C_14  and  C_15
REMARK    5  A    between atoms: C_15  and  C_18
REMARK    6  A    between atoms: C_24  and  C_29
REMARK                            x       y       z     vdW  Elec       q    Type
REMARK                         _______ _______ _______ _____ _____    ______ ____
ROOT
ATOM      1  O   UNL     1     -17.295   2.560  26.943  0.00  0.00    -0.424 OA
ATOM      3  N   UNL     1     -16.499   1.474  25.157  0.00  0.00    -0.112 NA
ATOM      4  N   UNL     1     -16.262   0.692  26.273  0.00  0.00    -0.112 NA
ATOM     12  C   UNL     1     -17.103   2.553  25.595  0.00  0.00    +0.222 A 
ATOM     14  C   UNL     1     -16.743   1.366  27.292  0.00  0.00    +0.222 A 
ENDROOT
BRANCH  12   7
ATOM      2  N   UNL     1     -16.409   4.742  23.026  0.00  0.00    -0.297 NA
ATOM      7  C   UNL     1     -17.603   3.758  24.829  0.00  0.00    +0.092 C 
ATOM      8  C   UNL     1     -16.916   5.062  25.262  0.00  0.00    +0.029 C 
ATOM      9  C   UNL     1     -17.388   3.688  23.306  0.00  0.00    +0.097 C 
ATOM     10  C   UNL     1     -16.711   5.823  23.963  0.00  0.00    +0.085 C 
BRANCH   2  11
ATOM     11  C   UNL     1     -16.440   5.181  21.640  0.00  0.00    +0.119 C 
BRANCH  11  13
ATOM     13  C   UNL     1     -15.172   5.893  21.248  0.00  0.00    -0.033 A 
ATOM     16  C   UNL     1     -15.222   6.969  20.362  0.00  0.00    +0.006 A 
ATOM     17  C   UNL     1     -13.948   5.476  21.772  0.00  0.00    +0.006 A 
ATOM     22  C   UNL     1     -14.047   7.628  20.000  0.00  0.00    +0.019 A 
ATOM     23  C   UNL     1     -12.774   6.136  21.410  0.00  0.00    +0.019 A 
ATOM     24  C   UNL     1     -12.823   7.212  20.525  0.00  0.00    +0.052 A 
BRANCH  24  29
ATOM      6  N   UNL     1     -10.642   8.436  19.853  0.00  0.00    -0.191 NA
ATOM     29  C   UNL     1     -11.620   7.887  20.153  0.00  0.00    +0.099 C 
ENDBRANCH  24  29
ENDBRANCH  11  13
ENDBRANCH   2  11
ENDBRANCH  12   7
BRANCH  14  15
ATOM     15  C   UNL     1     -16.767   1.013  28.717  0.00  0.00    +0.135 C 
BRANCH  15  18
ATOM      5  N   UNL     1     -13.400   1.026  30.245  0.00  0.00    -0.360 N 
ATOM     18  C   UNL     1     -15.461   1.272  29.460  0.00  0.00    -0.013 A 
ATOM     19  C   UNL     1     -15.157   2.401  30.272  0.00  0.00    +0.003 A 
ATOM     20  C   UNL     1     -13.857   2.221  30.751  0.00  0.00    +0.047 A 
ATOM     21  C   UNL     1     -14.362   0.444  29.464  0.00  0.00    +0.087 A 
ATOM     25  C   UNL     1     -15.863   3.562  30.644  0.00  0.00    +0.010 A 
ATOM     26  C   UNL     1     -13.227   3.149  31.589  0.00  0.00    +0.026 A 
ATOM     27  C   UNL     1     -15.245   4.498  31.480  0.00  0.00    +0.001 A 
ATOM     28  C   UNL     1     -13.947   4.292  31.944  0.00  0.00    +0.002 A 
ATOM     30  H   UNL     1     -12.485   0.634  30.426  0.00  0.00    +0.165 HD
ENDBRANCH  15  18
ENDBRANCH  14  15
TORSDOF 6
ENDMDL
MODEL 5
REMARK VINA RESULT:      -7.1     20.671     24.621
REMARK  Name = 51137360
REMARK  6 active torsions:
REMARK  status: ('A' for Active; 'I' for Inactive)
REMARK    1  A    between atoms: N_2  and  C_11
REMARK    2  A    between atoms: C_7  and  C_12
REMARK    3  A    between atoms: C_11  and  C_13
REMARK    4  A    between atoms: C_14  and  C_15
REMARK    5  A    between atoms: C_15  and  C_18
REMARK    6  A    between atoms: C_24  and  C_29
REMARK                            x       y       z     vdW  Elec       q    Type
REMARK                         _______ _______ _______ _____ _____    ______ ____
ROOT
ATOM      1  O   UNL     1      -2.479 -10.407  12.283  0.00  0.00    -0.424 OA
ATOM      3  N   UNL     1      -3.051 -12.531  11.876  0.00  0.00    -0.112 NA
ATOM      4  N   UNL     1      -3.284 -11.798  10.726  0.00  0.00    -0.112 NA
ATOM     12  C   UNL     1      -2.582 -11.679  12.757  0.00  0.00    +0.222 A 
ATOM     14  C   UNL     1      -2.936 -10.564  11.010  0.00  0.00    +0.222 A 
ENDROOT
BRANCH  12   7
ATOM      2  N   UNL     1      -3.314 -11.019  16.058  0.00  0.00    -0.297 NA
ATOM      7  C   UNL     1      -2.152 -11.911  14.188  0.00  0.00    +0.092 C 
ATOM      8  C   UNL     1      -1.406 -10.707  14.785  0.00  0.00    +0.029 C 
ATOM      9  C   UNL     1      -3.304 -12.185  15.171  0.00  0.00    +0.097 C 
ATOM     10  C   UNL     1      -1.914 -10.627  16.215  0.00  0.00    +0.085 C 
BRANCH   2  11
ATOM     11  C   UNL     1      -3.963 -11.290  17.332  0.00  0.00    +0.119 C 
BRANCH  11  13
ATOM     13  C   UNL     1      -5.346 -10.698  17.394  0.00  0.00    -0.033 A 
ATOM     16  C   UNL     1      -6.163 -10.946  18.497  0.00  0.00    +0.006 A 
ATOM     17  C   UNL     1      -5.810  -9.901  16.347  0.00  0.00    +0.006 A 
ATOM     22  C   UNL     1      -7.443 -10.397  18.553  0.00  0.00    +0.019 A 
ATOM     23  C   UNL     1      -7.091  -9.351  16.404  0.00  0.00    +0.019 A 
ATOM     24  C   UNL     1      -7.907  -9.599  17.507  0.00  0.00    +0.052 A 
BRANCH  24  29
ATOM      6  N   UNL     1     -10.286  -8.581  17.612  0.00  0.00    -0.191 NA
ATOM     29  C   UNL     1      -9.220  -9.037  17.565  0.00  0.00    +0.099 C 
ENDBRANCH  24  29
ENDBRANCH  11  13
ENDBRANCH   2  11
ENDBRANCH  12   7
BRANCH  14  15
ATOM     15  C   UNL     1      -2.968  -9.365  10.163  0.00  0.00    +0.135 C 
BRANCH  15  18
ATOM      5  N   UNL     1      -6.307  -8.122   9.171  0.00  0.00    -0.360 N 
ATOM     18  C   UNL     1      -4.329  -9.056   9.549  0.00  0.00    -0.013 A 
ATOM     19  C   UNL     1      -4.926  -9.713   8.436  0.00  0.00    +0.003 A 
ATOM     20  C   UNL     1      -6.166  -9.107   8.220  0.00  0.00    +0.047 A 
ATOM     21  C   UNL     1      -5.202  -8.083   9.979  0.00  0.00    +0.087 A 
ATOM     25  C   UNL     1      -4.529 -10.767   7.589  0.00  0.00    +0.010 A 
ATOM     26  C   UNL     1      -7.032  -9.507   7.196  0.00  0.00    +0.026 A 
ATOM     27  C   UNL     1      -5.385 -11.175   6.560  0.00  0.00    +0.001 A 
ATOM     28  C   UNL     1      -6.617 -10.553   6.368  0.00  0.00    +0.002 A 
ATOM     30  H   UNL     1      -7.111  -7.516   9.259  0.00  0.00    +0.165 HD
ENDBRANCH  15  18
ENDBRANCH  14  15
TORSDOF 6
ENDMDL
MODEL 6
REMARK VINA RESULT:      -7.0     30.444     32.172
REMARK  Name = 51137360
REMARK  6 active torsions:
REMARK  status: ('A' for Active; 'I' for Inactive)
REMARK    1  A    between atoms: N_2  and  C_11
REMARK    2  A    between atoms: C_7  and  C_12
REMARK    3  A    between atoms: C_11  and  C_13
REMARK    4  A    between atoms: C_14  and  C_15
REMARK    5  A    between atoms: C_15  and  C_18
REMARK    6  A    between atoms: C_24  and  C_29
REMARK                            x       y       z     vdW  Elec       q    Type
REMARK                         _______ _______ _______ _____ _____    ______ ____
ROOT
ATOM      1  O   UNL     1      14.023   9.293  17.816  0.00  0.00    -0.424 OA
ATOM      3  N   UNL     1      13.955   8.311  15.807  0.00  0.00    -0.112 NA
ATOM      4  N   UNL     1      13.608   7.367  16.757  0.00  0.00    -0.112 NA
ATOM     12  C   UNL     1      14.187   9.419  16.470  0.00  0.00    +0.222 A 
ATOM     14  C   UNL     1      13.661   7.984  17.914  0.00  0.00    +0.222 A 
ENDROOT
BRANCH  12   7
ATOM      2  N   UNL     1      13.788  11.715  13.932  0.00  0.00    -0.297 NA
ATOM      7  C   UNL     1      14.603  10.780  15.958  0.00  0.00    +0.092 C 
ATOM      8  C   UNL     1      15.657  10.697  14.844  0.00  0.00    +0.029 C 
ATOM      9  C   UNL     1      13.461  11.619  15.358  0.00  0.00    +0.097 C 
ATOM     10  C   UNL     1      15.247  11.783  13.863  0.00  0.00    +0.085 C 
BRANCH   2  11
ATOM     11  C   UNL     1      13.145  12.848  13.286  0.00  0.00    +0.119 C 
BRANCH  11  13
ATOM     13  C   UNL     1      12.295  12.420  12.118  0.00  0.00    -0.033 A 
ATOM     16  C   UNL     1      12.868  12.277  10.854  0.00  0.00    +0.006 A 
ATOM     17  C   UNL     1      10.936  12.166  12.301  0.00  0.00    +0.006 A 
ATOM     22  C   UNL     1      12.081  11.881   9.774  0.00  0.00    +0.019 A 
ATOM     23  C   UNL     1      10.149  11.768  11.220  0.00  0.00    +0.019 A 
ATOM     24  C   UNL     1      10.722  11.626   9.957  0.00  0.00    +0.052 A 
BRANCH  24  29
ATOM      6  N   UNL     1       9.261  10.890   7.949  0.00  0.00    -0.191 NA
ATOM     29  C   UNL     1       9.916  11.219   8.849  0.00  0.00    +0.099 C 
ENDBRANCH  24  29
ENDBRANCH  11  13
ENDBRANCH   2  11
ENDBRANCH  12   7
BRANCH  14  15
ATOM     15  C   UNL     1      13.389   7.469  19.262  0.00  0.00    +0.135 C 
BRANCH  15  18
ATOM      5  N   UNL     1      15.856   7.940  21.976  0.00  0.00    -0.360 N 
ATOM     18  C   UNL     1      14.581   7.507  20.211  0.00  0.00    -0.013 A 
ATOM     19  C   UNL     1      15.853   6.905  19.999  0.00  0.00    +0.003 A 
ATOM     20  C   UNL     1      16.634   7.192  21.121  0.00  0.00    +0.047 A 
ATOM     21  C   UNL     1      14.614   8.135  21.435  0.00  0.00    +0.087 A 
ATOM     25  C   UNL     1      16.417   6.141  18.958  0.00  0.00    +0.010 A 
ATOM     26  C   UNL     1      17.956   6.752  21.253  0.00  0.00    +0.026 A 
ATOM     27  C   UNL     1      17.737   5.694  19.077  0.00  0.00    +0.001 A 
ATOM     28  C   UNL     1      18.493   5.995  20.208  0.00  0.00    +0.002 A 
ATOM     30  H   UNL     1      16.160   8.293  22.873  0.00  0.00    +0.165 HD
ENDBRANCH  15  18
ENDBRANCH  14  15
TORSDOF 6
ENDMDL
MODEL 7
REMARK VINA RESULT:      -7.0     33.610     38.394
REMARK  Name = 51137360
REMARK  6 active torsions:
REMARK  status: ('A' for Active; 'I' for Inactive)
REMARK    1  A    between atoms: N_2  and  C_11
REMARK    2  A    between atoms: C_7  and  C_12
REMARK    3  A    between atoms: C_11  and  C_13
REMARK    4  A    between atoms: C_14  and  C_15
REMARK    5  A    between atoms: C_15  and  C_18
REMARK    6  A    between atoms: C_24  and  C_29
REMARK                            x       y       z     vdW  Elec       q    Type
REMARK                         _______ _______ _______ _____ _____    ______ ____
ROOT
ATOM      1  O   UNL     1      11.325   4.298   3.127  0.00  0.00    -0.424 OA
ATOM      3  N   UNL     1      10.167   5.642   1.762  0.00  0.00    -0.112 NA
ATOM      4  N   UNL     1      10.950   4.810   0.981  0.00  0.00    -0.112 NA
ATOM     12  C   UNL     1      10.418   5.307   3.006  0.00  0.00    +0.222 A 
ATOM     14  C   UNL     1      11.608   4.044   1.819  0.00  0.00    +0.222 A 
ENDROOT
BRANCH  12   7
ATOM      2  N   UNL     1      11.167   6.268   6.229  0.00  0.00    -0.297 NA
ATOM      7  C   UNL     1       9.853   5.873   4.290  0.00  0.00    +0.092 C 
ATOM      8  C   UNL     1       9.609   4.795   5.356  0.00  0.00    +0.029 C 
ATOM      9  C   UNL     1      10.749   6.916   4.983  0.00  0.00    +0.097 C 
ATOM     10  C   UNL     1      10.028   5.458   6.658  0.00  0.00    +0.085 C 
BRANCH   2  11
ATOM     11  C   UNL     1      11.586   7.223   7.243  0.00  0.00    +0.119 C 
BRANCH  11  13
ATOM     13  C   UNL     1      12.900   7.872   6.894  0.00  0.00    -0.033 A 
ATOM     16  C   UNL     1      12.989   9.261   6.801  0.00  0.00    +0.006 A 
ATOM     17  C   UNL     1      14.027   7.083   6.663  0.00  0.00    +0.006 A 
ATOM     22  C   UNL     1      14.205   9.861   6.478  0.00  0.00    +0.019 A 
ATOM     23  C   UNL     1      15.244   7.684   6.341  0.00  0.00    +0.019 A 
ATOM     24  C   UNL     1      15.333   9.072   6.248  0.00  0.00    +0.052 A 
BRANCH  24  29
ATOM      6  N   UNL     1      17.592  10.186   5.647  0.00  0.00    -0.191 NA
ATOM     29  C   UNL     1      16.580   9.688   5.916  0.00  0.00    +0.099 C 
ENDBRANCH  24  29
ENDBRANCH  11  13
ENDBRANCH   2  11
ENDBRANCH  12   7
BRANCH  14  15
ATOM     15  C   UNL     1      12.579   2.977   1.545  0.00  0.00    +0.135 C 
BRANCH  15  18
ATOM      5  N   UNL     1      16.046   4.043   0.829  0.00  0.00    -0.360 N 
ATOM     18  C   UNL     1      13.911   3.457   0.981  0.00  0.00    -0.013 A 
ATOM     19  C   UNL     1      14.170   3.853  -0.362  0.00  0.00    +0.003 A 
ATOM     20  C   UNL     1      15.517   4.215  -0.430  0.00  0.00    +0.047 A 
ATOM     21  C   UNL     1      15.084   3.585   1.688  0.00  0.00    +0.087 A 
ATOM     25  C   UNL     1      13.385   3.937  -1.529  0.00  0.00    +0.010 A 
ATOM     26  C   UNL     1      16.120   4.660  -1.612  0.00  0.00    +0.026 A 
ATOM     27  C   UNL     1      13.975   4.379  -2.718  0.00  0.00    +0.001 A 
ATOM     28  C   UNL     1      15.322   4.734  -2.757  0.00  0.00    +0.002 A 
ATOM     30  H   UNL     1      17.008   4.229   1.081  0.00  0.00    +0.165 HD
ENDBRANCH  15  18
ENDBRANCH  14  15
TORSDOF 6
ENDMDL
MODEL 8
REMARK VINA RESULT:      -7.0     20.337     22.847
REMARK  Name = 51137360
REMARK  6 active torsions:
REMARK  status: ('A' for Active; 'I' for Inactive)
REMARK    1  A    between atoms: N_2  and  C_11
REMARK    2  A    between atoms: C_7  and  C_12
REMARK    3  A    between atoms: C_11  and  C_13
REMARK    4  A    between atoms: C_14  and  C_15
REMARK    5  A    between atoms: C_15  and  C_18
REMARK    6  A    between atoms: C_24  and  C_29
REMARK                            x       y       z     vdW  Elec       q    Type
REMARK                         _______ _______ _______ _____ _____    ______ ____
ROOT
ATOM      1  O   UNL     1      -2.912 -11.285  14.711  0.00  0.00    -0.424 OA
ATOM      3  N   UNL     1      -1.159  -9.896  14.638  0.00  0.00    -0.112 NA
ATOM      4  N   UNL     1      -1.602  -9.957  15.947  0.00  0.00    -0.112 NA
ATOM     12  C   UNL     1      -1.953 -10.686  13.953  0.00  0.00    +0.222 A 
ATOM     14  C   UNL     1      -2.626 -10.778  15.942  0.00  0.00    +0.222 A 
ENDROOT
BRANCH  12   7
ATOM      2  N   UNL     1      -3.333  -9.913  10.892  0.00  0.00    -0.297 NA
ATOM      7  C   UNL     1      -1.947 -11.014  12.476  0.00  0.00    +0.092 C 
ATOM      8  C   UNL     1      -3.131 -11.901  12.062  0.00  0.00    +0.029 C 
ATOM      9  C   UNL     1      -2.025  -9.792  11.545  0.00  0.00    +0.097 C 
ATOM     10  C   UNL     1      -3.555 -11.347  10.712  0.00  0.00    +0.085 C 
BRANCH   2  11
ATOM     11  C   UNL     1      -3.403  -9.176   9.640  0.00  0.00    +0.119 C 
BRANCH  11  13
ATOM     13  C   UNL     1      -4.806  -9.129   9.095  0.00  0.00    -0.033 A 
ATOM     16  C   UNL     1      -5.808  -8.468   9.804  0.00  0.00    +0.006 A 
ATOM     17  C   UNL     1      -5.103  -9.749   7.880  0.00  0.00    +0.006 A 
ATOM     22  C   UNL     1      -7.107  -8.425   9.298  0.00  0.00    +0.019 A 
ATOM     23  C   UNL     1      -6.402  -9.705   7.374  0.00  0.00    +0.019 A 
ATOM     24  C   UNL     1      -7.404  -9.043   8.083  0.00  0.00    +0.052 A 
BRANCH  24  29
ATOM      6  N   UNL     1      -9.816  -8.963   7.145  0.00  0.00    -0.191 NA
ATOM     29  C   UNL     1      -8.735  -8.999   7.565  0.00  0.00    +0.099 C 
ENDBRANCH  24  29
ENDBRANCH  11  13
ENDBRANCH   2  11
ENDBRANCH  12   7
BRANCH  14  15
ATOM     15  C   UNL     1      -3.478 -11.215  17.055  0.00  0.00    +0.135 C 
BRANCH  15  18
ATOM      5  N   UNL     1      -6.639  -9.368  16.532  0.00  0.00    -0.360 N 
ATOM     18  C   UNL     1      -4.881 -10.618  17.056  0.00  0.00    -0.013 A 
ATOM     19  C   UNL     1      -5.956 -10.979  17.916  0.00  0.00    +0.003 A 
ATOM     20  C   UNL     1      -7.047 -10.180  17.566  0.00  0.00    +0.047 A 
ATOM     21  C   UNL     1      -5.332  -9.625  16.216  0.00  0.00    +0.087 A 
ATOM     25  C   UNL     1      -6.106 -11.912  18.961  0.00  0.00    +0.010 A 
ATOM     26  C   UNL     1      -8.285 -10.267  18.213  0.00  0.00    +0.026 A 
ATOM     27  C   UNL     1      -7.339 -12.011  19.616  0.00  0.00    +0.001 A 
ATOM     28  C   UNL     1      -8.410 -11.200  19.246  0.00  0.00    +0.002 A 
ATOM     30  H   UNL     1      -7.222  -8.681  16.073  0.00  0.00    +0.165 HD
ENDBRANCH  15  18
ENDBRANCH  14  15
TORSDOF 6
ENDMDL
MODEL 9
REMARK VINA RESULT:      -6.9     17.988     20.709
REMARK  Name = 51137360
REMARK  6 active torsions:
REMARK  status: ('A' for Active; 'I' for Inactive)
REMARK    1  A    between atoms: N_2  and  C_11
REMARK    2  A    between atoms: C_7  and  C_12
REMARK    3  A    between atoms: C_11  and  C_13
REMARK    4  A    between atoms: C_14  and  C_15
REMARK    5  A    between atoms: C_15  and  C_18
REMARK    6  A    between atoms: C_24  and  C_29
REMARK                            x       y       z     vdW  Elec       q    Type
REMARK                         _______ _______ _______ _____ _____    ______ ____
ROOT
ATOM      1  O   UNL     1      -6.393 -11.562  17.165  0.00  0.00    -0.424 OA
ATOM      3  N   UNL     1      -6.953  -9.447  16.698  0.00  0.00    -0.112 NA
ATOM      4  N   UNL     1      -5.615  -9.613  16.390  0.00  0.00    -0.112 NA
ATOM     12  C   UNL     1      -7.366 -10.609  17.146  0.00  0.00    +0.222 A 
ATOM     14  C   UNL     1      -5.331 -10.861  16.679  0.00  0.00    +0.222 A 
ENDROOT
BRANCH  12   7
ATOM      2  N   UNL     1     -10.500  -9.482  18.029  0.00  0.00    -0.297 NA
ATOM      7  C   UNL     1      -8.737 -11.024  17.631  0.00  0.00    +0.092 C 
ATOM      8  C   UNL     1      -8.933 -10.779  19.135  0.00  0.00    +0.029 C 
ATOM      9  C   UNL     1      -9.909 -10.289  16.956  0.00  0.00    +0.097 C 
ATOM     10  C   UNL     1     -10.364 -10.281  19.246  0.00  0.00    +0.085 C 
BRANCH   2  11
ATOM     11  C   UNL     1     -11.880  -9.113  17.755  0.00  0.00    +0.119 C 
BRANCH  11  13
ATOM     13  C   UNL     1     -11.975  -8.042  16.700  0.00  0.00    -0.033 A 
ATOM     16  C   UNL     1     -11.097  -6.959  16.725  0.00  0.00    +0.006 A 
ATOM     17  C   UNL     1     -12.942  -8.135  15.698  0.00  0.00    +0.006 A 
ATOM     22  C   UNL     1     -11.186  -5.968  15.748  0.00  0.00    +0.019 A 
ATOM     23  C   UNL     1     -13.030  -7.144  14.721  0.00  0.00    +0.019 A 
ATOM     24  C   UNL     1     -12.152  -6.061  14.745  0.00  0.00    +0.052 A 
BRANCH  24  29
ATOM      6  N   UNL     1     -12.317  -4.220  12.931  0.00  0.00    -0.191 NA
ATOM     29  C   UNL     1     -12.243  -5.045  13.744  0.00  0.00    +0.099 C 
ENDBRANCH  24  29
ENDBRANCH  11  13
ENDBRANCH   2  11
ENDBRANCH  12   7
BRANCH  14  15
ATOM     15  C   UNL     1      -4.061 -11.586  16.550  0.00  0.00    +0.135 C 
BRANCH  15  18
ATOM      5  N   UNL     1      -1.337  -9.896  14.706  0.00  0.00    -0.360 N 
ATOM     18  C   UNL     1      -3.079 -10.979  15.554  0.00  0.00    -0.013 A 
ATOM     19  C   UNL     1      -3.165 -11.041  14.134  0.00  0.00    +0.003 A 
ATOM     20  C   UNL     1      -2.060 -10.354  13.627  0.00  0.00    +0.047 A 
ATOM     21  C   UNL     1      -1.946 -10.269  15.875  0.00  0.00    +0.087 A 
ATOM     25  C   UNL     1      -4.078 -11.617  13.230  0.00  0.00    +0.010 A 
ATOM     26  C   UNL     1      -1.823 -10.213  12.255  0.00  0.00    +0.026 A 
ATOM     27  C   UNL     1      -3.854 -11.486  11.855  0.00  0.00    +0.001 A 
ATOM     28  C   UNL     1      -2.742 -10.794  11.377  0.00  0.00    +0.002 A 
ATOM     30  H   UNL     1      -0.481  -9.361  14.643  0.00  0.00    +0.165 HD
ENDBRANCH  15  18
ENDBRANCH  14  15
TORSDOF 6
ENDMDL
MODEL 10
REMARK VINA RESULT:      -6.9     30.355     33.754
REMARK  Name = 51137360
REMARK  6 active torsions:
REMARK  status: ('A' for Active; 'I' for Inactive)
REMARK    1  A    between atoms: N_2  and  C_11
REMARK    2  A    between atoms: C_7  and  C_12
REMARK    3  A    between atoms: C_11  and  C_13
REMARK    4  A    between atoms: C_14  and  C_15
REMARK    5  A    between atoms: C_15  and  C_18
REMARK    6  A    between atoms: C_24  and  C_29
REMARK                            x       y       z     vdW  Elec       q    Type
REMARK                         _______ _______ _______ _____ _____    ______ ____
ROOT
ATOM      1  O   UNL     1      13.592   9.136  18.298  0.00  0.00    -0.424 OA
ATOM      3  N   UNL     1      13.584   8.673  16.109  0.00  0.00    -0.112 NA
ATOM      4  N   UNL     1      13.408   7.486  16.798  0.00  0.00    -0.112 NA
ATOM     12  C   UNL     1      13.685   9.608  17.024  0.00  0.00    +0.222 A 
ATOM     14  C   UNL     1      13.420   7.804  18.071  0.00  0.00    +0.222 A 
ENDROOT
BRANCH  12   7
ATOM      2  N   UNL     1      15.827  12.240  17.622  0.00  0.00    -0.297 NA
ATOM      7  C   UNL     1      13.888  11.098  16.862  0.00  0.00    +0.092 C 
ATOM      8  C   UNL     1      13.603  11.879  18.154  0.00  0.00    +0.029 C 
ATOM      9  C   UNL     1      15.313  11.515  16.456  0.00  0.00    +0.097 C 
ATOM     10  C   UNL     1      14.680  12.950  18.185  0.00  0.00    +0.085 C 
BRANCH   2  11
ATOM     11  C   UNL     1      16.925  13.133  17.285  0.00  0.00    +0.119 C 
BRANCH  11  13
ATOM     13  C   UNL     1      18.194  12.758  18.006  0.00  0.00    -0.033 A 
ATOM     16  C   UNL     1      18.150  12.394  19.351  0.00  0.00    +0.006 A 
ATOM     17  C   UNL     1      19.412  12.775  17.327  0.00  0.00    +0.006 A 
ATOM     22  C   UNL     1      19.324  12.047  20.018  0.00  0.00    +0.019 A 
ATOM     23  C   UNL     1      20.587  12.428  17.993  0.00  0.00    +0.019 A 
ATOM     24  C   UNL     1      20.543  12.064  19.339  0.00  0.00    +0.052 A 
BRANCH  24  29
ATOM      6  N   UNL     1      22.724  11.421  20.578  0.00  0.00    -0.191 NA
ATOM     29  C   UNL     1      21.747  11.709  20.023  0.00  0.00    +0.099 C 
ENDBRANCH  24  29
ENDBRANCH  11  13
ENDBRANCH   2  11
ENDBRANCH  12   7
BRANCH  14  15
ATOM     15  C   UNL     1      13.274   6.943  19.251  0.00  0.00    +0.135 C 
BRANCH  15  18
ATOM      5  N   UNL     1      15.582   7.426  22.100  0.00  0.00    -0.360 N 
ATOM     18  C   UNL     1      14.424   7.028  20.249  0.00  0.00    -0.013 A 
ATOM     19  C   UNL     1      15.769   6.619  20.029  0.00  0.00    +0.003 A 
ATOM     20  C   UNL     1      16.474   6.879  21.206  0.00  0.00    +0.047 A 
ATOM     21  C   UNL     1      14.340   7.521  21.531  0.00  0.00    +0.087 A 
ATOM     25  C   UNL     1      16.456   6.049  18.939  0.00  0.00    +0.010 A 
ATOM     26  C   UNL     1      17.838   6.598  21.347  0.00  0.00    +0.026 A 
ATOM     27  C   UNL     1      17.820   5.762  19.066  0.00  0.00    +0.001 A 
ATOM     28  C   UNL     1      18.498   6.032  20.253  0.00  0.00    +0.002 A 
ATOM     30  H   UNL     1      15.812   7.717  23.041  0.00  0.00    +0.165 HD
ENDBRANCH  15  18
ENDBRANCH  14  15
TORSDOF 6
ENDMDL
