MODEL 1
REMARK VINA RESULT:      -6.8      0.000      0.000
REMARK  Name = 7144128
REMARK  4 active torsions:
REMARK  status: ('A' for Active; 'I' for Inactive)
REMARK    1  A    between atoms: O_4  and  C_20
REMARK    2  A    between atoms: O_4  and  C_26
REMARK    3  A    between atoms: C_14  and  C_19
REMARK    4  A    between atoms: C_16  and  C_20
REMARK                            x       y       z     vdW  Elec       q    Type
REMARK                         _______ _______ _______ _____ _____    ______ ____
ROOT
ATOM      2  O   UNL     1      13.264  10.403  17.072  0.00  0.00    -0.268 OA
ATOM      3  O   UNL     1      11.233   7.043  20.583  0.00  0.00    -0.272 OA
ATOM      5  N   UNL     1      13.427   7.545  21.157  0.00  0.00    -0.298 N 
ATOM      6  N   UNL     1      14.364   9.708  19.019  0.00  0.00    -0.311 N 
ATOM      7  C   UNL     1      15.112   7.277  19.341  0.00  0.00    +0.027 C 
ATOM      8  C   UNL     1      15.499   8.926  21.122  0.00  0.00    +0.054 C 
ATOM      9  C   UNL     1      16.178   7.876  20.245  0.00  0.00    +0.018 C 
ATOM     10  C   UNL     1      13.995   6.623  20.174  0.00  0.00    +0.113 C 
ATOM     11  C   UNL     1      14.573   8.379  18.428  0.00  0.00    +0.130 C 
ATOM     12  C   UNL     1      14.414   8.249  21.987  0.00  0.00    +0.117 C 
ATOM     13  C   UNL     1      14.883  10.050  20.284  0.00  0.00    +0.034 A 
ATOM     14  C   UNL     1      14.798  11.332  20.726  0.00  0.00    +0.002 A 
ATOM     15  C   UNL     1      13.722  10.644  18.189  0.00  0.00    +0.252 A 
ATOM     16  C   UNL     1      12.043   7.645  21.293  0.00  0.00    +0.253 C 
ATOM     17  C   UNL     1      14.139  12.324  19.899  0.00  0.00    +0.015 A 
ATOM     18  C   UNL     1      13.612  12.024  18.711  0.00  0.00    +0.071 A 
ENDROOT
BRANCH  14  19
ATOM      1 CL   UNL     1      17.005  12.992  26.034  0.00  0.00    -0.084 Cl
ATOM     19  C   UNL     1      15.344  11.742  22.038  0.00  0.00    -0.016 A 
ATOM     21  C   UNL     1      14.516  11.756  23.157  0.00  0.00    +0.010 A 
ATOM     22  C   UNL     1      16.681  12.111  22.145  0.00  0.00    +0.010 A 
ATOM     23  C   UNL     1      15.030  12.144  24.394  0.00  0.00    +0.020 A 
ATOM     24  C   UNL     1      17.196  12.498  23.383  0.00  0.00    +0.020 A 
ATOM     25  C   UNL     1      16.371  12.515  24.507  0.00  0.00    +0.041 A 
ENDBRANCH  14  19
BRANCH  16  20
ATOM     20  C   UNL     1      11.534   8.561  22.377  0.00  0.00    +0.324 C 
BRANCH  20   4
ATOM      4  O   UNL     1      11.191   9.774  21.751  0.00  0.00    -0.483 OA
BRANCH   4  26
ATOM     26  C   UNL     1      11.097  10.893  22.548  0.00  0.00    +0.121 A 
ATOM     27  C   UNL     1      11.092  12.150  21.960  0.00  0.00    +0.045 A 
ATOM     28  C   UNL     1      11.011  10.744  23.924  0.00  0.00    +0.045 A 
ATOM     29  C   UNL     1      10.998  13.283  22.768  0.00  0.00    +0.004 A 
ATOM     30  C   UNL     1      10.917  11.878  24.731  0.00  0.00    +0.004 A 
ATOM     31  C   UNL     1      10.911  13.147  24.153  0.00  0.00    +0.000 A 
ENDBRANCH   4  26
ENDBRANCH  20   4
ENDBRANCH  16  20
TORSDOF 4
ENDMDL
MODEL 2
REMARK VINA RESULT:      -6.4     15.272     18.322
REMARK  Name = 7144128
REMARK  4 active torsions:
REMARK  status: ('A' for Active; 'I' for Inactive)
REMARK    1  A    between atoms: O_4  and  C_20
REMARK    2  A    between atoms: O_4  and  C_26
REMARK    3  A    between atoms: C_14  and  C_19
REMARK    4  A    between atoms: C_16  and  C_20
REMARK                            x       y       z     vdW  Elec       q    Type
REMARK                         _______ _______ _______ _____ _____    ______ ____
ROOT
ATOM      2  O   UNL     1       7.175   8.783   4.211  0.00  0.00    -0.268 OA
ATOM      3  O   UNL     1      11.112   9.945   7.511  0.00  0.00    -0.272 OA
ATOM      5  N   UNL     1      11.229   7.704   6.909  0.00  0.00    -0.298 N 
ATOM      6  N   UNL     1       8.887   7.295   4.794  0.00  0.00    -0.311 N 
ATOM      7  C   UNL     1       9.126   6.396   7.182  0.00  0.00    +0.027 C 
ATOM      8  C   UNL     1      10.748   5.740   5.456  0.00  0.00    +0.054 C 
ATOM      9  C   UNL     1       9.785   5.201   6.512  0.00  0.00    +0.018 C 
ATOM     10  C   UNL     1      10.180   7.300   7.845  0.00  0.00    +0.113 C 
ATOM     11  C   UNL     1       8.305   7.149   6.135  0.00  0.00    +0.130 C 
ATOM     12  C   UNL     1      11.828   6.606   6.140  0.00  0.00    +0.117 C 
ATOM     13  C   UNL     1      10.015   6.555   4.387  0.00  0.00    +0.034 A 
ATOM     14  C   UNL     1      10.428   6.608   3.093  0.00  0.00    +0.002 A 
ATOM     15  C   UNL     1       8.172   8.127   3.912  0.00  0.00    +0.252 A 
ATOM     16  C   UNL     1      11.631   9.039   6.855  0.00  0.00    +0.253 C 
ATOM     17  C   UNL     1       9.718   7.457   2.157  0.00  0.00    +0.015 A 
ATOM     18  C   UNL     1       8.666   8.192   2.519  0.00  0.00    +0.071 A 
ENDROOT
BRANCH  14  19
ATOM      1 CL   UNL     1      15.149   3.480   1.161  0.00  0.00    -0.084 Cl
ATOM     19  C   UNL     1      11.595   5.834   2.616  0.00  0.00    -0.016 A 
ATOM     21  C   UNL     1      12.835   6.456   2.499  0.00  0.00    +0.010 A 
ATOM     22  C   UNL     1      11.446   4.491   2.286  0.00  0.00    +0.010 A 
ATOM     23  C   UNL     1      13.935   5.727   2.048  0.00  0.00    +0.020 A 
ATOM     24  C   UNL     1      12.547   3.761   1.836  0.00  0.00    +0.020 A 
ATOM     25  C   UNL     1      13.791   4.379   1.716  0.00  0.00    +0.041 A 
ENDBRANCH  14  19
BRANCH  16  20
ATOM     20  C   UNL     1      12.767   9.365   5.918  0.00  0.00    +0.324 C 
BRANCH  20   4
ATOM      4  O   UNL     1      13.953   9.221   6.660  0.00  0.00    -0.483 OA
BRANCH   4  26
ATOM     26  C   UNL     1      15.109   8.955   5.961  0.00  0.00    +0.121 A 
ATOM     27  C   UNL     1      16.226   9.754   6.160  0.00  0.00    +0.045 A 
ATOM     28  C   UNL     1      15.135   7.894   5.067  0.00  0.00    +0.045 A 
ATOM     29  C   UNL     1      17.396   9.484   5.450  0.00  0.00    +0.004 A 
ATOM     30  C   UNL     1      16.306   7.625   4.357  0.00  0.00    +0.004 A 
ATOM     31  C   UNL     1      17.436   8.420   4.549  0.00  0.00    +0.000 A 
ENDBRANCH   4  26
ENDBRANCH  20   4
ENDBRANCH  16  20
TORSDOF 4
ENDMDL
MODEL 3
REMARK VINA RESULT:      -6.4      1.654      2.045
REMARK  Name = 7144128
REMARK  4 active torsions:
REMARK  status: ('A' for Active; 'I' for Inactive)
REMARK    1  A    between atoms: O_4  and  C_20
REMARK    2  A    between atoms: O_4  and  C_26
REMARK    3  A    between atoms: C_14  and  C_19
REMARK    4  A    between atoms: C_16  and  C_20
REMARK                            x       y       z     vdW  Elec       q    Type
REMARK                         _______ _______ _______ _____ _____    ______ ____
ROOT
ATOM      2  O   UNL     1      13.731   7.906  16.360  0.00  0.00    -0.268 OA
ATOM      3  O   UNL     1      10.921   7.290  20.772  0.00  0.00    -0.272 OA
ATOM      5  N   UNL     1      13.063   8.017  21.302  0.00  0.00    -0.298 N 
ATOM      6  N   UNL     1      14.491   8.489  18.498  0.00  0.00    -0.311 N 
ATOM      7  C   UNL     1      14.931   6.714  20.294  0.00  0.00    +0.027 C 
ATOM      8  C   UNL     1      15.254   9.093  20.816  0.00  0.00    +0.054 C 
ATOM      9  C   UNL     1      15.928   7.723  20.842  0.00  0.00    +0.018 C 
ATOM     10  C   UNL     1      13.654   6.688  21.151  0.00  0.00    +0.113 C 
ATOM     11  C   UNL     1      14.634   7.066  18.836  0.00  0.00    +0.130 C 
ATOM     12  C   UNL     1      14.002   9.067  21.717  0.00  0.00    +0.117 C 
ATOM     13  C   UNL     1      14.874   9.509  19.392  0.00  0.00    +0.034 A 
ATOM     14  C   UNL     1      14.866  10.805  18.982  0.00  0.00    +0.002 A 
ATOM     15  C   UNL     1      14.063   8.758  17.185  0.00  0.00    +0.252 A 
ATOM     16  C   UNL     1      11.691   8.188  21.121  0.00  0.00    +0.253 C 
ATOM     17  C   UNL     1      14.428  11.120  17.637  0.00  0.00    +0.015 A 
ATOM     18  C   UNL     1      14.031  10.180  16.779  0.00  0.00    +0.071 A 
ENDROOT
BRANCH  14  19
ATOM      1 CL   UNL     1      16.528  15.266  22.608  0.00  0.00    -0.084 Cl
ATOM     19  C   UNL     1      15.278  11.907  19.880  0.00  0.00    -0.016 A 
ATOM     21  C   UNL     1      14.325  12.551  20.663  0.00  0.00    +0.010 A 
ATOM     22  C   UNL     1      16.613  12.293  19.933  0.00  0.00    +0.010 A 
ATOM     23  C   UNL     1      14.712  13.592  21.508  0.00  0.00    +0.020 A 
ATOM     24  C   UNL     1      17.001  13.333  20.778  0.00  0.00    +0.020 A 
ATOM     25  C   UNL     1      16.050  13.983  21.565  0.00  0.00    +0.041 A 
ENDBRANCH  14  19
BRANCH  16  20
ATOM     20  C   UNL     1      11.145   9.572  21.366  0.00  0.00    +0.324 C 
BRANCH  20   4
ATOM      4  O   UNL     1      10.916   9.676  22.750  0.00  0.00    -0.483 OA
BRANCH   4  26
ATOM     26  C   UNL     1      10.927  10.938  23.301  0.00  0.00    +0.121 A 
ATOM     27  C   UNL     1      10.918  11.079  24.682  0.00  0.00    +0.045 A 
ATOM     28  C   UNL     1      10.944  12.045  22.467  0.00  0.00    +0.045 A 
ATOM     29  C   UNL     1      10.928  12.358  25.239  0.00  0.00    +0.004 A 
ATOM     30  C   UNL     1      10.954  13.324  23.025  0.00  0.00    +0.004 A 
ATOM     31  C   UNL     1      10.946  13.479  24.411  0.00  0.00    +0.000 A 
ENDBRANCH   4  26
ENDBRANCH  20   4
ENDBRANCH  16  20
TORSDOF 4
ENDMDL
MODEL 4
REMARK VINA RESULT:      -5.9     15.389     18.369
REMARK  Name = 7144128
REMARK  4 active torsions:
REMARK  status: ('A' for Active; 'I' for Inactive)
REMARK    1  A    between atoms: O_4  and  C_20
REMARK    2  A    between atoms: O_4  and  C_26
REMARK    3  A    between atoms: C_14  and  C_19
REMARK    4  A    between atoms: C_16  and  C_20
REMARK                            x       y       z     vdW  Elec       q    Type
REMARK                         _______ _______ _______ _____ _____    ______ ____
ROOT
ATOM      2  O   UNL     1       9.246  10.105   1.602  0.00  0.00    -0.268 OA
ATOM      3  O   UNL     1      14.319   9.294   2.766  0.00  0.00    -0.272 OA
ATOM      5  N   UNL     1      13.099   9.562   4.724  0.00  0.00    -0.298 N 
ATOM      6  N   UNL     1      10.074   9.849   3.778  0.00  0.00    -0.311 N 
ATOM      7  C   UNL     1      11.644  11.582   4.828  0.00  0.00    +0.027 C 
ATOM      8  C   UNL     1      11.018   9.570   6.091  0.00  0.00    +0.054 C 
ATOM      9  C   UNL     1      11.065  11.095   6.147  0.00  0.00    +0.018 C 
ATOM     10  C   UNL     1      13.060  11.020   4.612  0.00  0.00    +0.113 C 
ATOM     11  C   UNL     1      10.692  11.180   3.701  0.00  0.00    +0.130 C 
ATOM     12  C   UNL     1      12.450   9.017   5.924  0.00  0.00    +0.117 C 
ATOM     13  C   UNL     1      10.122   9.073   4.954  0.00  0.00    +0.034 A 
ATOM     14  C   UNL     1       9.410   7.918   5.031  0.00  0.00    +0.002 A 
ATOM     15  C   UNL     1       9.334   9.460   2.647  0.00  0.00    +0.252 A 
ATOM     16  C   UNL     1      13.781   8.813   3.766  0.00  0.00    +0.253 C 
ATOM     17  C   UNL     1       8.638   7.483   3.883  0.00  0.00    +0.015 A 
ATOM     18  C   UNL     1       8.597   8.180   2.747  0.00  0.00    +0.071 A 
ENDROOT
BRANCH  14  19
ATOM      1 CL   UNL     1       9.427   4.528   9.962  0.00  0.00    -0.084 Cl
ATOM     19  C   UNL     1       9.415   7.080   6.250  0.00  0.00    -0.016 A 
ATOM     21  C   UNL     1       9.987   5.812   6.215  0.00  0.00    +0.010 A 
ATOM     22  C   UNL     1       8.846   7.565   7.424  0.00  0.00    +0.010 A 
ATOM     23  C   UNL     1       9.990   5.021   7.364  0.00  0.00    +0.020 A 
ATOM     24  C   UNL     1       8.850   6.774   8.574  0.00  0.00    +0.020 A 
ATOM     25  C   UNL     1       9.421   5.503   8.544  0.00  0.00    +0.041 A 
ENDBRANCH  14  19
BRANCH  16  20
ATOM     20  C   UNL     1      13.839   7.323   3.989  0.00  0.00    +0.324 C 
BRANCH  20   4
ATOM      4  O   UNL     1      13.869   6.726   2.715  0.00  0.00    -0.483 OA
BRANCH   4  26
ATOM     26  C   UNL     1      13.011   5.673   2.490  0.00  0.00    +0.121 A 
ATOM     27  C   UNL     1      11.725   5.717   3.011  0.00  0.00    +0.045 A 
ATOM     28  C   UNL     1      13.447   4.586   1.747  0.00  0.00    +0.045 A 
ATOM     29  C   UNL     1      10.857   4.649   2.783  0.00  0.00    +0.004 A 
ATOM     30  C   UNL     1      12.578   3.519   1.519  0.00  0.00    +0.004 A 
ATOM     31  C   UNL     1      11.283   3.551   2.037  0.00  0.00    +0.000 A 
ENDBRANCH   4  26
ENDBRANCH  20   4
ENDBRANCH  16  20
TORSDOF 4
ENDMDL
MODEL 5
REMARK VINA RESULT:      -5.9     28.462     30.428
REMARK  Name = 7144128
REMARK  4 active torsions:
REMARK  status: ('A' for Active; 'I' for Inactive)
REMARK    1  A    between atoms: O_4  and  C_20
REMARK    2  A    between atoms: O_4  and  C_26
REMARK    3  A    between atoms: C_14  and  C_19
REMARK    4  A    between atoms: C_16  and  C_20
REMARK                            x       y       z     vdW  Elec       q    Type
REMARK                         _______ _______ _______ _____ _____    ______ ____
ROOT
ATOM      2  O   UNL     1      -6.518 -15.062  16.870  0.00  0.00    -0.268 OA
ATOM      3  O   UNL     1      -8.407 -10.587  18.906  0.00  0.00    -0.272 OA
ATOM      5  N   UNL     1      -6.495 -10.138  17.666  0.00  0.00    -0.298 N 
ATOM      6  N   UNL     1      -5.657 -12.934  16.401  0.00  0.00    -0.311 N 
ATOM      7  C   UNL     1      -4.500 -11.529  18.206  0.00  0.00    +0.027 C 
ATOM      8  C   UNL     1      -4.773 -10.627  15.936  0.00  0.00    +0.054 C 
ATOM      9  C   UNL     1      -3.753 -10.906  17.038  0.00  0.00    +0.018 C 
ATOM     10  C   UNL     1      -5.589 -10.575  18.728  0.00  0.00    +0.113 C 
ATOM     11  C   UNL     1      -5.083 -12.868  17.752  0.00  0.00    +0.130 C 
ATOM     12  C   UNL     1      -5.832  -9.632  16.457  0.00  0.00    +0.117 C 
ATOM     13  C   UNL     1      -5.448 -11.914  15.452  0.00  0.00    +0.034 A 
ATOM     14  C   UNL     1      -5.867 -12.086  14.171  0.00  0.00    +0.002 A 
ATOM     15  C   UNL     1      -6.321 -14.134  16.086  0.00  0.00    +0.252 A 
ATOM     16  C   UNL     1      -7.873 -10.157  17.881  0.00  0.00    +0.253 C 
ATOM     17  C   UNL     1      -6.559 -13.307  13.810  0.00  0.00    +0.015 A 
ATOM     18  C   UNL     1      -6.798 -14.278  14.692  0.00  0.00    +0.071 A 
ENDROOT
BRANCH  14  19
ATOM      1 CL   UNL     1      -5.000  -7.894   9.989  0.00  0.00    -0.084 Cl
ATOM     19  C   UNL     1      -5.653 -11.050  13.137  0.00  0.00    -0.016 A 
ATOM     21  C   UNL     1      -4.473 -11.043  12.400  0.00  0.00    +0.010 A 
ATOM     22  C   UNL     1      -6.633 -10.088  12.908  0.00  0.00    +0.010 A 
ATOM     23  C   UNL     1      -4.270 -10.065  11.426  0.00  0.00    +0.020 A 
ATOM     24  C   UNL     1      -6.431  -9.111  11.933  0.00  0.00    +0.020 A 
ATOM     25  C   UNL     1      -5.250  -9.100  11.192  0.00  0.00    +0.041 A 
ENDBRANCH  14  19
BRANCH  16  20
ATOM     20  C   UNL     1      -8.738  -9.622  16.768  0.00  0.00    +0.324 C 
BRANCH  20   4
ATOM      4  O   UNL     1      -9.092  -8.309  17.129  0.00  0.00    -0.483 OA
BRANCH   4  26
ATOM     26  C   UNL     1     -10.319  -7.847  16.710  0.00  0.00    +0.121 A 
ATOM     27  C   UNL     1     -10.396  -6.638  16.031  0.00  0.00    +0.045 A 
ATOM     28  C   UNL     1     -11.456  -8.595  16.974  0.00  0.00    +0.045 A 
ATOM     29  C   UNL     1     -11.640  -6.170  15.608  0.00  0.00    +0.004 A 
ATOM     30  C   UNL     1     -12.699  -8.125  16.550  0.00  0.00    +0.004 A 
ATOM     31  C   UNL     1     -12.791  -6.913  15.867  0.00  0.00    +0.000 A 
ENDBRANCH   4  26
ENDBRANCH  20   4
ENDBRANCH  16  20
TORSDOF 4
ENDMDL
MODEL 6
REMARK VINA RESULT:      -5.9     24.650     26.732
REMARK  Name = 7144128
REMARK  4 active torsions:
REMARK  status: ('A' for Active; 'I' for Inactive)
REMARK    1  A    between atoms: O_4  and  C_20
REMARK    2  A    between atoms: O_4  and  C_26
REMARK    3  A    between atoms: C_14  and  C_19
REMARK    4  A    between atoms: C_16  and  C_20
REMARK                            x       y       z     vdW  Elec       q    Type
REMARK                         _______ _______ _______ _____ _____    ______ ____
ROOT
ATOM      2  O   UNL     1     -14.950  11.643  15.398  0.00  0.00    -0.268 OA
ATOM      3  O   UNL     1     -10.352   9.077  15.520  0.00  0.00    -0.272 OA
ATOM      5  N   UNL     1     -10.343  10.777  17.102  0.00  0.00    -0.298 N 
ATOM      6  N   UNL     1     -13.258  12.046  16.966  0.00  0.00    -0.311 N 
ATOM      7  C   UNL     1     -10.996  13.034  16.273  0.00  0.00    +0.027 C 
ATOM      8  C   UNL     1     -11.407  12.437  18.622  0.00  0.00    +0.054 C 
ATOM      9  C   UNL     1     -10.955  13.566  17.697  0.00  0.00    +0.018 C 
ATOM     10  C   UNL     1     -10.062  11.821  16.117  0.00  0.00    +0.113 C 
ATOM     11  C   UNL     1     -12.444  12.688  15.924  0.00  0.00    +0.130 C 
ATOM     12  C   UNL     1     -10.434  11.246  18.491  0.00  0.00    +0.117 C 
ATOM     13  C   UNL     1     -12.837  11.990  18.310  0.00  0.00    +0.034 A 
ATOM     14  C   UNL     1     -13.685  11.523  19.264  0.00  0.00    +0.002 A 
ATOM     15  C   UNL     1     -14.528  11.604  16.553  0.00  0.00    +0.252 A 
ATOM     16  C   UNL     1     -10.432   9.447  16.693  0.00  0.00    +0.253 C 
ATOM     17  C   UNL     1     -15.001  11.055  18.876  0.00  0.00    +0.015 A 
ATOM     18  C   UNL     1     -15.416  11.068  17.609  0.00  0.00    +0.071 A 
ENDROOT
BRANCH  14  19
ATOM      1 CL   UNL     1     -12.109  11.277  25.032  0.00  0.00    -0.084 Cl
ATOM     19  C   UNL     1     -13.295  11.463  20.690  0.00  0.00    -0.016 A 
ATOM     21  C   UNL     1     -12.616  10.348  21.174  0.00  0.00    +0.010 A 
ATOM     22  C   UNL     1     -13.610  12.520  21.538  0.00  0.00    +0.010 A 
ATOM     23  C   UNL     1     -12.250  10.290  22.519  0.00  0.00    +0.020 A 
ATOM     24  C   UNL     1     -13.242  12.463  22.883  0.00  0.00    +0.020 A 
ATOM     25  C   UNL     1     -12.563  11.348  23.373  0.00  0.00    +0.041 A 
ENDBRANCH  14  19
BRANCH  16  20
ATOM     20  C   UNL     1     -10.651   8.420  17.776  0.00  0.00    +0.324 C 
BRANCH  20   4
ATOM      4  O   UNL     1     -12.038   8.200  17.848  0.00  0.00    -0.483 OA
BRANCH   4  26
ATOM     26  C   UNL     1     -12.533   7.652  19.010  0.00  0.00    +0.121 A 
ATOM     27  C   UNL     1     -11.653   7.104  19.933  0.00  0.00    +0.045 A 
ATOM     28  C   UNL     1     -13.901   7.655  19.237  0.00  0.00    +0.045 A 
ATOM     29  C   UNL     1     -12.156   6.547  21.110  0.00  0.00    +0.004 A 
ATOM     30  C   UNL     1     -14.402   7.098  20.413  0.00  0.00    +0.004 A 
ATOM     31  C   UNL     1     -13.529   6.545  21.350  0.00  0.00    +0.000 A 
ENDBRANCH   4  26
ENDBRANCH  20   4
ENDBRANCH  16  20
TORSDOF 4
ENDMDL
MODEL 7
REMARK VINA RESULT:      -5.9     13.927     16.984
REMARK  Name = 7144128
REMARK  4 active torsions:
REMARK  status: ('A' for Active; 'I' for Inactive)
REMARK    1  A    between atoms: O_4  and  C_20
REMARK    2  A    between atoms: O_4  and  C_26
REMARK    3  A    between atoms: C_14  and  C_19
REMARK    4  A    between atoms: C_16  and  C_20
REMARK                            x       y       z     vdW  Elec       q    Type
REMARK                         _______ _______ _______ _____ _____    ______ ____
ROOT
ATOM      2  O   UNL     1      18.755  -5.043  29.663  0.00  0.00    -0.268 OA
ATOM      3  O   UNL     1      20.948  -0.630  27.805  0.00  0.00    -0.272 OA
ATOM      5  N   UNL     1      21.773  -2.464  26.643  0.00  0.00    -0.298 N 
ATOM      6  N   UNL     1      20.181  -4.961  27.806  0.00  0.00    -0.311 N 
ATOM      7  C   UNL     1      22.653  -4.328  28.042  0.00  0.00    +0.027 C 
ATOM      8  C   UNL     1      21.717  -4.813  25.822  0.00  0.00    +0.054 C 
ATOM      9  C   UNL     1      22.840  -5.174  26.793  0.00  0.00    +0.018 C 
ATOM     10  C   UNL     1      22.716  -2.829  27.700  0.00  0.00    +0.113 C 
ATOM     11  C   UNL     1      21.324  -4.710  28.694  0.00  0.00    +0.130 C 
ATOM     12  C   UNL     1      21.821  -3.319  25.450  0.00  0.00    +0.117 C 
ATOM     13  C   UNL     1      20.339  -5.118  26.415  0.00  0.00    +0.034 A 
ATOM     14  C   UNL     1      19.280  -5.498  25.653  0.00  0.00    +0.002 A 
ATOM     15  C   UNL     1      18.945  -5.153  28.452  0.00  0.00    +0.252 A 
ATOM     16  C   UNL     1      20.971  -1.333  26.793  0.00  0.00    +0.253 C 
ATOM     17  C   UNL     1      17.990  -5.701  26.282  0.00  0.00    +0.015 A 
ATOM     18  C   UNL     1      17.802  -5.532  27.591  0.00  0.00    +0.071 A 
ENDROOT
BRANCH  14  19
ATOM      1 CL   UNL     1      19.773  -6.287  19.741  0.00  0.00    -0.084 Cl
ATOM     19  C   UNL     1      19.403  -5.693  24.191  0.00  0.00    -0.016 A 
ATOM     21  C   UNL     1      19.046  -4.664  23.325  0.00  0.00    +0.010 A 
ATOM     22  C   UNL     1      19.872  -6.904  23.692  0.00  0.00    +0.010 A 
ATOM     23  C   UNL     1      19.160  -4.848  21.947  0.00  0.00    +0.020 A 
ATOM     24  C   UNL     1      19.987  -7.088  22.314  0.00  0.00    +0.020 A 
ATOM     25  C   UNL     1      19.631  -6.061  21.442  0.00  0.00    +0.041 A 
ENDBRANCH  14  19
BRANCH  16  20
ATOM     20  C   UNL     1      20.078  -0.980  25.630  0.00  0.00    +0.324 C 
BRANCH  20   4
ATOM      4  O   UNL     1      18.773  -1.355  25.996  0.00  0.00    -0.483 OA
BRANCH   4  26
ATOM     26  C   UNL     1      17.891  -1.653  24.981  0.00  0.00    +0.121 A 
ATOM     27  C   UNL     1      16.819  -2.496  25.235  0.00  0.00    +0.045 A 
ATOM     28  C   UNL     1      18.092  -1.106  23.722  0.00  0.00    +0.045 A 
ATOM     29  C   UNL     1      15.927  -2.797  24.205  0.00  0.00    +0.004 A 
ATOM     30  C   UNL     1      17.200  -1.408  22.693  0.00  0.00    +0.004 A 
ATOM     31  C   UNL     1      16.118  -2.254  22.935  0.00  0.00    +0.000 A 
ENDBRANCH   4  26
ENDBRANCH  20   4
ENDBRANCH  16  20
TORSDOF 4
ENDMDL
MODEL 8
REMARK VINA RESULT:      -5.9      1.533      2.080
REMARK  Name = 7144128
REMARK  4 active torsions:
REMARK  status: ('A' for Active; 'I' for Inactive)
REMARK    1  A    between atoms: O_4  and  C_20
REMARK    2  A    between atoms: O_4  and  C_26
REMARK    3  A    between atoms: C_14  and  C_19
REMARK    4  A    between atoms: C_16  and  C_20
REMARK                            x       y       z     vdW  Elec       q    Type
REMARK                         _______ _______ _______ _____ _____    ______ ____
ROOT
ATOM      2  O   UNL     1      13.258   9.429  16.640  0.00  0.00    -0.268 OA
ATOM      3  O   UNL     1      10.591   8.668  21.117  0.00  0.00    -0.272 OA
ATOM      5  N   UNL     1      12.841   8.206  21.457  0.00  0.00    -0.298 N 
ATOM      6  N   UNL     1      14.255   8.909  18.695  0.00  0.00    -0.311 N 
ATOM      7  C   UNL     1      13.886   6.639  19.827  0.00  0.00    +0.027 C 
ATOM      8  C   UNL     1      15.269   8.347  20.925  0.00  0.00    +0.054 C 
ATOM      9  C   UNL     1      15.247   6.894  20.456  0.00  0.00    +0.018 C 
ATOM     10  C   UNL     1      12.759   6.880  20.846  0.00  0.00    +0.113 C 
ATOM     11  C   UNL     1      13.744   7.534  18.595  0.00  0.00    +0.130 C 
ATOM     12  C   UNL     1      14.166   8.563  21.982  0.00  0.00    +0.117 C 
ATOM     13  C   UNL     1      15.083   9.321  19.758  0.00  0.00    +0.034 A 
ATOM     14  C   UNL     1      15.655  10.553  19.731  0.00  0.00    +0.002 A 
ATOM     15  C   UNL     1      13.962   9.742  17.599  0.00  0.00    +0.252 A 
ATOM     16  C   UNL     1      11.693   8.990  21.566  0.00  0.00    +0.253 C 
ATOM     17  C   UNL     1      15.373  11.441  18.621  0.00  0.00    +0.015 A 
ATOM     18  C   UNL     1      14.571  11.091  17.615  0.00  0.00    +0.071 A 
ENDROOT
BRANCH  14  19
ATOM      1 CL   UNL     1      19.257  12.452  24.116  0.00  0.00    -0.084 Cl
ATOM     19  C   UNL     1      16.545  11.022  20.816  0.00  0.00    -0.016 A 
ATOM     21  C   UNL     1      16.036  11.834  21.825  0.00  0.00    +0.010 A 
ATOM     22  C   UNL     1      17.886  10.650  20.819  0.00  0.00    +0.010 A 
ATOM     23  C   UNL     1      16.876  12.277  22.847  0.00  0.00    +0.020 A 
ATOM     24  C   UNL     1      18.726  11.092  21.841  0.00  0.00    +0.020 A 
ATOM     25  C   UNL     1      18.221  11.906  22.854  0.00  0.00    +0.041 A 
ENDBRANCH  14  19
BRANCH  16  20
ATOM     20  C   UNL     1      11.843  10.313  22.273  0.00  0.00    +0.324 C 
BRANCH  20   4
ATOM      4  O   UNL     1      12.505  11.174  21.380  0.00  0.00    -0.483 OA
BRANCH   4  26
ATOM     26  C   UNL     1      11.948  12.415  21.167  0.00  0.00    +0.121 A 
ATOM     27  C   UNL     1      12.476  13.239  20.183  0.00  0.00    +0.045 A 
ATOM     28  C   UNL     1      10.871  12.821  21.941  0.00  0.00    +0.045 A 
ATOM     29  C   UNL     1      11.911  14.497  19.968  0.00  0.00    +0.004 A 
ATOM     30  C   UNL     1      10.307  14.078  21.725  0.00  0.00    +0.004 A 
ATOM     31  C   UNL     1      10.828  14.916  20.739  0.00  0.00    +0.000 A 
ENDBRANCH   4  26
ENDBRANCH  20   4
ENDBRANCH  16  20
TORSDOF 4
ENDMDL
MODEL 9
REMARK VINA RESULT:      -5.9     28.556     31.004
REMARK  Name = 7144128
REMARK  4 active torsions:
REMARK  status: ('A' for Active; 'I' for Inactive)
REMARK    1  A    between atoms: O_4  and  C_20
REMARK    2  A    between atoms: O_4  and  C_26
REMARK    3  A    between atoms: C_14  and  C_19
REMARK    4  A    between atoms: C_16  and  C_20
REMARK                            x       y       z     vdW  Elec       q    Type
REMARK                         _______ _______ _______ _____ _____    ______ ____
ROOT
ATOM      2  O   UNL     1      -6.890 -14.761  15.367  0.00  0.00    -0.268 OA
ATOM      3  O   UNL     1      -4.222 -11.978  18.955  0.00  0.00    -0.272 OA
ATOM      5  N   UNL     1      -4.926 -10.577  17.242  0.00  0.00    -0.298 N 
ATOM      6  N   UNL     1      -6.652 -12.432  15.317  0.00  0.00    -0.311 N 
ATOM      7  C   UNL     1      -4.372 -11.326  14.931  0.00  0.00    +0.027 C 
ATOM      8  C   UNL     1      -6.362  -9.935  15.312  0.00  0.00    +0.054 C 
ATOM      9  C   UNL     1      -5.188 -10.174  14.365  0.00  0.00    +0.018 C 
ATOM     10  C   UNL     1      -3.851 -10.985  16.338  0.00  0.00    +0.113 C 
ATOM     11  C   UNL     1      -5.242 -12.583  14.933  0.00  0.00    +0.130 C 
ATOM     12  C   UNL     1      -5.826  -9.547  16.706  0.00  0.00    +0.117 C 
ATOM     13  C   UNL     1      -7.265 -11.167  15.415  0.00  0.00    +0.034 A 
ATOM     14  C   UNL     1      -8.605 -11.079  15.624  0.00  0.00    +0.002 A 
ATOM     15  C   UNL     1      -7.372 -13.632  15.458  0.00  0.00    +0.252 A 
ATOM     16  C   UNL     1      -4.990 -11.113  18.528  0.00  0.00    +0.253 C 
ATOM     17  C   UNL     1      -9.379 -12.295  15.778  0.00  0.00    +0.015 A 
ATOM     18  C   UNL     1      -8.823 -13.505  15.720  0.00  0.00    +0.071 A 
ENDROOT
BRANCH  14  19
ATOM      1 CL   UNL     1     -11.392  -5.797  15.995  0.00  0.00    -0.084 Cl
ATOM     19  C   UNL     1      -9.295  -9.773  15.716  0.00  0.00    -0.016 A 
ATOM     21  C   UNL     1      -9.980  -9.275  14.612  0.00  0.00    +0.010 A 
ATOM     22  C   UNL     1      -9.253  -9.052  16.905  0.00  0.00    +0.010 A 
ATOM     23  C   UNL     1     -10.629  -8.043  14.698  0.00  0.00    +0.020 A 
ATOM     24  C   UNL     1      -9.903  -7.820  16.992  0.00  0.00    +0.020 A 
ATOM     25  C   UNL     1     -10.590  -7.316  15.889  0.00  0.00    +0.041 A 
ENDBRANCH  14  19
BRANCH  16  20
ATOM     20  C   UNL     1      -6.082 -10.589  19.425  0.00  0.00    +0.324 C 
BRANCH  20   4
ATOM      4  O   UNL     1      -6.632 -11.704  20.083  0.00  0.00    -0.483 OA
BRANCH   4  26
ATOM     26  C   UNL     1      -7.931 -12.042  19.779  0.00  0.00    +0.121 A 
ATOM     27  C   UNL     1      -8.897 -11.047  19.714  0.00  0.00    +0.045 A 
ATOM     28  C   UNL     1      -8.254 -13.371  19.546  0.00  0.00    +0.045 A 
ATOM     29  C   UNL     1     -10.213 -11.390  19.406  0.00  0.00    +0.004 A 
ATOM     30  C   UNL     1      -9.570 -13.713  19.239  0.00  0.00    +0.004 A 
ATOM     31  C   UNL     1     -10.550 -12.722  19.169  0.00  0.00    +0.000 A 
ENDBRANCH   4  26
ENDBRANCH  20   4
ENDBRANCH  16  20
TORSDOF 4
ENDMDL
MODEL 10
REMARK VINA RESULT:      -5.8     15.930     19.185
REMARK  Name = 7144128
REMARK  4 active torsions:
REMARK  status: ('A' for Active; 'I' for Inactive)
REMARK    1  A    between atoms: O_4  and  C_20
REMARK    2  A    between atoms: O_4  and  C_26
REMARK    3  A    between atoms: C_14  and  C_19
REMARK    4  A    between atoms: C_16  and  C_20
REMARK                            x       y       z     vdW  Elec       q    Type
REMARK                         _______ _______ _______ _____ _____    ______ ____
ROOT
ATOM      2  O   UNL     1      10.465   6.192   8.211  0.00  0.00    -0.268 OA
ATOM      3  O   UNL     1      10.280  10.761   5.597  0.00  0.00    -0.272 OA
ATOM      5  N   UNL     1      11.759   9.314   4.542  0.00  0.00    -0.298 N 
ATOM      6  N   UNL     1      11.560   6.593   6.179  0.00  0.00    -0.311 N 
ATOM      7  C   UNL     1      13.487   8.274   6.004  0.00  0.00    +0.027 C 
ATOM      8  C   UNL     1      12.715   7.079   4.000  0.00  0.00    +0.054 C 
ATOM      9  C   UNL     1      13.946   7.407   4.842  0.00  0.00    +0.018 C 
ATOM     10  C   UNL     1      12.839   9.572   5.494  0.00  0.00    +0.113 C 
ATOM     11  C   UNL     1      12.527   7.457   6.870  0.00  0.00    +0.130 C 
ATOM     12  C   UNL     1      12.103   8.387   3.455  0.00  0.00    +0.117 C 
ATOM     13  C   UNL     1      11.671   6.301   4.805  0.00  0.00    +0.034 A 
ATOM     14  C   UNL     1      10.847   5.379   4.241  0.00  0.00    +0.002 A 
ATOM     15  C   UNL     1      10.597   5.985   7.005  0.00  0.00    +0.252 A 
ATOM     16  C   UNL     1      10.545   9.986   4.674  0.00  0.00    +0.253 C 
ATOM     17  C   UNL     1       9.838   4.735   5.060  0.00  0.00    +0.015 A 
ATOM     18  C   UNL     1       9.690   5.012   6.356  0.00  0.00    +0.071 A 
ENDROOT
BRANCH  14  19
ATOM      1 CL   UNL     1      11.212   3.953  -1.559  0.00  0.00    -0.084 Cl
ATOM     19  C   UNL     1      10.938   5.027   2.807  0.00  0.00    -0.016 A 
ATOM     21  C   UNL     1      10.110   5.662   1.886  0.00  0.00    +0.010 A 
ATOM     22  C   UNL     1      11.849   4.063   2.389  0.00  0.00    +0.010 A 
ATOM     23  C   UNL     1      10.194   5.329   0.534  0.00  0.00    +0.020 A 
ATOM     24  C   UNL     1      11.935   3.730   1.036  0.00  0.00    +0.020 A 
ATOM     25  C   UNL     1      11.107   4.363   0.110  0.00  0.00    +0.041 A 
ENDBRANCH  14  19
BRANCH  16  20
ATOM     20  C   UNL     1       9.507   9.723   3.613  0.00  0.00    +0.324 C 
BRANCH  20   4
ATOM      4  O   UNL     1       8.278   9.574   4.280  0.00  0.00    -0.483 OA
BRANCH   4  26
ATOM     26  C   UNL     1       7.132   9.824   3.559  0.00  0.00    +0.121 A 
ATOM     27  C   UNL     1       7.074   9.455   2.222  0.00  0.00    +0.045 A 
ATOM     28  C   UNL     1       6.057  10.442   4.180  0.00  0.00    +0.045 A 
ATOM     29  C   UNL     1       5.913   9.710   1.492  0.00  0.00    +0.004 A 
ATOM     30  C   UNL     1       4.896  10.696   3.449  0.00  0.00    +0.004 A 
ATOM     31  C   UNL     1       4.825  10.330   2.104  0.00  0.00    +0.000 A 
ENDBRANCH   4  26
ENDBRANCH  20   4
ENDBRANCH  16  20
TORSDOF 4
ENDMDL
