MODEL 1
REMARK VINA RESULT:      -7.4      0.000      0.000
REMARK  Name = 45360387
REMARK  8 active torsions:
REMARK  status: ('A' for Active; 'I' for Inactive)
REMARK    1  A    between atoms: O_4  and  C_12
REMARK    2  A    between atoms: O_7  and  C_27
REMARK    3  A    between atoms: O_7  and  C_32
REMARK    4  A    between atoms: N_9  and  C_11
REMARK    5  A    between atoms: N_10  and  C_20
REMARK    6  A    between atoms: C_18  and  C_19
REMARK    7  A    between atoms: C_28  and  C_31
REMARK    8  A    between atoms: C_32  and  C_33
REMARK                            x       y       z     vdW  Elec       q    Type
REMARK                         _______ _______ _______ _____ _____    ______ ____
ROOT
ATOM      5  O   UNL     1      14.584  13.047  21.364  0.00  0.00    -0.252 OA
ATOM      8  N   UNL     1      12.995  11.608  20.499  0.00  0.00    -0.284 N 
ATOM     10  N   UNL     1      15.290  11.275  20.039  0.00  0.00    -0.269 N 
ATOM     11  C   UNL     1      12.587   9.127  20.647  0.00  0.00    +0.119 C 
ATOM     12  C   UNL     1      12.137   9.289  22.110  0.00  0.00    +0.136 C 
ATOM     13  C   UNL     1      10.993  10.280  22.349  0.00  0.00    +0.035 C 
ATOM     14  C   UNL     1      12.579  10.394  19.783  0.00  0.00    +0.134 C 
ATOM     15  C   UNL     1      11.465  11.733  22.457  0.00  0.00    +0.022 C 
ATOM     16  C   UNL     1      11.909  12.353  21.137  0.00  0.00    +0.109 C 
ATOM     17  C   UNL     1      14.327  12.052  20.683  0.00  0.00    +0.307 C 
ATOM     41  H   UNL     1      14.983  10.460  19.520  0.00  0.00    +0.156 HD
ENDROOT
BRANCH  10  20
ATOM     20  C   UNL     1      16.696  11.460  20.030  0.00  0.00    +0.035 A 
ATOM     23  C   UNL     1      17.503  10.711  20.887  0.00  0.00    +0.035 A 
ATOM     24  C   UNL     1      17.271  12.392  19.166  0.00  0.00    +0.023 A 
ATOM     28  C   UNL     1      18.886  10.893  20.877  0.00  0.00    +0.057 A 
ATOM     29  C   UNL     1      18.653  12.573  19.157  0.00  0.00    +0.002 A 
ATOM     30  C   UNL     1      19.461  11.824  20.013  0.00  0.00    +0.012 A 
BRANCH  28  31
ATOM      1  F   UNL     1      19.100   9.048  22.385  0.00  0.00    -0.166 F 
ATOM      2  F   UNL     1      20.259  10.836  22.817  0.00  0.00    -0.166 F 
ATOM      3  F   UNL     1      20.832   9.534  21.173  0.00  0.00    -0.166 F 
ATOM     31  C   UNL     1      19.750  10.093  21.792  0.00  0.00    +0.417 C 
ENDBRANCH  28  31
ENDBRANCH  10  20
BRANCH  11   9
ATOM      6  O   UNL     1      13.440   6.996  18.923  0.00  0.00    -0.270 OA
ATOM      9  N   UNL     1      13.896   8.502  20.623  0.00  0.00    -0.305 N 
ATOM     18  C   UNL     1      14.209   7.478  19.750  0.00  0.00    +0.244 C 
ATOM     39  H   UNL     1      14.620   8.923  21.198  0.00  0.00    +0.149 HD
BRANCH  18  19
ATOM     19  C   UNL     1      15.584   6.928  19.870  0.00  0.00    +0.037 A 
ATOM     21  C   UNL     1      16.297   7.086  21.057  0.00  0.00    +0.016 A 
ATOM     22  C   UNL     1      16.161   6.256  18.792  0.00  0.00    +0.016 A 
ATOM     25  C   UNL     1      17.589   6.571  21.168  0.00  0.00    +0.046 A 
ATOM     26  C   UNL     1      17.453   5.741  18.903  0.00  0.00    +0.046 A 
ATOM     27  C   UNL     1      18.167   5.898  20.092  0.00  0.00    +0.121 A 
BRANCH  27   7
ATOM      7  O   UNL     1      19.427   5.396  20.199  0.00  0.00    -0.487 OA
BRANCH   7  32
ATOM     32  C   UNL     1      20.400   6.217  20.844  0.00  0.00    +0.264 C 
BRANCH  32  33
ATOM     33  C   UNL     1      21.233   5.366  21.757  0.00  0.00    -0.010 A 
ATOM     34  C   UNL     1      21.716   5.892  22.955  0.00  0.00    +0.007 A 
ATOM     35  C   UNL     1      21.524   4.047  21.408  0.00  0.00    +0.007 A 
ATOM     36  C   UNL     1      22.491   5.101  23.803  0.00  0.00    +0.000 A 
ATOM     37  C   UNL     1      22.297   3.256  22.256  0.00  0.00    +0.000 A 
ATOM     38  C   UNL     1      22.781   3.782  23.453  0.00  0.00    +0.000 A 
ENDBRANCH  32  33
ENDBRANCH   7  32
ENDBRANCH  27   7
ENDBRANCH  18  19
ENDBRANCH  11   9
BRANCH  12   4
ATOM      4  O   UNL     1      11.684   8.009  22.572  0.00  0.00    -0.390 OA
ATOM     40  H   UNL     1      11.182   8.152  23.392  0.00  0.00    +0.210 HD
ENDBRANCH  12   4
TORSDOF 8
ENDMDL
MODEL 2
REMARK VINA RESULT:      -7.2     29.175     31.925
REMARK  Name = 45360387
REMARK  8 active torsions:
REMARK  status: ('A' for Active; 'I' for Inactive)
REMARK    1  A    between atoms: O_4  and  C_12
REMARK    2  A    between atoms: O_7  and  C_27
REMARK    3  A    between atoms: O_7  and  C_32
REMARK    4  A    between atoms: N_9  and  C_11
REMARK    5  A    between atoms: N_10  and  C_20
REMARK    6  A    between atoms: C_18  and  C_19
REMARK    7  A    between atoms: C_28  and  C_31
REMARK    8  A    between atoms: C_32  and  C_33
REMARK                            x       y       z     vdW  Elec       q    Type
REMARK                         _______ _______ _______ _____ _____    ______ ____
ROOT
ATOM      5  O   UNL     1     -12.221  -9.904  15.300  0.00  0.00    -0.252 OA
ATOM      8  N   UNL     1     -11.940 -11.285  17.132  0.00  0.00    -0.284 N 
ATOM     10  N   UNL     1     -10.254 -11.124  15.483  0.00  0.00    -0.269 N 
ATOM     11  C   UNL     1     -10.229 -11.457  18.973  0.00  0.00    +0.119 C 
ATOM     12  C   UNL     1     -10.780 -10.165  19.604  0.00  0.00    +0.136 C 
ATOM     13  C   UNL     1     -12.277 -10.170  19.931  0.00  0.00    +0.035 C 
ATOM     14  C   UNL     1     -11.151 -12.184  17.986  0.00  0.00    +0.134 C 
ATOM     15  C   UNL     1     -13.159  -9.819  18.729  0.00  0.00    +0.022 C 
ATOM     16  C   UNL     1     -13.248 -10.911  17.671  0.00  0.00    +0.109 C 
ATOM     17  C   UNL     1     -11.514 -10.708  15.911  0.00  0.00    +0.307 C 
ATOM     41  H   UNL     1      -9.736 -11.771  16.067  0.00  0.00    +0.156 HD
ENDROOT
BRANCH  10  20
ATOM     20  C   UNL     1      -9.558 -10.731  14.312  0.00  0.00    +0.035 A 
ATOM     23  C   UNL     1      -8.176 -10.907  14.229  0.00  0.00    +0.035 A 
ATOM     24  C   UNL     1     -10.255 -10.168  13.242  0.00  0.00    +0.023 A 
ATOM     28  C   UNL     1      -7.493 -10.521  13.076  0.00  0.00    +0.057 A 
ATOM     29  C   UNL     1      -9.571  -9.782  12.090  0.00  0.00    +0.002 A 
ATOM     30  C   UNL     1      -8.190  -9.958  12.007  0.00  0.00    +0.012 A 
BRANCH  28  31
ATOM      1  F   UNL     1      -5.527 -11.634  13.863  0.00  0.00    -0.166 F 
ATOM      2  F   UNL     1      -5.325  -9.561  13.243  0.00  0.00    -0.166 F 
ATOM      3  F   UNL     1      -5.591 -11.124  11.756  0.00  0.00    -0.166 F 
ATOM     31  C   UNL     1      -6.016 -10.708  12.986  0.00  0.00    +0.417 C 
ENDBRANCH  28  31
ENDBRANCH  10  20
BRANCH  11   9
ATOM      6  O   UNL     1      -7.637 -11.954  20.101  0.00  0.00    -0.270 OA
ATOM      9  N   UNL     1      -8.947 -11.171  18.358  0.00  0.00    -0.305 N 
ATOM     18  C   UNL     1      -7.749 -11.449  18.987  0.00  0.00    +0.244 C 
ATOM     39  H   UNL     1      -8.956 -10.859  17.391  0.00  0.00    +0.149 HD
BRANCH  18  19
ATOM     19  C   UNL     1      -6.524 -11.072  18.235  0.00  0.00    +0.037 A 
ATOM     21  C   UNL     1      -5.321 -11.730  18.487  0.00  0.00    +0.016 A 
ATOM     22  C   UNL     1      -6.579 -10.059  17.278  0.00  0.00    +0.016 A 
ATOM     25  C   UNL     1      -4.171 -11.374  17.783  0.00  0.00    +0.046 A 
ATOM     26  C   UNL     1      -5.429  -9.703  16.573  0.00  0.00    +0.046 A 
ATOM     27  C   UNL     1      -4.225 -10.361  16.825  0.00  0.00    +0.121 A 
BRANCH  27   7
ATOM      7  O   UNL     1      -3.102 -10.014  16.137  0.00  0.00    -0.487 OA
BRANCH   7  32
ATOM     32  C   UNL     1      -2.150 -11.046  15.886  0.00  0.00    +0.264 C 
BRANCH  32  33
ATOM     33  C   UNL     1      -2.301 -11.519  14.470  0.00  0.00    -0.010 A 
ATOM     34  C   UNL     1      -2.561 -12.864  14.208  0.00  0.00    +0.007 A 
ATOM     35  C   UNL     1      -2.183 -10.614  13.416  0.00  0.00    +0.007 A 
ATOM     36  C   UNL     1      -2.702 -13.304  12.891  0.00  0.00    +0.000 A 
ATOM     37  C   UNL     1      -2.325 -11.053  12.101  0.00  0.00    +0.000 A 
ATOM     38  C   UNL     1      -2.583 -12.397  11.837  0.00  0.00    +0.000 A 
ENDBRANCH  32  33
ENDBRANCH   7  32
ENDBRANCH  27   7
ENDBRANCH  18  19
ENDBRANCH  11   9
BRANCH  12   4
ATOM      4  O   UNL     1     -10.082  -9.950  20.838  0.00  0.00    -0.390 OA
ATOM     40  H   UNL     1      -9.993 -10.811  21.281  0.00  0.00    +0.210 HD
ENDBRANCH  12   4
TORSDOF 8
ENDMDL
MODEL 3
REMARK VINA RESULT:      -7.1     15.863     17.802
REMARK  Name = 45360387
REMARK  8 active torsions:
REMARK  status: ('A' for Active; 'I' for Inactive)
REMARK    1  A    between atoms: O_4  and  C_12
REMARK    2  A    between atoms: O_7  and  C_27
REMARK    3  A    between atoms: O_7  and  C_32
REMARK    4  A    between atoms: N_9  and  C_11
REMARK    5  A    between atoms: N_10  and  C_20
REMARK    6  A    between atoms: C_18  and  C_19
REMARK    7  A    between atoms: C_28  and  C_31
REMARK    8  A    between atoms: C_32  and  C_33
REMARK                            x       y       z     vdW  Elec       q    Type
REMARK                         _______ _______ _______ _____ _____    ______ ____
ROOT
ATOM      5  O   UNL     1       9.557   6.110   3.249  0.00  0.00    -0.252 OA
ATOM      8  N   UNL     1      10.031   5.951   5.507  0.00  0.00    -0.284 N 
ATOM     10  N   UNL     1      11.780   6.057   3.920  0.00  0.00    -0.269 N 
ATOM     11  C   UNL     1      11.330   7.354   7.146  0.00  0.00    +0.119 C 
ATOM     12  C   UNL     1      10.223   8.423   7.106  0.00  0.00    +0.136 C 
ATOM     13  C   UNL     1       8.812   7.934   7.449  0.00  0.00    +0.035 C 
ATOM     14  C   UNL     1      10.945   5.952   6.656  0.00  0.00    +0.134 C 
ATOM     15  C   UNL     1       8.084   7.305   6.257  0.00  0.00    +0.022 C 
ATOM     16  C   UNL     1       8.608   5.934   5.849  0.00  0.00    +0.109 C 
ATOM     17  C   UNL     1      10.404   6.044   4.144  0.00  0.00    +0.307 C 
ATOM     41  H   UNL     1      12.398   6.022   4.723  0.00  0.00    +0.156 HD
ENDROOT
BRANCH  10  20
ATOM     20  C   UNL     1      12.461   6.140   2.679  0.00  0.00    +0.035 A 
ATOM     23  C   UNL     1      12.951   4.984   2.073  0.00  0.00    +0.035 A 
ATOM     24  C   UNL     1      12.641   7.380   2.065  0.00  0.00    +0.023 A 
ATOM     28  C   UNL     1      13.620   5.067   0.852  0.00  0.00    +0.057 A 
ATOM     29  C   UNL     1      13.310   7.462   0.845  0.00  0.00    +0.002 A 
ATOM     30  C   UNL     1      13.800   6.306   0.238  0.00  0.00    +0.012 A 
BRANCH  28  31
ATOM      1  F   UNL     1      15.141   3.221   0.910  0.00  0.00    -0.166 F 
ATOM      2  F   UNL     1      14.668   4.069  -1.034  0.00  0.00    -0.166 F 
ATOM      3  F   UNL     1      13.196   2.865   0.020  0.00  0.00    -0.166 F 
ATOM     31  C   UNL     1      14.145   3.831   0.203  0.00  0.00    +0.417 C 
ENDBRANCH  28  31
ENDBRANCH  10  20
BRANCH  11   9
ATOM      6  O   UNL     1      14.026   6.393   7.366  0.00  0.00    -0.270 OA
ATOM      9  N   UNL     1      12.487   7.847   6.424  0.00  0.00    -0.305 N 
ATOM     18  C   UNL     1      13.749   7.314   6.601  0.00  0.00    +0.244 C 
ATOM     39  H   UNL     1      12.319   8.529   5.691  0.00  0.00    +0.149 HD
BRANCH  18  19
ATOM     19  C   UNL     1      14.833   7.947   5.807  0.00  0.00    +0.037 A 
ATOM     21  C   UNL     1      15.321   7.315   4.664  0.00  0.00    +0.016 A 
ATOM     22  C   UNL     1      15.363   9.175   6.206  0.00  0.00    +0.016 A 
ATOM     25  C   UNL     1      16.340   7.909   3.920  0.00  0.00    +0.046 A 
ATOM     26  C   UNL     1      16.382   9.768   5.461  0.00  0.00    +0.046 A 
ATOM     27  C   UNL     1      16.870   9.136   4.317  0.00  0.00    +0.121 A 
BRANCH  27   7
ATOM      7  O   UNL     1      17.865   9.716   3.591  0.00  0.00    -0.487 OA
BRANCH   7  32
ATOM     32  C   UNL     1      19.032  10.127   4.301  0.00  0.00    +0.264 C 
BRANCH  32  33
ATOM     33  C   UNL     1      19.890   8.925   4.571  0.00  0.00    -0.010 A 
ATOM     34  C   UNL     1      20.303   8.640   5.873  0.00  0.00    +0.007 A 
ATOM     35  C   UNL     1      20.274   8.093   3.520  0.00  0.00    +0.007 A 
ATOM     36  C   UNL     1      21.100   7.524   6.123  0.00  0.00    +0.000 A 
ATOM     37  C   UNL     1      21.070   6.976   3.770  0.00  0.00    +0.000 A 
ATOM     38  C   UNL     1      21.484   6.691   5.071  0.00  0.00    +0.000 A 
ENDBRANCH  32  33
ENDBRANCH   7  32
ENDBRANCH  27   7
ENDBRANCH  18  19
ENDBRANCH  11   9
BRANCH  12   4
ATOM      4  O   UNL     1      10.559   9.435   8.065  0.00  0.00    -0.390 OA
ATOM     40  H   UNL     1      11.462   9.256   8.379  0.00  0.00    +0.210 HD
ENDBRANCH  12   4
TORSDOF 8
ENDMDL
MODEL 4
REMARK VINA RESULT:      -7.1      1.593      2.462
REMARK  Name = 45360387
REMARK  8 active torsions:
REMARK  status: ('A' for Active; 'I' for Inactive)
REMARK    1  A    between atoms: O_4  and  C_12
REMARK    2  A    between atoms: O_7  and  C_27
REMARK    3  A    between atoms: O_7  and  C_32
REMARK    4  A    between atoms: N_9  and  C_11
REMARK    5  A    between atoms: N_10  and  C_20
REMARK    6  A    between atoms: C_18  and  C_19
REMARK    7  A    between atoms: C_28  and  C_31
REMARK    8  A    between atoms: C_32  and  C_33
REMARK                            x       y       z     vdW  Elec       q    Type
REMARK                         _______ _______ _______ _____ _____    ______ ____
ROOT
ATOM      5  O   UNL     1      15.076  11.835  21.213  0.00  0.00    -0.252 OA
ATOM      8  N   UNL     1      14.240  10.193  19.816  0.00  0.00    -0.284 N 
ATOM     10  N   UNL     1      16.569  10.398  20.165  0.00  0.00    -0.269 N 
ATOM     11  C   UNL     1      14.395   7.680  19.748  0.00  0.00    +0.119 C 
ATOM     12  C   UNL     1      13.464   7.590  20.970  0.00  0.00    +0.136 C 
ATOM     13  C   UNL     1      12.108   8.290  20.828  0.00  0.00    +0.035 C 
ATOM     14  C   UNL     1      14.377   9.001  18.969  0.00  0.00    +0.134 C 
ATOM     15  C   UNL     1      12.167   9.790  21.130  0.00  0.00    +0.022 C 
ATOM     16  C   UNL     1      12.863  10.623  20.061  0.00  0.00    +0.109 C 
ATOM     17  C   UNL     1      15.296  10.884  20.459  0.00  0.00    +0.307 C 
ATOM     41  H   UNL     1      16.649   9.596  19.551  0.00  0.00    +0.156 HD
ENDROOT
BRANCH  10  20
ATOM     20  C   UNL     1      17.816  10.873  20.646  0.00  0.00    +0.035 A 
ATOM     23  C   UNL     1      18.334  10.383  21.845  0.00  0.00    +0.035 A 
ATOM     24  C   UNL     1      18.524  11.831  19.919  0.00  0.00    +0.023 A 
ATOM     28  C   UNL     1      19.560  10.850  22.317  0.00  0.00    +0.057 A 
ATOM     29  C   UNL     1      19.750  12.298  20.392  0.00  0.00    +0.002 A 
ATOM     30  C   UNL     1      20.269  11.808  21.591  0.00  0.00    +0.012 A 
BRANCH  28  31
ATOM      1  F   UNL     1      19.626  10.960  24.706  0.00  0.00    -0.166 F 
ATOM      2  F   UNL     1      21.471  10.454  23.675  0.00  0.00    -0.166 F 
ATOM      3  F   UNL     1      19.859   9.001  23.805  0.00  0.00    -0.166 F 
ATOM     31  C   UNL     1      20.115  10.328  23.599  0.00  0.00    +0.417 C 
ENDBRANCH  28  31
ENDBRANCH  10  20
BRANCH  11   9
ATOM      6  O   UNL     1      16.174   5.828  18.465  0.00  0.00    -0.270 OA
ATOM      9  N   UNL     1      15.746   7.350  20.160  0.00  0.00    -0.305 N 
ATOM     18  C   UNL     1      16.526   6.440  19.470  0.00  0.00    +0.244 C 
ATOM     39  H   UNL     1      16.147   7.898  20.914  0.00  0.00    +0.149 HD
BRANCH  18  19
ATOM     19  C   UNL     1      17.877   6.192  20.035  0.00  0.00    +0.037 A 
ATOM     21  C   UNL     1      18.650   5.136  19.556  0.00  0.00    +0.016 A 
ATOM     22  C   UNL     1      18.371   7.017  21.047  0.00  0.00    +0.016 A 
ATOM     25  C   UNL     1      19.918   4.902  20.089  0.00  0.00    +0.046 A 
ATOM     26  C   UNL     1      19.639   6.783  21.579  0.00  0.00    +0.046 A 
ATOM     27  C   UNL     1      20.413   5.726  21.099  0.00  0.00    +0.121 A 
BRANCH  27   7
ATOM      7  O   UNL     1      21.651   5.498  21.619  0.00  0.00    -0.487 OA
BRANCH   7  32
ATOM     32  C   UNL     1      22.607   4.872  20.765  0.00  0.00    +0.264 C 
BRANCH  32  33
ATOM     33  C   UNL     1      23.109   3.621  21.427  0.00  0.00    -0.010 A 
ATOM     34  C   UNL     1      22.841   3.389  22.776  0.00  0.00    +0.007 A 
ATOM     35  C   UNL     1      23.844   2.691  20.692  0.00  0.00    +0.007 A 
ATOM     36  C   UNL     1      23.308   2.228  23.390  0.00  0.00    +0.000 A 
ATOM     37  C   UNL     1      24.310   1.529  21.306  0.00  0.00    +0.000 A 
ATOM     38  C   UNL     1      24.043   1.297  22.655  0.00  0.00    +0.000 A 
ENDBRANCH  32  33
ENDBRANCH   7  32
ENDBRANCH  27   7
ENDBRANCH  18  19
ENDBRANCH  11   9
BRANCH  12   4
ATOM      4  O   UNL     1      13.196   6.203  21.214  0.00  0.00    -0.390 OA
ATOM     40  H   UNL     1      14.002   5.704  20.999  0.00  0.00    +0.210 HD
ENDBRANCH  12   4
TORSDOF 8
ENDMDL
MODEL 5
REMARK VINA RESULT:      -7.1     28.869     31.660
REMARK  Name = 45360387
REMARK  8 active torsions:
REMARK  status: ('A' for Active; 'I' for Inactive)
REMARK    1  A    between atoms: O_4  and  C_12
REMARK    2  A    between atoms: O_7  and  C_27
REMARK    3  A    between atoms: O_7  and  C_32
REMARK    4  A    between atoms: N_9  and  C_11
REMARK    5  A    between atoms: N_10  and  C_20
REMARK    6  A    between atoms: C_18  and  C_19
REMARK    7  A    between atoms: C_28  and  C_31
REMARK    8  A    between atoms: C_32  and  C_33
REMARK                            x       y       z     vdW  Elec       q    Type
REMARK                         _______ _______ _______ _____ _____    ______ ____
ROOT
ATOM      5  O   UNL     1      -5.672 -10.126   6.714  0.00  0.00    -0.252 OA
ATOM      8  N   UNL     1      -7.937  -9.789   7.038  0.00  0.00    -0.284 N 
ATOM     10  N   UNL     1      -6.638 -10.871   8.691  0.00  0.00    -0.269 N 
ATOM     11  C   UNL     1      -9.319  -8.614   8.785  0.00  0.00    +0.119 C 
ATOM     12  C   UNL     1      -8.848  -7.253   8.241  0.00  0.00    +0.136 C 
ATOM     13  C   UNL     1      -9.106  -7.007   6.750  0.00  0.00    +0.035 C 
ATOM     14  C   UNL     1      -9.162  -9.818   7.848  0.00  0.00    +0.134 C 
ATOM     15  C   UNL     1      -8.029  -7.609   5.843  0.00  0.00    +0.022 C 
ATOM     16  C   UNL     1      -8.069  -9.129   5.739  0.00  0.00    +0.109 C 
ATOM     17  C   UNL     1      -6.663 -10.261   7.437  0.00  0.00    +0.307 C 
ATOM     41  H   UNL     1      -7.500 -10.913   9.223  0.00  0.00    +0.156 HD
ENDROOT
BRANCH  10  20
ATOM     20  C   UNL     1      -5.525 -11.439   9.362  0.00  0.00    +0.035 A 
ATOM     23  C   UNL     1      -4.630 -10.618  10.048  0.00  0.00    +0.035 A 
ATOM     24  C   UNL     1      -5.327 -12.820   9.335  0.00  0.00    +0.023 A 
ATOM     28  C   UNL     1      -3.537 -11.178  10.709  0.00  0.00    +0.057 A 
ATOM     29  C   UNL     1      -4.233 -13.379   9.995  0.00  0.00    +0.002 A 
ATOM     30  C   UNL     1      -3.338 -12.559  10.682  0.00  0.00    +0.012 A 
BRANCH  28  31
ATOM      1  F   UNL     1      -2.213  -9.186  10.745  0.00  0.00    -0.166 F 
ATOM      2  F   UNL     1      -1.413 -10.939  11.749  0.00  0.00    -0.166 F 
ATOM      3  F   UNL     1      -3.065  -9.835  12.630  0.00  0.00    -0.166 F 
ATOM     31  C   UNL     1      -2.579 -10.301  11.442  0.00  0.00    +0.417 C 
ENDBRANCH  28  31
ENDBRANCH  10  20
BRANCH  11   9
ATOM      6  O   UNL     1     -10.367 -10.128  10.987  0.00  0.00    -0.270 OA
ATOM      9  N   UNL     1      -8.662  -8.866  10.053  0.00  0.00    -0.305 N 
ATOM     18  C   UNL     1      -9.254  -9.612  11.055  0.00  0.00    +0.244 C 
ATOM     39  H   UNL     1      -7.695  -8.569  10.141  0.00  0.00    +0.149 HD
BRANCH  18  19
ATOM     19  C   UNL     1      -8.462  -9.757  12.303  0.00  0.00    +0.037 A 
ATOM     21  C   UNL     1      -7.075  -9.624  12.268  0.00  0.00    +0.016 A 
ATOM     22  C   UNL     1      -9.107 -10.028  13.510  0.00  0.00    +0.016 A 
ATOM     25  C   UNL     1      -6.331  -9.762  13.440  0.00  0.00    +0.046 A 
ATOM     26  C   UNL     1      -8.363 -10.166  14.682  0.00  0.00    +0.046 A 
ATOM     27  C   UNL     1      -6.975 -10.033  14.648  0.00  0.00    +0.121 A 
BRANCH  27   7
ATOM      7  O   UNL     1      -6.250 -10.167  15.792  0.00  0.00    -0.487 OA
BRANCH   7  32
ATOM     32  C   UNL     1      -5.718 -11.461  16.074  0.00  0.00    +0.264 C 
BRANCH  32  33
ATOM     33  C   UNL     1      -4.259 -11.478  15.724  0.00  0.00    -0.010 A 
ATOM     34  C   UNL     1      -3.769 -12.417  14.816  0.00  0.00    +0.007 A 
ATOM     35  C   UNL     1      -3.392 -10.554  16.307  0.00  0.00    +0.007 A 
ATOM     36  C   UNL     1      -2.413 -12.432  14.492  0.00  0.00    +0.000 A 
ATOM     37  C   UNL     1      -2.036 -10.569  15.983  0.00  0.00    +0.000 A 
ATOM     38  C   UNL     1      -1.546 -11.508  15.076  0.00  0.00    +0.000 A 
ENDBRANCH  32  33
ENDBRANCH   7  32
ENDBRANCH  27   7
ENDBRANCH  18  19
ENDBRANCH  11   9
BRANCH  12   4
ATOM      4  O   UNL     1      -9.547  -6.229   8.961  0.00  0.00    -0.390 OA
ATOM     40  H   UNL     1      -8.978  -5.440   8.980  0.00  0.00    +0.210 HD
ENDBRANCH  12   4
TORSDOF 8
ENDMDL
MODEL 6
REMARK VINA RESULT:      -7.1     30.459     32.739
REMARK  Name = 45360387
REMARK  8 active torsions:
REMARK  status: ('A' for Active; 'I' for Inactive)
REMARK    1  A    between atoms: O_4  and  C_12
REMARK    2  A    between atoms: O_7  and  C_27
REMARK    3  A    between atoms: O_7  and  C_32
REMARK    4  A    between atoms: N_9  and  C_11
REMARK    5  A    between atoms: N_10  and  C_20
REMARK    6  A    between atoms: C_18  and  C_19
REMARK    7  A    between atoms: C_28  and  C_31
REMARK    8  A    between atoms: C_32  and  C_33
REMARK                            x       y       z     vdW  Elec       q    Type
REMARK                         _______ _______ _______ _____ _____    ______ ____
ROOT
ATOM      5  O   UNL     1      -6.126 -11.822  14.183  0.00  0.00    -0.252 OA
ATOM      8  N   UNL     1      -6.253 -10.618  16.153  0.00  0.00    -0.284 N 
ATOM     10  N   UNL     1      -6.932  -9.645  14.108  0.00  0.00    -0.269 N 
ATOM     11  C   UNL     1      -8.109  -9.464  17.405  0.00  0.00    +0.119 C 
ATOM     12  C   UNL     1      -8.687 -10.833  17.807  0.00  0.00    +0.136 C 
ATOM     13  C   UNL     1      -7.724 -11.774  18.538  0.00  0.00    +0.035 C 
ATOM     14  C   UNL     1      -6.645  -9.447  16.948  0.00  0.00    +0.134 C 
ATOM     15  C   UNL     1      -6.819 -12.567  17.591  0.00  0.00    +0.022 C 
ATOM     16  C   UNL     1      -5.724 -11.742  16.926  0.00  0.00    +0.109 C 
ATOM     17  C   UNL     1      -6.419 -10.769  14.755  0.00  0.00    +0.307 C 
ATOM     41  H   UNL     1      -7.165  -8.832  14.667  0.00  0.00    +0.156 HD
ENDROOT
BRANCH  10  20
ATOM     20  C   UNL     1      -7.208  -9.485  12.726  0.00  0.00    +0.035 A 
ATOM     23  C   UNL     1      -6.219  -9.002  11.868  0.00  0.00    +0.035 A 
ATOM     24  C   UNL     1      -8.469  -9.809  12.225  0.00  0.00    +0.023 A 
ATOM     28  C   UNL     1      -6.491  -8.845  10.509  0.00  0.00    +0.057 A 
ATOM     29  C   UNL     1      -8.740  -9.651  10.867  0.00  0.00    +0.002 A 
ATOM     30  C   UNL     1      -7.752  -9.169  10.008  0.00  0.00    +0.012 A 
BRANCH  28  31
ATOM      1  F   UNL     1      -5.639  -7.040   9.191  0.00  0.00    -0.166 F 
ATOM      2  F   UNL     1      -5.337  -9.058   8.442  0.00  0.00    -0.166 F 
ATOM      3  F   UNL     1      -4.183  -8.338  10.139  0.00  0.00    -0.166 F 
ATOM     31  C   UNL     1      -5.435  -8.329   9.592  0.00  0.00    +0.417 C 
ENDBRANCH  28  31
ENDBRANCH  10  20
BRANCH  11   9
ATOM      6  O   UNL     1     -10.228  -7.579  17.849  0.00  0.00    -0.270 OA
ATOM      9  N   UNL     1      -8.964  -8.869  16.396  0.00  0.00    -0.305 N 
ATOM     18  C   UNL     1      -9.962  -7.967  16.714  0.00  0.00    +0.244 C 
ATOM     39  H   UNL     1      -8.732  -9.052  15.425  0.00  0.00    +0.149 HD
BRANCH  18  19
ATOM     19  C   UNL     1     -10.768  -7.468  15.570  0.00  0.00    +0.037 A 
ATOM     21  C   UNL     1     -11.114  -8.333  14.533  0.00  0.00    +0.016 A 
ATOM     22  C   UNL     1     -11.176  -6.134  15.534  0.00  0.00    +0.016 A 
ATOM     25  C   UNL     1     -11.869  -7.864  13.458  0.00  0.00    +0.046 A 
ATOM     26  C   UNL     1     -11.931  -5.667  14.459  0.00  0.00    +0.046 A 
ATOM     27  C   UNL     1     -12.279  -6.531  13.421  0.00  0.00    +0.121 A 
BRANCH  27   7
ATOM      7  O   UNL     1     -13.015  -6.073  12.371  0.00  0.00    -0.487 OA
BRANCH   7  32
ATOM     32  C   UNL     1     -12.828  -6.723  11.115  0.00  0.00    +0.264 C 
BRANCH  32  33
ATOM     33  C   UNL     1     -11.847  -5.934  10.298  0.00  0.00    -0.010 A 
ATOM     34  C   UNL     1     -11.868  -4.540  10.335  0.00  0.00    +0.007 A 
ATOM     35  C   UNL     1     -10.913  -6.596   9.501  0.00  0.00    +0.007 A 
ATOM     36  C   UNL     1     -10.956  -3.808   9.575  0.00  0.00    +0.000 A 
ATOM     37  C   UNL     1     -10.000  -5.864   8.743  0.00  0.00    +0.000 A 
ATOM     38  C   UNL     1     -10.022  -4.470   8.778  0.00  0.00    +0.000 A 
ENDBRANCH  32  33
ENDBRANCH   7  32
ENDBRANCH  27   7
ENDBRANCH  18  19
ENDBRANCH  11   9
BRANCH  12   4
ATOM      4  O   UNL     1      -9.793 -10.597  18.689  0.00  0.00    -0.390 OA
ATOM     40  H   UNL     1     -10.610 -10.751  18.186  0.00  0.00    +0.210 HD
ENDBRANCH  12   4
TORSDOF 8
ENDMDL
MODEL 7
REMARK VINA RESULT:      -7.1     16.484     19.410
REMARK  Name = 45360387
REMARK  8 active torsions:
REMARK  status: ('A' for Active; 'I' for Inactive)
REMARK    1  A    between atoms: O_4  and  C_12
REMARK    2  A    between atoms: O_7  and  C_27
REMARK    3  A    between atoms: O_7  and  C_32
REMARK    4  A    between atoms: N_9  and  C_11
REMARK    5  A    between atoms: N_10  and  C_20
REMARK    6  A    between atoms: C_18  and  C_19
REMARK    7  A    between atoms: C_28  and  C_31
REMARK    8  A    between atoms: C_32  and  C_33
REMARK                            x       y       z     vdW  Elec       q    Type
REMARK                         _______ _______ _______ _____ _____    ______ ____
ROOT
ATOM      5  O   UNL     1      16.142   6.798   0.964  0.00  0.00    -0.252 OA
ATOM      8  N   UNL     1      15.220   4.695   0.693  0.00  0.00    -0.284 N 
ATOM     10  N   UNL     1      14.876   5.906   2.695  0.00  0.00    -0.269 N 
ATOM     11  C   UNL     1      12.880   3.766   0.764  0.00  0.00    +0.119 C 
ATOM     12  C   UNL     1      12.570   4.448  -0.582  0.00  0.00    +0.136 C 
ATOM     13  C   UNL     1      13.512   4.097  -1.738  0.00  0.00    +0.035 C 
ATOM     14  C   UNL     1      14.362   3.578   1.110  0.00  0.00    +0.134 C 
ATOM     15  C   UNL     1      14.796   4.930  -1.746  0.00  0.00    +0.022 C 
ATOM     16  C   UNL     1      15.790   4.570  -0.649  0.00  0.00    +0.109 C 
ATOM     17  C   UNL     1      15.463   5.880   1.430  0.00  0.00    +0.307 C 
ATOM     41  H   UNL     1      14.315   5.112   2.981  0.00  0.00    +0.156 HD
ENDROOT
BRANCH  10  20
ATOM     20  C   UNL     1      14.936   6.941   3.663  0.00  0.00    +0.035 A 
ATOM     23  C   UNL     1      13.765   7.399   4.267  0.00  0.00    +0.035 A 
ATOM     24  C   UNL     1      16.166   7.500   4.010  0.00  0.00    +0.023 A 
ATOM     28  C   UNL     1      13.825   8.417   5.219  0.00  0.00    +0.057 A 
ATOM     29  C   UNL     1      16.225   8.517   4.961  0.00  0.00    +0.002 A 
ATOM     30  C   UNL     1      15.055   8.976   5.566  0.00  0.00    +0.012 A 
BRANCH  28  31
ATOM      1  F   UNL     1      11.616   9.302   4.976  0.00  0.00    -0.166 F 
ATOM      2  F   UNL     1      12.789   9.987   6.673  0.00  0.00    -0.166 F 
ATOM      3  F   UNL     1      11.964   7.975   6.655  0.00  0.00    -0.166 F 
ATOM     31  C   UNL     1      12.574   8.908   5.865  0.00  0.00    +0.417 C 
ENDBRANCH  28  31
ENDBRANCH  10  20
BRANCH  11   9
ATOM      6  O   UNL     1      10.096   3.578   1.439  0.00  0.00    -0.270 OA
ATOM      9  N   UNL     1      12.195   4.483   1.823  0.00  0.00    -0.305 N 
ATOM     18  C   UNL     1      10.845   4.321   2.069  0.00  0.00    +0.244 C 
ATOM     39  H   UNL     1      12.769   5.028   2.459  0.00  0.00    +0.149 HD
BRANCH  18  19
ATOM     19  C   UNL     1      10.289   5.146   3.172  0.00  0.00    +0.037 A 
ATOM     21  C   UNL     1       9.794   6.422   2.907  0.00  0.00    +0.016 A 
ATOM     22  C   UNL     1      10.263   4.643   4.473  0.00  0.00    +0.016 A 
ATOM     25  C   UNL     1       9.273   7.197   3.944  0.00  0.00    +0.046 A 
ATOM     26  C   UNL     1       9.743   5.418   5.509  0.00  0.00    +0.046 A 
ATOM     27  C   UNL     1       9.247   6.695   5.245  0.00  0.00    +0.121 A 
BRANCH  27   7
ATOM      7  O   UNL     1       8.739   7.451   6.257  0.00  0.00    -0.487 OA
BRANCH   7  32
ATOM     32  C   UNL     1       8.293   8.765   5.924  0.00  0.00    +0.264 C 
BRANCH  32  33
ATOM     33  C   UNL     1       9.026   9.761   6.772  0.00  0.00    -0.010 A 
ATOM     34  C   UNL     1       9.459   9.406   8.050  0.00  0.00    +0.007 A 
ATOM     35  C   UNL     1       9.276  11.043   6.284  0.00  0.00    +0.007 A 
ATOM     36  C   UNL     1      10.141  10.333   8.839  0.00  0.00    +0.000 A 
ATOM     37  C   UNL     1       9.958  11.969   7.072  0.00  0.00    +0.000 A 
ATOM     38  C   UNL     1      10.390  11.615   8.349  0.00  0.00    +0.000 A 
ENDBRANCH  32  33
ENDBRANCH   7  32
ENDBRANCH  27   7
ENDBRANCH  18  19
ENDBRANCH  11   9
BRANCH  12   4
ATOM      4  O   UNL     1      11.251   4.049  -0.980  0.00  0.00    -0.390 OA
ATOM     40  H   UNL     1      11.234   3.078  -1.012  0.00  0.00    +0.210 HD
ENDBRANCH  12   4
TORSDOF 8
ENDMDL
MODEL 8
REMARK VINA RESULT:      -6.8     25.648     28.444
REMARK  Name = 45360387
REMARK  8 active torsions:
REMARK  status: ('A' for Active; 'I' for Inactive)
REMARK    1  A    between atoms: O_4  and  C_12
REMARK    2  A    between atoms: O_7  and  C_27
REMARK    3  A    between atoms: O_7  and  C_32
REMARK    4  A    between atoms: N_9  and  C_11
REMARK    5  A    between atoms: N_10  and  C_20
REMARK    6  A    between atoms: C_18  and  C_19
REMARK    7  A    between atoms: C_28  and  C_31
REMARK    8  A    between atoms: C_32  and  C_33
REMARK                            x       y       z     vdW  Elec       q    Type
REMARK                         _______ _______ _______ _____ _____    ______ ____
ROOT
ATOM      5  O   UNL     1       1.537   9.495  -4.346  0.00  0.00    -0.252 OA
ATOM      8  N   UNL     1       3.014  10.562  -2.923  0.00  0.00    -0.284 N 
ATOM     10  N   UNL     1       0.694  10.993  -2.785  0.00  0.00    -0.269 N 
ATOM     11  C   UNL     1       3.267  10.710  -0.421  0.00  0.00    +0.119 C 
ATOM     12  C   UNL     1       3.757   9.251  -0.386  0.00  0.00    +0.136 C 
ATOM     13  C   UNL     1       4.966   8.933  -1.273  0.00  0.00    +0.035 C 
ATOM     14  C   UNL     1       3.338  11.423  -1.777  0.00  0.00    +0.134 C 
ATOM     15  C   UNL     1       4.589   8.647  -2.729  0.00  0.00    +0.022 C 
ATOM     16  C   UNL     1       4.158   9.874  -3.522  0.00  0.00    +0.109 C 
ATOM     17  C   UNL     1       1.717  10.292  -3.422  0.00  0.00    +0.307 C 
ATOM     41  H   UNL     1       0.938  11.610  -2.018  0.00  0.00    +0.156 HD
ENDROOT
BRANCH  10  20
ATOM     20  C   UNL     1      -0.698  10.941  -3.053  0.00  0.00    +0.035 A 
ATOM     23  C   UNL     1      -1.561  10.328  -2.146  0.00  0.00    +0.035 A 
ATOM     24  C   UNL     1      -1.202  11.503  -4.227  0.00  0.00    +0.023 A 
ATOM     28  C   UNL     1      -2.930  10.278  -2.410  0.00  0.00    +0.057 A 
ATOM     29  C   UNL     1      -2.570  11.452  -4.491  0.00  0.00    +0.002 A 
ATOM     30  C   UNL     1      -3.435  10.840  -3.584  0.00  0.00    +0.012 A 
BRANCH  28  31
ATOM      1  F   UNL     1      -3.307   8.547  -0.803  0.00  0.00    -0.166 F 
ATOM      2  F   UNL     1      -4.992   9.157  -2.032  0.00  0.00    -0.166 F 
ATOM      3  F   UNL     1      -4.275  10.453  -0.440  0.00  0.00    -0.166 F 
ATOM     31  C   UNL     1      -3.854   9.623  -1.441  0.00  0.00    +0.417 C 
ENDBRANCH  28  31
ENDBRANCH  10  20
BRANCH  11   9
ATOM      6  O   UNL     1       2.532  11.181   2.313  0.00  0.00    -0.270 OA
ATOM      9  N   UNL     1       1.921  10.768   0.116  0.00  0.00    -0.305 N 
ATOM     18  C   UNL     1       1.672  11.002   1.455  0.00  0.00    +0.244 C 
ATOM     39  H   UNL     1       1.155  10.742  -0.550  0.00  0.00    +0.149 HD
BRANCH  18  19
ATOM     19  C   UNL     1       0.240  11.005   1.851  0.00  0.00    +0.037 A 
ATOM     21  C   UNL     1      -0.257  12.023   2.663  0.00  0.00    +0.016 A 
ATOM     22  C   UNL     1      -0.607   9.986   1.412  0.00  0.00    +0.016 A 
ATOM     25  C   UNL     1      -1.601  12.024   3.037  0.00  0.00    +0.046 A 
ATOM     26  C   UNL     1      -1.950   9.987   1.786  0.00  0.00    +0.046 A 
ATOM     27  C   UNL     1      -2.448  11.007   2.598  0.00  0.00    +0.121 A 
BRANCH  27   7
ATOM      7  O   UNL     1      -3.760  11.007   2.963  0.00  0.00    -0.487 OA
BRANCH   7  32
ATOM     32  C   UNL     1      -4.049  10.794   4.344  0.00  0.00    +0.264 C 
BRANCH  32  33
ATOM     33  C   UNL     1      -4.239   9.325   4.583  0.00  0.00    -0.010 A 
ATOM     34  C   UNL     1      -5.429   8.704   4.203  0.00  0.00    +0.007 A 
ATOM     35  C   UNL     1      -3.226   8.579   5.184  0.00  0.00    +0.007 A 
ATOM     36  C   UNL     1      -5.606   7.338   4.425  0.00  0.00    +0.000 A 
ATOM     37  C   UNL     1      -3.402   7.214   5.406  0.00  0.00    +0.000 A 
ATOM     38  C   UNL     1      -4.591   6.593   5.027  0.00  0.00    +0.000 A 
ENDBRANCH  32  33
ENDBRANCH   7  32
ENDBRANCH  27   7
ENDBRANCH  18  19
ENDBRANCH  11   9
BRANCH  12   4
ATOM      4  O   UNL     1       4.138   8.950   0.964  0.00  0.00    -0.390 OA
ATOM     40  H   UNL     1       5.109   8.905   0.994  0.00  0.00    +0.210 HD
ENDBRANCH  12   4
TORSDOF 8
ENDMDL
MODEL 9
REMARK VINA RESULT:      -6.7     20.590     22.548
REMARK  Name = 45360387
REMARK  8 active torsions:
REMARK  status: ('A' for Active; 'I' for Inactive)
REMARK    1  A    between atoms: O_4  and  C_12
REMARK    2  A    between atoms: O_7  and  C_27
REMARK    3  A    between atoms: O_7  and  C_32
REMARK    4  A    between atoms: N_9  and  C_11
REMARK    5  A    between atoms: N_10  and  C_20
REMARK    6  A    between atoms: C_18  and  C_19
REMARK    7  A    between atoms: C_28  and  C_31
REMARK    8  A    between atoms: C_32  and  C_33
REMARK                            x       y       z     vdW  Elec       q    Type
REMARK                         _______ _______ _______ _____ _____    ______ ____
ROOT
ATOM      5  O   UNL     1      12.045  -5.627  34.668  0.00  0.00    -0.252 OA
ATOM      8  N   UNL     1       9.857  -4.894  34.519  0.00  0.00    -0.284 N 
ATOM     10  N   UNL     1      10.806  -6.194  32.788  0.00  0.00    -0.269 N 
ATOM     11  C   UNL     1       7.625  -6.028  34.251  0.00  0.00    +0.119 C 
ATOM     12  C   UNL     1       7.712  -6.540  35.701  0.00  0.00    +0.136 C 
ATOM     13  C   UNL     1       7.915  -5.467  36.775  0.00  0.00    +0.035 C 
ATOM     14  C   UNL     1       8.532  -4.847  33.887  0.00  0.00    +0.134 C 
ATOM     15  C   UNL     1       9.380  -5.060  36.955  0.00  0.00    +0.022 C 
ATOM     16  C   UNL     1       9.948  -4.222  35.816  0.00  0.00    +0.109 C 
ATOM     17  C   UNL     1      10.992  -5.584  34.028  0.00  0.00    +0.307 C 
ATOM     41  H   UNL     1       9.895  -6.123  32.348  0.00  0.00    +0.156 HD
ENDROOT
BRANCH  10  20
ATOM     20  C   UNL     1      11.743  -6.951  32.039  0.00  0.00    +0.035 A 
ATOM     23  C   UNL     1      12.748  -6.303  31.321  0.00  0.00    +0.035 A 
ATOM     24  C   UNL     1      11.659  -8.343  32.021  0.00  0.00    +0.023 A 
ATOM     28  C   UNL     1      13.670  -7.048  30.585  0.00  0.00    +0.057 A 
ATOM     29  C   UNL     1      12.580  -9.087  31.285  0.00  0.00    +0.002 A 
ATOM     30  C   UNL     1      13.586  -8.441  30.567  0.00  0.00    +0.012 A 
BRANCH  28  31
ATOM      1  F   UNL     1      14.835  -5.020  30.082  0.00  0.00    -0.166 F 
ATOM      2  F   UNL     1      14.569  -6.451  28.467  0.00  0.00    -0.166 F 
ATOM      3  F   UNL     1      15.995  -6.852  30.058  0.00  0.00    -0.166 F 
ATOM     31  C   UNL     1      14.745  -6.357  29.817  0.00  0.00    +0.417 C 
ENDBRANCH  28  31
ENDBRANCH  10  20
BRANCH  11   9
ATOM      6  O   UNL     1       5.617  -7.726  33.099  0.00  0.00    -0.270 OA
ATOM      9  N   UNL     1       7.845  -7.140  33.345  0.00  0.00    -0.305 N 
ATOM     18  C   UNL     1       6.805  -7.899  32.844  0.00  0.00    +0.244 C 
ATOM     39  H   UNL     1       8.790  -7.274  32.998  0.00  0.00    +0.149 HD
BRANCH  18  19
ATOM     19  C   UNL     1       7.199  -9.018  31.949  0.00  0.00    +0.037 A 
ATOM     21  C   UNL     1       8.148  -9.948  32.371  0.00  0.00    +0.016 A 
ATOM     22  C   UNL     1       6.620  -9.136  30.684  0.00  0.00    +0.016 A 
ATOM     25  C   UNL     1       8.519 -10.996  31.530  0.00  0.00    +0.046 A 
ATOM     26  C   UNL     1       6.991 -10.185  29.844  0.00  0.00    +0.046 A 
ATOM     27  C   UNL     1       7.940 -11.116  30.266  0.00  0.00    +0.121 A 
BRANCH  27   7
ATOM      7  O   UNL     1       8.302 -12.139  29.445  0.00  0.00    -0.487 OA
BRANCH   7  32
ATOM     32  C   UNL     1       8.095 -13.465  29.931  0.00  0.00    +0.264 C 
BRANCH  32  33
ATOM     33  C   UNL     1       6.758 -13.957  29.458  0.00  0.00    -0.010 A 
ATOM     34  C   UNL     1       6.675 -14.788  28.341  0.00  0.00    +0.007 A 
ATOM     35  C   UNL     1       5.599 -13.583  30.137  0.00  0.00    +0.007 A 
ATOM     36  C   UNL     1       5.432 -15.244  27.902  0.00  0.00    +0.000 A 
ATOM     37  C   UNL     1       4.357 -14.040  29.699  0.00  0.00    +0.000 A 
ATOM     38  C   UNL     1       4.272 -14.870  28.582  0.00  0.00    +0.000 A 
ENDBRANCH  32  33
ENDBRANCH   7  32
ENDBRANCH  27   7
ENDBRANCH  18  19
ENDBRANCH  11   9
BRANCH  12   4
ATOM      4  O   UNL     1       6.480  -7.208  36.003  0.00  0.00    -0.390 OA
ATOM     40  H   UNL     1       6.674  -8.155  36.104  0.00  0.00    +0.210 HD
ENDBRANCH  12   4
TORSDOF 8
ENDMDL
MODEL 10
REMARK VINA RESULT:      -6.7     16.928     19.646
REMARK  Name = 45360387
REMARK  8 active torsions:
REMARK  status: ('A' for Active; 'I' for Inactive)
REMARK    1  A    between atoms: O_4  and  C_12
REMARK    2  A    between atoms: O_7  and  C_27
REMARK    3  A    between atoms: O_7  and  C_32
REMARK    4  A    between atoms: N_9  and  C_11
REMARK    5  A    between atoms: N_10  and  C_20
REMARK    6  A    between atoms: C_18  and  C_19
REMARK    7  A    between atoms: C_28  and  C_31
REMARK    8  A    between atoms: C_32  and  C_33
REMARK                            x       y       z     vdW  Elec       q    Type
REMARK                         _______ _______ _______ _____ _____    ______ ____
ROOT
ATOM      5  O   UNL     1      12.269   9.511   7.173  0.00  0.00    -0.252 OA
ATOM      8  N   UNL     1      14.482   9.479   6.505  0.00  0.00    -0.284 N 
ATOM     10  N   UNL     1      13.109   7.580   6.193  0.00  0.00    -0.269 N 
ATOM     11  C   UNL     1      15.665   9.076   4.318  0.00  0.00    +0.119 C 
ATOM     12  C   UNL     1      15.176  10.442   3.803  0.00  0.00    +0.136 C 
ATOM     13  C   UNL     1      15.539  11.650   4.673  0.00  0.00    +0.035 C 
ATOM     14  C   UNL     1      15.640   8.868   5.837  0.00  0.00    +0.134 C 
ATOM     15  C   UNL     1      14.567  11.873   5.835  0.00  0.00    +0.022 C 
ATOM     16  C   UNL     1      14.686  10.854   6.962  0.00  0.00    +0.109 C 
ATOM     17  C   UNL     1      13.204   8.890   6.661  0.00  0.00    +0.307 C 
ATOM     41  H   UNL     1      13.927   7.161   5.766  0.00  0.00    +0.156 HD
ENDROOT
BRANCH  10  20
ATOM     20  C   UNL     1      11.974   6.729   6.209  0.00  0.00    +0.035 A 
ATOM     23  C   UNL     1      11.418   6.330   7.424  0.00  0.00    +0.035 A 
ATOM     24  C   UNL     1      11.416   6.291   5.008  0.00  0.00    +0.023 A 
ATOM     28  C   UNL     1      10.302   5.493   7.438  0.00  0.00    +0.057 A 
ATOM     29  C   UNL     1      10.300   5.454   5.023  0.00  0.00    +0.002 A 
ATOM     30  C   UNL     1       9.743   5.055   6.237  0.00  0.00    +0.012 A 
BRANCH  28  31
ATOM      1  F   UNL     1      10.527   5.270   9.809  0.00  0.00    -0.166 F 
ATOM      2  F   UNL     1       9.398   3.737   8.761  0.00  0.00    -0.166 F 
ATOM      3  F   UNL     1       8.547   5.716   9.047  0.00  0.00    -0.166 F 
ATOM     31  C   UNL     1       9.707   5.065   8.737  0.00  0.00    +0.417 C 
ENDBRANCH  28  31
ENDBRANCH  10  20
BRANCH  11   9
ATOM      6  O   UNL     1      16.455   7.664   1.946  0.00  0.00    -0.270 OA
ATOM      9  N   UNL     1      14.922   8.026   3.647  0.00  0.00    -0.305 N 
ATOM     18  C   UNL     1      15.391   7.406   2.505  0.00  0.00    +0.244 C 
ATOM     39  H   UNL     1      14.089   7.679   4.111  0.00  0.00    +0.149 HD
BRANCH  18  19
ATOM     19  C   UNL     1      14.500   6.369   1.923  0.00  0.00    +0.037 A 
ATOM     21  C   UNL     1      15.011   5.113   1.600  0.00  0.00    +0.016 A 
ATOM     22  C   UNL     1      13.152   6.654   1.700  0.00  0.00    +0.016 A 
ATOM     25  C   UNL     1      14.174   4.140   1.052  0.00  0.00    +0.046 A 
ATOM     26  C   UNL     1      12.317   5.681   1.152  0.00  0.00    +0.046 A 
ATOM     27  C   UNL     1      12.827   4.424   0.829  0.00  0.00    +0.121 A 
BRANCH  27   7
ATOM      7  O   UNL     1      12.010   3.475   0.294  0.00  0.00    -0.487 OA
BRANCH   7  32
ATOM     32  C   UNL     1      12.366   2.960  -0.988  0.00  0.00    +0.264 C 
BRANCH  32  33
ATOM     33  C   UNL     1      11.250   3.235  -1.953  0.00  0.00    -0.010 A 
ATOM     34  C   UNL     1      10.811   2.231  -2.817  0.00  0.00    +0.007 A 
ATOM     35  C   UNL     1      10.652   4.494  -1.987  0.00  0.00    +0.007 A 
ATOM     36  C   UNL     1       9.774   2.486  -3.714  0.00  0.00    +0.000 A 
ATOM     37  C   UNL     1       9.615   4.749  -2.883  0.00  0.00    +0.000 A 
ATOM     38  C   UNL     1       9.176   3.746  -3.747  0.00  0.00    +0.000 A 
ENDBRANCH  32  33
ENDBRANCH   7  32
ENDBRANCH  27   7
ENDBRANCH  18  19
ENDBRANCH  11   9
BRANCH  12   4
ATOM      4  O   UNL     1      15.767  10.661   2.515  0.00  0.00    -0.390 OA
ATOM     40  H   UNL     1      16.190   9.830   2.239  0.00  0.00    +0.210 HD
ENDBRANCH  12   4
TORSDOF 8
ENDMDL
