MODEL 1
REMARK VINA RESULT:      -6.3      0.000      0.000
REMARK  Name = 75537131
REMARK  4 active torsions:
REMARK  status: ('A' for Active; 'I' for Inactive)
REMARK    1  A    between atoms: N_2  and  C_8
REMARK    2  A    between atoms: N_4  and  C_19
REMARK    3  A    between atoms: N_5  and  C_23
REMARK    4  A    between atoms: C_19  and  C_20
REMARK                            x       y       z     vdW  Elec       q    Type
REMARK                         _______ _______ _______ _____ _____    ______ ____
ROOT
ATOM      1  O   UNL     1      15.743   6.199  19.016  0.00  0.00    -0.252 OA
ATOM      2  N   UNL     1      16.405   7.595  20.799  0.00  0.00    -0.281 N 
ATOM      3  N   UNL     1      14.214   7.222  20.477  0.00  0.00    -0.278 N 
ATOM      4  N   UNL     1      11.923   8.617  21.322  0.00  0.00    -0.292 NA
ATOM      7  C   UNL     1      14.275   7.997  21.698  0.00  0.00    +0.109 C 
ATOM      9  C   UNL     1      15.736   8.434  21.778  0.00  0.00    +0.133 C 
ATOM     10  C   UNL     1      13.263   9.142  21.653  0.00  0.00    +0.109 C 
ATOM     13  C   UNL     1      15.485   6.910  19.978  0.00  0.00    +0.305 C 
ATOM     14  C   UNL     1      12.927   6.782  19.981  0.00  0.00    +0.125 C 
ATOM     15  C   UNL     1      11.930   7.943  20.009  0.00  0.00    +0.104 C 
ENDROOT
BRANCH   2   8
ATOM      8  C   UNL     1      17.837   7.611  20.629  0.00  0.00    +0.078 C 
ATOM     11  C   UNL     1      18.426   6.226  20.903  0.00  0.00    +0.022 C 
ATOM     12  C   UNL     1      18.476   8.675  21.525  0.00  0.00    +0.022 C 
ATOM     16  C   UNL     1      19.948   6.227  20.782  0.00  0.00    +0.002 C 
ATOM     17  C   UNL     1      19.998   8.674  21.402  0.00  0.00    +0.002 C 
ATOM     18  C   UNL     1      20.583   7.291  21.673  0.00  0.00    +0.000 C 
ENDBRANCH   2   8
BRANCH   4  19
ATOM     19  C   UNL     1      10.936   9.697  21.336  0.00  0.00    +0.158 C 
BRANCH  19  20
ATOM      5  N   UNL     1      11.414  11.885  22.481  0.00  0.00    -0.336 N 
ATOM      6  N   UNL     1      10.883  10.182  23.803  0.00  0.00    -0.239 NA
ATOM     20  C   UNL     1      11.070  10.565  22.559  0.00  0.00    +0.124 A 
ATOM     21  C   UNL     1      11.449  12.376  23.756  0.00  0.00    +0.106 A 
ATOM     22  C   UNL     1      11.117  11.307  24.553  0.00  0.00    +0.130 A 
ATOM     23  C   UNL     1      11.693  12.640  21.282  0.00  0.00    +0.150 C 
ENDBRANCH  19  20
ENDBRANCH   4  19
TORSDOF 3
ENDMDL
MODEL 2
REMARK VINA RESULT:      -6.3     27.236     28.935
REMARK  Name = 75537131
REMARK  4 active torsions:
REMARK  status: ('A' for Active; 'I' for Inactive)
REMARK    1  A    between atoms: N_2  and  C_8
REMARK    2  A    between atoms: N_4  and  C_19
REMARK    3  A    between atoms: N_5  and  C_23
REMARK    4  A    between atoms: C_19  and  C_20
REMARK                            x       y       z     vdW  Elec       q    Type
REMARK                         _______ _______ _______ _____ _____    ______ ____
ROOT
ATOM      1  O   UNL     1      -1.752 -10.787  15.663  0.00  0.00    -0.252 OA
ATOM      2  N   UNL     1      -4.104 -10.672  15.515  0.00  0.00    -0.281 N 
ATOM      3  N   UNL     1      -2.909 -10.811  13.619  0.00  0.00    -0.278 N 
ATOM      4  N   UNL     1      -3.535 -10.182  10.950  0.00  0.00    -0.292 NA
ATOM      7  C   UNL     1      -4.289 -10.883  13.185  0.00  0.00    +0.109 C 
ATOM      9  C   UNL     1      -5.083 -10.558  14.449  0.00  0.00    +0.133 C 
ATOM     10  C   UNL     1      -4.530  -9.932  12.013  0.00  0.00    +0.109 C 
ATOM     13  C   UNL     1      -2.789 -10.765  15.014  0.00  0.00    +0.305 C 
ATOM     14  C   UNL     1      -1.852 -10.895  12.633  0.00  0.00    +0.125 C 
ATOM     15  C   UNL     1      -2.163  -9.972  11.452  0.00  0.00    +0.104 C 
ENDROOT
BRANCH   2   8
ATOM      8  C   UNL     1      -4.469 -10.547  16.905  0.00  0.00    +0.078 C 
ATOM     11  C   UNL     1      -4.091 -11.813  17.676  0.00  0.00    +0.022 C 
ATOM     12  C   UNL     1      -5.961 -10.234  17.047  0.00  0.00    +0.022 C 
ATOM     16  C   UNL     1      -4.514 -11.730  19.140  0.00  0.00    +0.002 C 
ATOM     17  C   UNL     1      -6.382 -10.150  18.512  0.00  0.00    +0.002 C 
ATOM     18  C   UNL     1      -6.001 -11.414  19.279  0.00  0.00    +0.000 C 
ENDBRANCH   2   8
BRANCH   4  19
ATOM     19  C   UNL     1      -3.794  -9.318   9.798  0.00  0.00    +0.158 C 
BRANCH  19  20
ATOM      5  N   UNL     1      -5.987  -9.457   8.573  0.00  0.00    -0.336 N 
ATOM      6  N   UNL     1      -4.497 -11.034   8.101  0.00  0.00    -0.239 NA
ATOM     20  C   UNL     1      -4.739  -9.959   8.817  0.00  0.00    +0.124 A 
ATOM     21  C   UNL     1      -6.579 -10.264   7.642  0.00  0.00    +0.106 A 
ATOM     22  C   UNL     1      -5.640 -11.229   7.366  0.00  0.00    +0.130 A 
ATOM     23  C   UNL     1      -6.586  -8.290   9.177  0.00  0.00    +0.150 C 
ENDBRANCH  19  20
ENDBRANCH   4  19
TORSDOF 3
ENDMDL
MODEL 3
REMARK VINA RESULT:      -6.1     26.449     29.780
REMARK  Name = 75537131
REMARK  4 active torsions:
REMARK  status: ('A' for Active; 'I' for Inactive)
REMARK    1  A    between atoms: N_2  and  C_8
REMARK    2  A    between atoms: N_4  and  C_19
REMARK    3  A    between atoms: N_5  and  C_23
REMARK    4  A    between atoms: C_19  and  C_20
REMARK                            x       y       z     vdW  Elec       q    Type
REMARK                         _______ _______ _______ _____ _____    ______ ____
ROOT
ATOM      1  O   UNL     1     -15.704   7.386  19.532  0.00  0.00    -0.252 OA
ATOM      2  N   UNL     1     -13.581   7.034  20.500  0.00  0.00    -0.281 N 
ATOM      3  N   UNL     1     -15.319   5.819  21.239  0.00  0.00    -0.278 N 
ATOM      4  N   UNL     1     -15.730   4.374  23.617  0.00  0.00    -0.292 NA
ATOM      7  C   UNL     1     -14.173   5.276  21.938  0.00  0.00    +0.109 C 
ATOM      9  C   UNL     1     -13.048   6.254  21.602  0.00  0.00    +0.133 C 
ATOM     10  C   UNL     1     -14.476   5.134  23.429  0.00  0.00    +0.109 C 
ATOM     13  C   UNL     1     -14.962   6.814  20.320  0.00  0.00    +0.305 C 
ATOM     14  C   UNL     1     -16.627   5.240  21.468  0.00  0.00    +0.125 C 
ATOM     15  C   UNL     1     -16.864   5.061  22.969  0.00  0.00    +0.104 C 
ENDROOT
BRANCH   2   8
ATOM      8  C   UNL     1     -12.786   8.014  19.801  0.00  0.00    +0.078 C 
ATOM     11  C   UNL     1     -11.644   7.336  19.041  0.00  0.00    +0.022 C 
ATOM     12  C   UNL     1     -12.257   9.073  20.771  0.00  0.00    +0.022 C 
ATOM     16  C   UNL     1     -10.753   8.355  18.336  0.00  0.00    +0.002 C 
ATOM     17  C   UNL     1     -11.368  10.092  20.063  0.00  0.00    +0.002 C 
ATOM     18  C   UNL     1     -10.231   9.413  19.304  0.00  0.00    +0.000 C 
ENDBRANCH   2   8
BRANCH   4  19
ATOM     19  C   UNL     1     -15.997   4.181  25.042  0.00  0.00    +0.158 C 
BRANCH  19  20
ATOM      5  N   UNL     1     -16.373   2.250  26.611  0.00  0.00    -0.336 N 
ATOM      6  N   UNL     1     -16.869   1.891  24.476  0.00  0.00    -0.239 NA
ATOM     20  C   UNL     1     -16.420   2.768  25.347  0.00  0.00    +0.124 A 
ATOM     21  C   UNL     1     -16.820   0.960  26.543  0.00  0.00    +0.106 A 
ATOM     22  C   UNL     1     -17.120   0.762  25.216  0.00  0.00    +0.130 A 
ATOM     23  C   UNL     1     -15.935   2.926  27.810  0.00  0.00    +0.150 C 
ENDBRANCH  19  20
ENDBRANCH   4  19
TORSDOF 3
ENDMDL
MODEL 4
REMARK VINA RESULT:      -5.9     26.901     29.240
REMARK  Name = 75537131
REMARK  4 active torsions:
REMARK  status: ('A' for Active; 'I' for Inactive)
REMARK    1  A    between atoms: N_2  and  C_8
REMARK    2  A    between atoms: N_4  and  C_19
REMARK    3  A    between atoms: N_5  and  C_23
REMARK    4  A    between atoms: C_19  and  C_20
REMARK                            x       y       z     vdW  Elec       q    Type
REMARK                         _______ _______ _______ _____ _____    ______ ____
ROOT
ATOM      1  O   UNL     1      -5.331 -12.544  17.962  0.00  0.00    -0.252 OA
ATOM      2  N   UNL     1      -5.232 -10.769  16.411  0.00  0.00    -0.281 N 
ATOM      3  N   UNL     1      -6.957 -10.852  17.848  0.00  0.00    -0.278 N 
ATOM      4  N   UNL     1      -9.502  -9.657  17.804  0.00  0.00    -0.292 NA
ATOM      7  C   UNL     1      -7.133  -9.601  17.140  0.00  0.00    +0.109 C 
ATOM      9  C   UNL     1      -6.096  -9.668  16.021  0.00  0.00    +0.133 C 
ATOM     10  C   UNL     1      -8.579  -9.455  16.668  0.00  0.00    +0.109 C 
ATOM     13  C   UNL     1      -5.781 -11.516  17.473  0.00  0.00    +0.305 C 
ATOM     14  C   UNL     1      -7.899 -11.219  18.884  0.00  0.00    +0.125 C 
ATOM     15  C   UNL     1      -9.331 -11.001  18.389  0.00  0.00    +0.104 C 
ENDROOT
BRANCH   2   8
ATOM      8  C   UNL     1      -4.041 -11.106  15.670  0.00  0.00    +0.078 C 
ATOM     11  C   UNL     1      -2.805 -10.501  16.338  0.00  0.00    +0.022 C 
ATOM     12  C   UNL     1      -4.164 -10.654  14.213  0.00  0.00    +0.022 C 
ATOM     16  C   UNL     1      -1.534 -10.798  15.546  0.00  0.00    +0.002 C 
ATOM     17  C   UNL     1      -2.892 -10.952  13.422  0.00  0.00    +0.002 C 
ATOM     18  C   UNL     1      -1.660 -10.350  14.092  0.00  0.00    +0.000 C 
ENDBRANCH   2   8
BRANCH   4  19
ATOM     19  C   UNL     1     -10.887  -9.460  17.375  0.00  0.00    +0.158 C 
BRANCH  19  20
ATOM      5  N   UNL     1     -11.417  -8.186  15.272  0.00  0.00    -0.336 N 
ATOM      6  N   UNL     1     -10.883  -6.967  17.049  0.00  0.00    -0.239 NA
ATOM     20  C   UNL     1     -11.055  -8.186  16.590  0.00  0.00    +0.124 A 
ATOM     21  C   UNL     1     -11.480  -6.883  14.864  0.00  0.00    +0.106 A 
ATOM     22  C   UNL     1     -11.147  -6.150  15.978  0.00  0.00    +0.130 A 
ATOM     23  C   UNL     1     -11.688  -9.339  14.446  0.00  0.00    +0.150 C 
ENDBRANCH  19  20
ENDBRANCH   4  19
TORSDOF 3
ENDMDL
MODEL 5
REMARK VINA RESULT:      -5.9      3.274      9.013
REMARK  Name = 75537131
REMARK  4 active torsions:
REMARK  status: ('A' for Active; 'I' for Inactive)
REMARK    1  A    between atoms: N_2  and  C_8
REMARK    2  A    between atoms: N_4  and  C_19
REMARK    3  A    between atoms: N_5  and  C_23
REMARK    4  A    between atoms: C_19  and  C_20
REMARK                            x       y       z     vdW  Elec       q    Type
REMARK                         _______ _______ _______ _____ _____    ______ ____
ROOT
ATOM      1  O   UNL     1      16.899   9.898  21.135  0.00  0.00    -0.252 OA
ATOM      2  N   UNL     1      16.059   7.969  20.068  0.00  0.00    -0.281 N 
ATOM      3  N   UNL     1      17.991   7.820  21.205  0.00  0.00    -0.278 N 
ATOM      4  N   UNL     1      20.094   5.955  21.105  0.00  0.00    -0.292 NA
ATOM      7  C   UNL     1      17.706   6.461  20.792  0.00  0.00    +0.109 C 
ATOM      9  C   UNL     1      16.525   6.613  19.835  0.00  0.00    +0.133 C 
ATOM     10  C   UNL     1      18.950   5.818  20.180  0.00  0.00    +0.109 C 
ATOM     13  C   UNL     1      16.972   8.712  20.844  0.00  0.00    +0.305 C 
ATOM     14  C   UNL     1      19.175   8.086  21.993  0.00  0.00    +0.125 C 
ATOM     15  C   UNL     1      20.384   7.377  21.378  0.00  0.00    +0.104 C 
ENDROOT
BRANCH   2   8
ATOM      8  C   UNL     1      14.873   8.489  19.433  0.00  0.00    +0.078 C 
ATOM     11  C   UNL     1      13.725   8.587  20.439  0.00  0.00    +0.022 C 
ATOM     12  C   UNL     1      14.485   7.633  18.226  0.00  0.00    +0.022 C 
ATOM     16  C   UNL     1      12.440   9.085  19.782  0.00  0.00    +0.002 C 
ATOM     17  C   UNL     1      13.200   8.134  17.570  0.00  0.00    +0.002 C 
ATOM     18  C   UNL     1      12.057   8.232  18.576  0.00  0.00    +0.000 C 
ENDBRANCH   2   8
BRANCH   4  19
ATOM     19  C   UNL     1      21.275   5.290  20.555  0.00  0.00    +0.158 C 
BRANCH  19  20
ATOM      5  N   UNL     1      23.388   4.223  21.407  0.00  0.00    -0.336 N 
ATOM      6  N   UNL     1      21.721   4.402  22.864  0.00  0.00    -0.239 NA
ATOM     20  C   UNL     1      22.105   4.640  21.630  0.00  0.00    +0.124 A 
ATOM     21  C   UNL     1      23.852   3.683  22.574  0.00  0.00    +0.106 A 
ATOM     22  C   UNL     1      22.806   3.805  23.458  0.00  0.00    +0.130 A 
ATOM     23  C   UNL     1      24.132   4.325  20.174  0.00  0.00    +0.150 C 
ENDBRANCH  19  20
ENDBRANCH   4  19
TORSDOF 3
ENDMDL
MODEL 6
REMARK VINA RESULT:      -5.8     27.357     29.622
REMARK  Name = 75537131
REMARK  4 active torsions:
REMARK  status: ('A' for Active; 'I' for Inactive)
REMARK    1  A    between atoms: N_2  and  C_8
REMARK    2  A    between atoms: N_4  and  C_19
REMARK    3  A    between atoms: N_5  and  C_23
REMARK    4  A    between atoms: C_19  and  C_20
REMARK                            x       y       z     vdW  Elec       q    Type
REMARK                         _______ _______ _______ _____ _____    ______ ____
ROOT
ATOM      1  O   UNL     1      -5.146 -10.353  18.523  0.00  0.00    -0.252 OA
ATOM      2  N   UNL     1      -6.811 -10.201  16.858  0.00  0.00    -0.281 N 
ATOM      3  N   UNL     1      -4.761 -10.912  16.274  0.00  0.00    -0.278 N 
ATOM      4  N   UNL     1      -3.451 -11.042  13.789  0.00  0.00    -0.292 NA
ATOM      7  C   UNL     1      -5.553 -11.056  15.070  0.00  0.00    +0.109 C 
ATOM      9  C   UNL     1      -6.868 -10.360  15.415  0.00  0.00    +0.133 C 
ATOM     10  C   UNL     1      -4.810 -10.467  13.871  0.00  0.00    +0.109 C 
ATOM     13  C   UNL     1      -5.525 -10.478  17.366  0.00  0.00    +0.305 C 
ATOM     14  C   UNL     1      -3.369 -11.309  16.258  0.00  0.00    +0.125 C 
ATOM     15  C   UNL     1      -2.680 -10.747  15.012  0.00  0.00    +0.104 C 
ENDROOT
BRANCH   2   8
ATOM      8  C   UNL     1      -7.921  -9.677  17.614  0.00  0.00    +0.078 C 
ATOM     11  C   UNL     1      -8.770 -10.815  18.183  0.00  0.00    +0.022 C 
ATOM     12  C   UNL     1      -8.763  -8.731  16.754  0.00  0.00    +0.022 C 
ATOM     16  C   UNL     1      -9.983 -10.288  18.944  0.00  0.00    +0.002 C 
ATOM     17  C   UNL     1      -9.975  -8.204  17.518  0.00  0.00    +0.002 C 
ATOM     18  C   UNL     1     -10.819  -9.342  18.086  0.00  0.00    +0.000 C 
ENDBRANCH   2   8
BRANCH   4  19
ATOM     19  C   UNL     1      -2.753 -10.529  12.610  0.00  0.00    +0.158 C 
BRANCH  19  20
ATOM      5  N   UNL     1      -3.739 -10.375  10.300  0.00  0.00    -0.336 N 
ATOM      6  N   UNL     1      -3.361 -12.423  11.072  0.00  0.00    -0.239 NA
ATOM     20  C   UNL     1      -3.279 -11.139  11.337  0.00  0.00    +0.124 A 
ATOM     21  C   UNL     1      -4.139 -11.228   9.310  0.00  0.00    +0.106 A 
ATOM     22  C   UNL     1      -3.896 -12.485   9.809  0.00  0.00    +0.130 A 
ATOM     23  C   UNL     1      -3.798  -8.934  10.243  0.00  0.00    +0.150 C 
ENDBRANCH  19  20
ENDBRANCH   4  19
TORSDOF 3
ENDMDL
MODEL 7
REMARK VINA RESULT:      -5.7     27.375     29.737
REMARK  Name = 75537131
REMARK  4 active torsions:
REMARK  status: ('A' for Active; 'I' for Inactive)
REMARK    1  A    between atoms: N_2  and  C_8
REMARK    2  A    between atoms: N_4  and  C_19
REMARK    3  A    between atoms: N_5  and  C_23
REMARK    4  A    between atoms: C_19  and  C_20
REMARK                            x       y       z     vdW  Elec       q    Type
REMARK                         _______ _______ _______ _____ _____    ______ ____
ROOT
ATOM      1  O   UNL     1      -6.751 -10.199  19.386  0.00  0.00    -0.252 OA
ATOM      2  N   UNL     1      -7.696  -9.818  17.258  0.00  0.00    -0.281 N 
ATOM      3  N   UNL     1      -5.702 -10.845  17.386  0.00  0.00    -0.278 N 
ATOM      4  N   UNL     1      -3.650 -11.212  15.498  0.00  0.00    -0.292 NA
ATOM      7  C   UNL     1      -6.041 -10.883  15.978  0.00  0.00    +0.109 C 
ATOM      9  C   UNL     1      -7.275  -9.988  15.878  0.00  0.00    +0.133 C 
ATOM     10  C   UNL     1      -4.851 -10.434  15.131  0.00  0.00    +0.109 C 
ATOM     13  C   UNL     1      -6.721 -10.282  18.165  0.00  0.00    +0.305 C 
ATOM     14  C   UNL     1      -4.466 -11.451  17.833  0.00  0.00    +0.125 C 
ATOM     15  C   UNL     1      -3.313 -11.022  16.922  0.00  0.00    +0.104 C 
ENDROOT
BRANCH   2   8
ATOM      8  C   UNL     1      -8.907  -9.118  17.608  0.00  0.00    +0.078 C 
ATOM     11  C   UNL     1     -10.025 -10.108  17.935  0.00  0.00    +0.022 C 
ATOM     12  C   UNL     1      -9.321  -8.161  16.487  0.00  0.00    +0.022 C 
ATOM     16  C   UNL     1     -11.335  -9.393  18.257  0.00  0.00    +0.002 C 
ATOM     17  C   UNL     1     -10.631  -7.446  16.812  0.00  0.00    +0.002 C 
ATOM     18  C   UNL     1     -11.744  -8.437  17.140  0.00  0.00    +0.000 C 
ENDBRANCH   2   8
BRANCH   4  19
ATOM     19  C   UNL     1      -2.519 -10.831  14.651  0.00  0.00    +0.158 C 
BRANCH  19  20
ATOM      5  N   UNL     1      -2.686 -12.439  12.723  0.00  0.00    -0.336 N 
ATOM      6  N   UNL     1      -3.078 -10.304  12.257  0.00  0.00    -0.239 NA
ATOM     20  C   UNL     1      -2.767 -11.162  13.203  0.00  0.00    +0.124 A 
ATOM     21  C   UNL     1      -2.963 -12.393  11.385  0.00  0.00    +0.106 A 
ATOM     22  C   UNL     1      -3.203 -11.066  11.122  0.00  0.00    +0.130 A 
ATOM     23  C   UNL     1      -2.368 -13.630  13.475  0.00  0.00    +0.150 C 
ENDBRANCH  19  20
ENDBRANCH   4  19
TORSDOF 3
ENDMDL
MODEL 8
REMARK VINA RESULT:      -5.6     27.647     31.002
REMARK  Name = 75537131
REMARK  4 active torsions:
REMARK  status: ('A' for Active; 'I' for Inactive)
REMARK    1  A    between atoms: N_2  and  C_8
REMARK    2  A    between atoms: N_4  and  C_19
REMARK    3  A    between atoms: N_5  and  C_23
REMARK    4  A    between atoms: C_19  and  C_20
REMARK                            x       y       z     vdW  Elec       q    Type
REMARK                         _______ _______ _______ _____ _____    ______ ____
ROOT
ATOM      1  O   UNL     1     -16.116   8.131  22.634  0.00  0.00    -0.252 OA
ATOM      2  N   UNL     1     -14.558   6.485  21.977  0.00  0.00    -0.281 N 
ATOM      3  N   UNL     1     -16.225   5.901  23.365  0.00  0.00    -0.278 N 
ATOM      4  N   UNL     1     -16.536   3.727  25.122  0.00  0.00    -0.292 NA
ATOM      7  C   UNL     1     -15.544   4.657  23.071  0.00  0.00    +0.109 C 
ATOM      9  C   UNL     1     -14.289   5.099  22.320  0.00  0.00    +0.133 C 
ATOM     10  C   UNL     1     -15.280   3.877  24.359  0.00  0.00    +0.109 C 
ATOM     13  C   UNL     1     -15.691   6.983  22.653  0.00  0.00    +0.305 C 
ATOM     14  C   UNL     1     -17.385   5.885  24.230  0.00  0.00    +0.125 C 
ATOM     15  C   UNL     1     -17.098   5.045  25.477  0.00  0.00    +0.104 C 
ENDROOT
BRANCH   2   8
ATOM      8  C   UNL     1     -13.658   7.258  21.157  0.00  0.00    +0.078 C 
ATOM     11  C   UNL     1     -14.234   7.439  19.751  0.00  0.00    +0.022 C 
ATOM     12  C   UNL     1     -12.273   6.608  21.112  0.00  0.00    +0.022 C 
ATOM     16  C   UNL     1     -13.277   8.209  18.845  0.00  0.00    +0.002 C 
ATOM     17  C   UNL     1     -11.318   7.380  20.205  0.00  0.00    +0.002 C 
ATOM     18  C   UNL     1     -11.896   7.561  18.804  0.00  0.00    +0.000 C 
ENDBRANCH   2   8
BRANCH   4  19
ATOM     19  C   UNL     1     -16.306   2.929  26.327  0.00  0.00    +0.158 C 
BRANCH  19  20
ATOM      5  N   UNL     1     -17.476   1.152  27.670  0.00  0.00    -0.336 N 
ATOM      6  N   UNL     1     -18.300   1.556  25.647  0.00  0.00    -0.239 NA
ATOM     20  C   UNL     1     -17.373   1.884  26.520  0.00  0.00    +0.124 A 
ATOM     21  C   UNL     1     -18.536   0.302  27.521  0.00  0.00    +0.106 A 
ATOM     22  C   UNL     1     -19.028   0.570  26.266  0.00  0.00    +0.130 A 
ATOM     23  C   UNL     1     -16.630   1.245  28.837  0.00  0.00    +0.150 C 
ENDBRANCH  19  20
ENDBRANCH   4  19
TORSDOF 3
ENDMDL
MODEL 9
REMARK VINA RESULT:      -5.6     27.347     28.916
REMARK  Name = 75537131
REMARK  4 active torsions:
REMARK  status: ('A' for Active; 'I' for Inactive)
REMARK    1  A    between atoms: N_2  and  C_8
REMARK    2  A    between atoms: N_4  and  C_19
REMARK    3  A    between atoms: N_5  and  C_23
REMARK    4  A    between atoms: C_19  and  C_20
REMARK                            x       y       z     vdW  Elec       q    Type
REMARK                         _______ _______ _______ _____ _____    ______ ____
ROOT
ATOM      1  O   UNL     1      -4.612 -13.624  13.928  0.00  0.00    -0.252 OA
ATOM      2  N   UNL     1      -3.503 -11.559  14.197  0.00  0.00    -0.281 N 
ATOM      3  N   UNL     1      -4.447 -12.520  15.995  0.00  0.00    -0.278 N 
ATOM      4  N   UNL     1      -5.236 -11.482  18.487  0.00  0.00    -0.292 NA
ATOM      7  C   UNL     1      -3.760 -11.359  16.522  0.00  0.00    +0.109 C 
ATOM      9  C   UNL     1      -3.322 -10.598  15.272  0.00  0.00    +0.133 C 
ATOM     10  C   UNL     1      -4.678 -10.578  17.461  0.00  0.00    +0.109 C 
ATOM     13  C   UNL     1      -4.232 -12.689  14.621  0.00  0.00    +0.305 C 
ATOM     14  C   UNL     1      -5.156 -13.396  16.903  0.00  0.00    +0.125 C 
ATOM     15  C   UNL     1      -6.016 -12.569  17.862  0.00  0.00    +0.104 C 
ENDROOT
BRANCH   2   8
ATOM      8  C   UNL     1      -3.099 -11.275  12.842  0.00  0.00    +0.078 C 
ATOM     11  C   UNL     1      -1.942 -10.274  12.825  0.00  0.00    +0.022 C 
ATOM     12  C   UNL     1      -4.285 -10.770  12.017  0.00  0.00    +0.022 C 
ATOM     16  C   UNL     1      -1.529  -9.915  11.400  0.00  0.00    +0.002 C 
ATOM     17  C   UNL     1      -3.869 -10.412  10.593  0.00  0.00    +0.002 C 
ATOM     18  C   UNL     1      -2.714  -9.415  10.578  0.00  0.00    +0.000 C 
ENDBRANCH   2   8
BRANCH   4  19
ATOM     19  C   UNL     1      -6.069 -10.733  19.427  0.00  0.00    +0.158 C 
BRANCH  19  20
ATOM      5  N   UNL     1      -8.369 -10.461  18.443  0.00  0.00    -0.336 N 
ATOM      6  N   UNL     1      -8.140 -12.046  19.982  0.00  0.00    -0.239 NA
ATOM     20  C   UNL     1      -7.524 -11.102  19.306  0.00  0.00    +0.124 A 
ATOM     21  C   UNL     1      -9.603 -11.032  18.579  0.00  0.00    +0.106 A 
ATOM     22  C   UNL     1      -9.437 -12.007  19.533  0.00  0.00    +0.130 A 
ATOM     23  C   UNL     1      -8.037  -9.379  17.547  0.00  0.00    +0.150 C 
ENDBRANCH  19  20
ENDBRANCH   4  19
TORSDOF 3
ENDMDL
MODEL 10
REMARK VINA RESULT:      -5.5     17.683     19.655
REMARK  Name = 75537131
REMARK  4 active torsions:
REMARK  status: ('A' for Active; 'I' for Inactive)
REMARK    1  A    between atoms: N_2  and  C_8
REMARK    2  A    between atoms: N_4  and  C_19
REMARK    3  A    between atoms: N_5  and  C_23
REMARK    4  A    between atoms: C_19  and  C_20
REMARK                            x       y       z     vdW  Elec       q    Type
REMARK                         _______ _______ _______ _____ _____    ______ ____
ROOT
ATOM      1  O   UNL     1       9.774   7.456   0.356  0.00  0.00    -0.252 OA
ATOM      2  N   UNL     1      10.696   5.312   0.703  0.00  0.00    -0.281 N 
ATOM      3  N   UNL     1       9.879   6.435   2.469  0.00  0.00    -0.278 N 
ATOM      4  N   UNL     1      10.311   6.163   5.235  0.00  0.00    -0.292 NA
ATOM      7  C   UNL     1      10.242   5.137   2.999  0.00  0.00    +0.109 C 
ATOM      9  C   UNL     1      11.000   4.475   1.850  0.00  0.00    +0.133 C 
ATOM     10  C   UNL     1      11.043   5.294   4.291  0.00  0.00    +0.109 C 
ATOM     13  C   UNL     1      10.073   6.519   1.084  0.00  0.00    +0.305 C 
ATOM     14  C   UNL     1       9.288   7.420   3.350  0.00  0.00    +0.125 C 
ATOM     15  C   UNL     1      10.087   7.502   4.653  0.00  0.00    +0.104 C 
ENDROOT
BRANCH   2   8
ATOM      8  C   UNL     1      11.134   4.974  -0.629  0.00  0.00    +0.078 C 
ATOM     11  C   UNL     1       9.937   4.854  -1.574  0.00  0.00    +0.022 C 
ATOM     12  C   UNL     1      11.963   3.687  -0.615  0.00  0.00    +0.022 C 
ATOM     16  C   UNL     1      10.368   4.443  -2.980  0.00  0.00    +0.002 C 
ATOM     17  C   UNL     1      12.393   3.279  -2.022  0.00  0.00    +0.002 C 
ATOM     18  C   UNL     1      11.198   3.163  -2.963  0.00  0.00    +0.000 C 
ENDBRANCH   2   8
BRANCH   4  19
ATOM     19  C   UNL     1      11.042   6.272   6.497  0.00  0.00    +0.158 C 
BRANCH  19  20
ATOM      5  N   UNL     1       9.328   6.335   8.338  0.00  0.00    -0.336 N 
ATOM      6  N   UNL     1      10.433   4.425   8.091  0.00  0.00    -0.239 NA
ATOM     20  C   UNL     1      10.283   5.650   7.640  0.00  0.00    +0.124 A 
ATOM     21  C   UNL     1       8.839   5.493   9.298  0.00  0.00    +0.106 A 
ATOM     22  C   UNL     1       9.535   4.321   9.125  0.00  0.00    +0.130 A 
ATOM     23  C   UNL     1       8.902   7.697   8.119  0.00  0.00    +0.150 C 
ENDBRANCH  19  20
ENDBRANCH   4  19
TORSDOF 3
ENDMDL
