MODEL 1
REMARK VINA RESULT:      -7.2      0.000      0.000
REMARK  Name = 26762246
REMARK  10 active torsions:
REMARK  status: ('A' for Active; 'I' for Inactive)
REMARK    1  A    between atoms: N_7  and  C_12
REMARK    2  A    between atoms: N_8  and  C_24
REMARK    3  A    between atoms: N_9  and  C_27
REMARK    4  A    between atoms: N_9  and  C_31
REMARK    5  A    between atoms: N_9  and  C_32
REMARK    6  A    between atoms: C_11  and  C_17
REMARK    7  A    between atoms: C_17  and  C_18
REMARK    8  A    between atoms: C_18  and  C_20
REMARK    9  A    between atoms: C_19  and  C_21
REMARK   10  A    between atoms: C_24  and  C_28
REMARK                            x       y       z     vdW  Elec       q    Type
REMARK                         _______ _______ _______ _____ _____    ______ ____
ROOT
ATOM      2  O   UNL     1      11.100   5.507  21.636  0.00  0.00    -0.274 OA
ATOM      5  N   UNL     1      12.342   8.691  20.728  0.00  0.00    -0.285 NA
ATOM      6  N   UNL     1      10.358   7.591  22.254  0.00  0.00    -0.313 N 
ATOM     10  C   UNL     1      11.826   7.381  20.320  0.00  0.00    +0.145 C 
ATOM     11  C   UNL     1      11.231   9.599  21.020  0.00  0.00    +0.075 C 
ATOM     12  C   UNL     1      13.981   7.792  19.323  0.00  0.00    +0.089 C 
ATOM     13  C   UNL     1      13.083   6.665  19.848  0.00  0.00    +0.052 C 
ATOM     14  C   UNL     1      13.230   9.090  19.637  0.00  0.00    +0.107 C 
ATOM     15  C   UNL     1      10.513   9.037  22.255  0.00  0.00    +0.123 C 
ATOM     16  C   UNL     1      11.105   6.727  21.475  0.00  0.00    +0.230 C 
ATOM     36  H   UNL     1       9.798   7.183  22.997  0.00  0.00    +0.149 HD
ENDROOT
BRANCH  12   7
ATOM      3  O   UNL     1      16.160   6.043  18.660  0.00  0.00    -0.270 OA
ATOM      7  N   UNL     1      15.280   7.758  19.950  0.00  0.00    -0.307 N 
ATOM     19  C   UNL     1      16.274   6.873  19.559  0.00  0.00    +0.244 C 
ATOM     37  H   UNL     1      15.406   8.338  20.773  0.00  0.00    +0.149 HD
BRANCH  19  21
ATOM     21  C   UNL     1      17.546   6.945  20.322  0.00  0.00    +0.037 A 
ATOM     22  C   UNL     1      18.537   5.985  20.121  0.00  0.00    +0.015 A 
ATOM     23  C   UNL     1      17.750   7.974  21.242  0.00  0.00    +0.015 A 
ATOM     25  C   UNL     1      19.731   6.052  20.838  0.00  0.00    +0.024 A 
ATOM     26  C   UNL     1      18.944   8.042  21.959  0.00  0.00    +0.024 A 
ATOM     27  C   UNL     1      19.935   7.081  21.757  0.00  0.00    +0.029 A 
BRANCH  27   9
ATOM      9  N   UNL     1      21.142   7.150  22.482  0.00  0.00    -0.336 N 
ATOM     31  C   UNL     1      21.224   7.936  23.698  0.00  0.00    +0.129 C 
ATOM     32  C   UNL     1      22.319   6.443  22.019  0.00  0.00    +0.129 C 
ENDBRANCH  27   9
ENDBRANCH  19  21
ENDBRANCH  12   7
BRANCH  11  17
ATOM     17  C   UNL     1      11.686  11.033  21.301  0.00  0.00    +0.029 C 
BRANCH  17  18
ATOM     18  C   UNL     1      11.457  11.407  22.759  0.00  0.00    +0.097 C 
BRANCH  18  20
ATOM      4  O   UNL     1      12.842  12.275  24.545  0.00  0.00    -0.276 OA
ATOM      8  N   UNL     1      13.826  11.013  22.863  0.00  0.00    -0.311 N 
ATOM     20  C   UNL     1      12.761  11.628  23.504  0.00  0.00    +0.213 C 
ATOM     38  H   UNL     1      13.669  10.470  22.021  0.00  0.00    +0.149 HD
BRANCH   8  24
ATOM     24  C   UNL     1      15.174  11.077  23.375  0.00  0.00    +0.139 C 
BRANCH  24  28
ATOM      1  F   UNL     1      18.952  11.861  19.274  0.00  0.00    -0.205 F 
ATOM     28  C   UNL     1      16.181  11.285  22.282  0.00  0.00    -0.030 A 
ATOM     29  C   UNL     1      15.787  11.210  20.946  0.00  0.00    +0.008 A 
ATOM     30  C   UNL     1      17.512  11.556  22.601  0.00  0.00    +0.008 A 
ATOM     33  C   UNL     1      16.722  11.403  19.930  0.00  0.00    +0.038 A 
ATOM     34  C   UNL     1      18.448  11.751  21.585  0.00  0.00    +0.038 A 
ATOM     35  C   UNL     1      18.053  11.674  20.250  0.00  0.00    +0.123 A 
ENDBRANCH  24  28
ENDBRANCH   8  24
ENDBRANCH  18  20
ENDBRANCH  17  18
ENDBRANCH  11  17
TORSDOF 8
ENDMDL
MODEL 2
REMARK VINA RESULT:      -6.5     17.017     19.507
REMARK  Name = 26762246
REMARK  10 active torsions:
REMARK  status: ('A' for Active; 'I' for Inactive)
REMARK    1  A    between atoms: N_7  and  C_12
REMARK    2  A    between atoms: N_8  and  C_24
REMARK    3  A    between atoms: N_9  and  C_27
REMARK    4  A    between atoms: N_9  and  C_31
REMARK    5  A    between atoms: N_9  and  C_32
REMARK    6  A    between atoms: C_11  and  C_17
REMARK    7  A    between atoms: C_17  and  C_18
REMARK    8  A    between atoms: C_18  and  C_20
REMARK    9  A    between atoms: C_19  and  C_21
REMARK   10  A    between atoms: C_24  and  C_28
REMARK                            x       y       z     vdW  Elec       q    Type
REMARK                         _______ _______ _______ _____ _____    ______ ____
ROOT
ATOM      2  O   UNL     1      11.120  11.109   5.324  0.00  0.00    -0.274 OA
ATOM      5  N   UNL     1      11.655   7.785   6.407  0.00  0.00    -0.285 NA
ATOM      6  N   UNL     1       9.851   9.814   6.734  0.00  0.00    -0.313 N 
ATOM     10  C   UNL     1      12.152   9.157   6.271  0.00  0.00    +0.145 C 
ATOM     11  C   UNL     1      10.825   7.668   7.608  0.00  0.00    +0.075 C 
ATOM     12  C   UNL     1      13.676   7.597   5.247  0.00  0.00    +0.089 C 
ATOM     13  C   UNL     1      13.152   9.033   5.131  0.00  0.00    +0.052 C 
ATOM     14  C   UNL     1      12.857   6.954   6.371  0.00  0.00    +0.107 C 
ATOM     15  C   UNL     1       9.580   8.535   7.372  0.00  0.00    +0.123 C 
ATOM     16  C   UNL     1      11.001  10.103   6.022  0.00  0.00    +0.230 C 
ATOM     36  H   UNL     1       9.076  10.466   6.652  0.00  0.00    +0.149 HD
ENDROOT
BRANCH  12   7
ATOM      3  O   UNL     1      15.671   7.277   3.207  0.00  0.00    -0.270 OA
ATOM      7  N   UNL     1      13.527   6.885   4.001  0.00  0.00    -0.307 N 
ATOM     19  C   UNL     1      14.554   6.785   3.073  0.00  0.00    +0.244 C 
ATOM     37  H   UNL     1      12.598   6.549   3.774  0.00  0.00    +0.149 HD
BRANCH  19  21
ATOM     21  C   UNL     1      14.233   6.042   1.827  0.00  0.00    +0.037 A 
ATOM     22  C   UNL     1      13.888   6.737   0.668  0.00  0.00    +0.015 A 
ATOM     23  C   UNL     1      14.277   4.647   1.816  0.00  0.00    +0.015 A 
ATOM     25  C   UNL     1      13.587   6.039  -0.501  0.00  0.00    +0.024 A 
ATOM     26  C   UNL     1      13.976   3.949   0.647  0.00  0.00    +0.024 A 
ATOM     27  C   UNL     1      13.632   4.645  -0.512  0.00  0.00    +0.029 A 
BRANCH  27   9
ATOM      9  N   UNL     1      13.327   3.938  -1.694  0.00  0.00    -0.336 N 
ATOM     31  C   UNL     1      13.916   4.334  -2.958  0.00  0.00    +0.129 C 
ATOM     32  C   UNL     1      12.416   2.811  -1.661  0.00  0.00    +0.129 C 
ENDBRANCH  27   9
ENDBRANCH  19  21
ENDBRANCH  12   7
BRANCH  11  17
ATOM     17  C   UNL     1      10.397   6.229   7.904  0.00  0.00    +0.029 C 
BRANCH  17  18
ATOM     18  C   UNL     1       9.302   5.773   6.949  0.00  0.00    +0.097 C 
BRANCH  18  20
ATOM      4  O   UNL     1       9.794   3.540   6.155  0.00  0.00    -0.276 OA
ATOM      8  N   UNL     1      10.276   5.355   4.791  0.00  0.00    -0.311 N 
ATOM     20  C   UNL     1       9.807   4.750   5.948  0.00  0.00    +0.213 C 
ATOM     38  H   UNL     1      10.223   6.363   4.686  0.00  0.00    +0.149 HD
BRANCH   8  24
ATOM     24  C   UNL     1      10.810   4.595   3.686  0.00  0.00    +0.139 C 
BRANCH  24  28
ATOM      1  F   UNL     1       9.698   7.021  -1.272  0.00  0.00    -0.205 F 
ATOM     28  C   UNL     1      10.514   5.242   2.364  0.00  0.00    -0.030 A 
ATOM     29  C   UNL     1      10.307   4.453   1.233  0.00  0.00    +0.008 A 
ATOM     30  C   UNL     1      10.445   6.632   2.267  0.00  0.00    +0.008 A 
ATOM     33  C   UNL     1      10.031   5.053   0.004  0.00  0.00    +0.038 A 
ATOM     34  C   UNL     1      10.169   7.232   1.038  0.00  0.00    +0.038 A 
ATOM     35  C   UNL     1       9.963   6.443  -0.093  0.00  0.00    +0.123 A 
ENDBRANCH  24  28
ENDBRANCH   8  24
ENDBRANCH  18  20
ENDBRANCH  17  18
ENDBRANCH  11  17
TORSDOF 8
ENDMDL
MODEL 3
REMARK VINA RESULT:      -6.4      2.641      3.318
REMARK  Name = 26762246
REMARK  10 active torsions:
REMARK  status: ('A' for Active; 'I' for Inactive)
REMARK    1  A    between atoms: N_7  and  C_12
REMARK    2  A    between atoms: N_8  and  C_24
REMARK    3  A    between atoms: N_9  and  C_27
REMARK    4  A    between atoms: N_9  and  C_31
REMARK    5  A    between atoms: N_9  and  C_32
REMARK    6  A    between atoms: C_11  and  C_17
REMARK    7  A    between atoms: C_17  and  C_18
REMARK    8  A    between atoms: C_18  and  C_20
REMARK    9  A    between atoms: C_19  and  C_21
REMARK   10  A    between atoms: C_24  and  C_28
REMARK                            x       y       z     vdW  Elec       q    Type
REMARK                         _______ _______ _______ _____ _____    ______ ____
ROOT
ATOM      2  O   UNL     1      10.951   5.741  21.246  0.00  0.00    -0.274 OA
ATOM      5  N   UNL     1      12.540   8.881  20.898  0.00  0.00    -0.285 NA
ATOM      6  N   UNL     1      10.429   7.754  22.221  0.00  0.00    -0.313 N 
ATOM     10  C   UNL     1      11.892   7.725  20.272  0.00  0.00    +0.145 C 
ATOM     11  C   UNL     1      11.530   9.839  21.351  0.00  0.00    +0.075 C 
ATOM     12  C   UNL     1      14.093   8.067  19.350  0.00  0.00    +0.089 C 
ATOM     13  C   UNL     1      13.071   6.970  19.675  0.00  0.00    +0.052 C 
ATOM     14  C   UNL     1      13.481   9.364  19.889  0.00  0.00    +0.107 C 
ATOM     15  C   UNL     1      10.739   9.153  22.473  0.00  0.00    +0.123 C 
ATOM     16  C   UNL     1      11.089   6.962  21.299  0.00  0.00    +0.230 C 
ATOM     36  H   UNL     1       9.818   7.286  22.884  0.00  0.00    +0.149 HD
ENDROOT
BRANCH  12   7
ATOM      3  O   UNL     1      16.032   6.155  18.443  0.00  0.00    -0.270 OA
ATOM      7  N   UNL     1      15.371   7.785  19.955  0.00  0.00    -0.307 N 
ATOM     19  C   UNL     1      16.246   6.838  19.442  0.00  0.00    +0.244 C 
ATOM     37  H   UNL     1      15.565   8.231  20.845  0.00  0.00    +0.149 HD
BRANCH  19  21
ATOM     21  C   UNL     1      17.511   6.645  20.195  0.00  0.00    +0.037 A 
ATOM     22  C   UNL     1      17.791   7.438  21.307  0.00  0.00    +0.015 A 
ATOM     23  C   UNL     1      18.422   5.668  19.790  0.00  0.00    +0.015 A 
ATOM     25  C   UNL     1      18.979   7.257  22.013  0.00  0.00    +0.024 A 
ATOM     26  C   UNL     1      19.610   5.487  20.496  0.00  0.00    +0.024 A 
ATOM     27  C   UNL     1      19.889   6.281  21.609  0.00  0.00    +0.029 A 
BRANCH  27   9
ATOM      9  N   UNL     1      21.091   6.096  22.322  0.00  0.00    -0.336 N 
ATOM     31  C   UNL     1      21.786   4.825  22.274  0.00  0.00    +0.129 C 
ATOM     32  C   UNL     1      21.644   7.173  23.120  0.00  0.00    +0.129 C 
ENDBRANCH  27   9
ENDBRANCH  19  21
ENDBRANCH  12   7
BRANCH  11  17
ATOM     17  C   UNL     1      12.133  11.145  21.874  0.00  0.00    +0.029 C 
BRANCH  17  18
ATOM     18  C   UNL     1      11.794  12.313  20.959  0.00  0.00    +0.097 C 
BRANCH  18  20
ATOM      4  O   UNL     1      14.129  12.941  20.837  0.00  0.00    -0.276 OA
ATOM      8  N   UNL     1      12.750  13.357  19.017  0.00  0.00    -0.311 N 
ATOM     20  C   UNL     1      13.028  12.894  20.294  0.00  0.00    +0.213 C 
ATOM     38  H   UNL     1      11.818  13.253  18.629  0.00  0.00    +0.149 HD
BRANCH   8  24
ATOM     24  C   UNL     1      13.760  13.956  18.177  0.00  0.00    +0.139 C 
BRANCH  24  28
ATOM      1  F   UNL     1      15.465  10.460  14.106  0.00  0.00    -0.205 F 
ATOM     28  C   UNL     1      14.214  13.024  17.092  0.00  0.00    -0.030 A 
ATOM     29  C   UNL     1      14.246  13.458  15.767  0.00  0.00    +0.008 A 
ATOM     30  C   UNL     1      14.606  11.723  17.408  0.00  0.00    +0.008 A 
ATOM     33  C   UNL     1      14.668  12.593  14.757  0.00  0.00    +0.038 A 
ATOM     34  C   UNL     1      15.028  10.857  16.398  0.00  0.00    +0.038 A 
ATOM     35  C   UNL     1      15.059  11.292  15.074  0.00  0.00    +0.123 A 
ENDBRANCH  24  28
ENDBRANCH   8  24
ENDBRANCH  18  20
ENDBRANCH  17  18
ENDBRANCH  11  17
TORSDOF 8
ENDMDL
MODEL 4
REMARK VINA RESULT:      -6.1      1.605      2.034
REMARK  Name = 26762246
REMARK  10 active torsions:
REMARK  status: ('A' for Active; 'I' for Inactive)
REMARK    1  A    between atoms: N_7  and  C_12
REMARK    2  A    between atoms: N_8  and  C_24
REMARK    3  A    between atoms: N_9  and  C_27
REMARK    4  A    between atoms: N_9  and  C_31
REMARK    5  A    between atoms: N_9  and  C_32
REMARK    6  A    between atoms: C_11  and  C_17
REMARK    7  A    between atoms: C_17  and  C_18
REMARK    8  A    between atoms: C_18  and  C_20
REMARK    9  A    between atoms: C_19  and  C_21
REMARK   10  A    between atoms: C_24  and  C_28
REMARK                            x       y       z     vdW  Elec       q    Type
REMARK                         _______ _______ _______ _____ _____    ______ ____
ROOT
ATOM      2  O   UNL     1      10.256   7.724  22.546  0.00  0.00    -0.274 OA
ATOM      5  N   UNL     1      12.315  10.155  21.011  0.00  0.00    -0.285 NA
ATOM      6  N   UNL     1      10.425   9.973  22.979  0.00  0.00    -0.313 N 
ATOM     10  C   UNL     1      11.306   9.101  20.880  0.00  0.00    +0.145 C 
ATOM     11  C   UNL     1      11.672  11.426  21.351  0.00  0.00    +0.075 C 
ATOM     12  C   UNL     1      13.220   8.619  19.498  0.00  0.00    +0.089 C 
ATOM     13  C   UNL     1      12.113   7.941  20.314  0.00  0.00    +0.052 C 
ATOM     14  C   UNL     1      13.046  10.121  19.746  0.00  0.00    +0.107 C 
ATOM     15  C   UNL     1      11.070  11.257  22.753  0.00  0.00    +0.123 C 
ATOM     16  C   UNL     1      10.652   8.841  22.217  0.00  0.00    +0.230 C 
ATOM     36  H   UNL     1       9.921   9.853  23.853  0.00  0.00    +0.149 HD
ENDROOT
BRANCH  12   7
ATOM      3  O   UNL     1      14.956   6.874  18.019  0.00  0.00    -0.270 OA
ATOM      7  N   UNL     1      14.524   8.156  19.904  0.00  0.00    -0.307 N 
ATOM     19  C   UNL     1      15.293   7.310  19.118  0.00  0.00    +0.244 C 
ATOM     37  H   UNL     1      14.818   8.385  20.847  0.00  0.00    +0.149 HD
BRANCH  19  21
ATOM     21  C   UNL     1      16.602   6.901  19.689  0.00  0.00    +0.037 A 
ATOM     22  C   UNL     1      17.351   5.900  19.072  0.00  0.00    +0.015 A 
ATOM     23  C   UNL     1      17.082   7.519  20.844  0.00  0.00    +0.015 A 
ATOM     25  C   UNL     1      18.579   5.516  19.609  0.00  0.00    +0.024 A 
ATOM     26  C   UNL     1      18.310   7.135  21.381  0.00  0.00    +0.024 A 
ATOM     27  C   UNL     1      19.059   6.134  20.763  0.00  0.00    +0.029 A 
BRANCH  27   9
ATOM      9  N   UNL     1      20.301   5.747  21.307  0.00  0.00    -0.336 N 
ATOM     31  C   UNL     1      20.808   6.383  22.508  0.00  0.00    +0.129 C 
ATOM     32  C   UNL     1      21.092   4.713  20.669  0.00  0.00    +0.129 C 
ENDBRANCH  27   9
ENDBRANCH  19  21
ENDBRANCH  12   7
BRANCH  11  17
ATOM     17  C   UNL     1      12.644  12.609  21.351  0.00  0.00    +0.029 C 
BRANCH  17  18
ATOM     18  C   UNL     1      12.892  13.116  22.764  0.00  0.00    +0.097 C 
BRANCH  18  20
ATOM      4  O   UNL     1      14.694  14.192  23.972  0.00  0.00    -0.276 OA
ATOM      8  N   UNL     1      15.035  13.557  21.766  0.00  0.00    -0.311 N 
ATOM     20  C   UNL     1      14.290  13.685  22.929  0.00  0.00    +0.213 C 
ATOM     38  H   UNL     1      14.636  13.096  20.954  0.00  0.00    +0.149 HD
BRANCH   8  24
ATOM     24  C   UNL     1      16.397  14.022  21.668  0.00  0.00    +0.139 C 
BRANCH  24  28
ATOM      1  F   UNL     1      20.016   9.794  20.811  0.00  0.00    -0.205 F 
ATOM     28  C   UNL     1      17.361  12.895  21.439  0.00  0.00    -0.030 A 
ATOM     29  C   UNL     1      18.162  12.882  20.297  0.00  0.00    +0.008 A 
ATOM     30  C   UNL     1      17.458  11.860  22.370  0.00  0.00    +0.008 A 
ATOM     33  C   UNL     1      19.058  11.835  20.084  0.00  0.00    +0.038 A 
ATOM     34  C   UNL     1      18.355  10.812  22.157  0.00  0.00    +0.038 A 
ATOM     35  C   UNL     1      19.154  10.800  21.014  0.00  0.00    +0.123 A 
ENDBRANCH  24  28
ENDBRANCH   8  24
ENDBRANCH  18  20
ENDBRANCH  17  18
ENDBRANCH  11  17
TORSDOF 8
ENDMDL
MODEL 5
REMARK VINA RESULT:      -6.0      4.155      7.761
REMARK  Name = 26762246
REMARK  10 active torsions:
REMARK  status: ('A' for Active; 'I' for Inactive)
REMARK    1  A    between atoms: N_7  and  C_12
REMARK    2  A    between atoms: N_8  and  C_24
REMARK    3  A    between atoms: N_9  and  C_27
REMARK    4  A    between atoms: N_9  and  C_31
REMARK    5  A    between atoms: N_9  and  C_32
REMARK    6  A    between atoms: C_11  and  C_17
REMARK    7  A    between atoms: C_17  and  C_18
REMARK    8  A    between atoms: C_18  and  C_20
REMARK    9  A    between atoms: C_19  and  C_21
REMARK   10  A    between atoms: C_24  and  C_28
REMARK                            x       y       z     vdW  Elec       q    Type
REMARK                         _______ _______ _______ _____ _____    ______ ____
ROOT
ATOM      2  O   UNL     1      21.962   5.088  20.685  0.00  0.00    -0.274 OA
ATOM      5  N   UNL     1      19.133   7.040  21.519  0.00  0.00    -0.285 NA
ATOM      6  N   UNL     1      19.833   5.010  19.826  0.00  0.00    -0.313 N 
ATOM     10  C   UNL     1      20.532   6.977  21.085  0.00  0.00    +0.145 C 
ATOM     11  C   UNL     1      18.242   6.879  20.368  0.00  0.00    +0.075 C 
ATOM     12  C   UNL     1      20.320   8.327  23.070  0.00  0.00    +0.089 C 
ATOM     13  C   UNL     1      21.285   7.383  22.343  0.00  0.00    +0.052 C 
ATOM     14  C   UNL     1      19.031   8.307  22.241  0.00  0.00    +0.107 C 
ATOM     15  C   UNL     1      18.447   5.450  19.846  0.00  0.00    +0.123 C 
ATOM     16  C   UNL     1      20.848   5.596  20.559  0.00  0.00    +0.230 C 
ATOM     36  H   UNL     1      20.030   4.113  19.392  0.00  0.00    +0.149 HD
ENDROOT
BRANCH  12   7
ATOM      3  O   UNL     1      21.964   8.906  25.351  0.00  0.00    -0.270 OA
ATOM      7  N   UNL     1      20.092   7.896  24.427  0.00  0.00    -0.307 N 
ATOM     19  C   UNL     1      20.946   8.227  25.468  0.00  0.00    +0.244 C 
ATOM     37  H   UNL     1      19.333   7.240  24.577  0.00  0.00    +0.149 HD
BRANCH  19  21
ATOM     21  C   UNL     1      20.588   7.683  26.803  0.00  0.00    +0.037 A 
ATOM     22  C   UNL     1      20.768   6.327  27.076  0.00  0.00    +0.015 A 
ATOM     23  C   UNL     1      20.069   8.528  27.784  0.00  0.00    +0.015 A 
ATOM     25  C   UNL     1      20.430   5.817  28.329  0.00  0.00    +0.024 A 
ATOM     26  C   UNL     1      19.731   8.018  29.037  0.00  0.00    +0.024 A 
ATOM     27  C   UNL     1      19.913   6.662  29.310  0.00  0.00    +0.029 A 
BRANCH  27   9
ATOM      9  N   UNL     1      19.571   6.147  30.577  0.00  0.00    -0.336 N 
ATOM     31  C   UNL     1      18.425   6.667  31.297  0.00  0.00    +0.129 C 
ATOM     32  C   UNL     1      20.365   5.096  31.181  0.00  0.00    +0.129 C 
ENDBRANCH  27   9
ENDBRANCH  19  21
ENDBRANCH  12   7
BRANCH  11  17
ATOM     17  C   UNL     1      16.767   7.090  20.717  0.00  0.00    +0.029 C 
BRANCH  17  18
ATOM     18  C   UNL     1      15.862   6.300  19.782  0.00  0.00    +0.097 C 
BRANCH  18  20
ATOM      4  O   UNL     1      14.829   8.103  18.541  0.00  0.00    -0.276 OA
ATOM      8  N   UNL     1      13.484   6.653  19.756  0.00  0.00    -0.311 N 
ATOM     20  C   UNL     1      14.696   7.131  19.279  0.00  0.00    +0.213 C 
ATOM     38  H   UNL     1      13.458   5.822  20.339  0.00  0.00    +0.149 HD
BRANCH   8  24
ATOM     24  C   UNL     1      12.225   7.273  19.419  0.00  0.00    +0.139 C 
BRANCH  24  28
ATOM      1  F   UNL     1      10.448  10.771  23.458  0.00  0.00    -0.205 F 
ATOM     28  C   UNL     1      11.752   8.205  20.497  0.00  0.00    -0.030 A 
ATOM     29  C   UNL     1      12.046   9.566  20.420  0.00  0.00    +0.008 A 
ATOM     30  C   UNL     1      11.017   7.711  21.574  0.00  0.00    +0.008 A 
ATOM     33  C   UNL     1      11.606  10.434  21.420  0.00  0.00    +0.038 A 
ATOM     34  C   UNL     1      10.577   8.578  22.575  0.00  0.00    +0.038 A 
ATOM     35  C   UNL     1      10.872   9.939  22.498  0.00  0.00    +0.123 A 
ENDBRANCH  24  28
ENDBRANCH   8  24
ENDBRANCH  18  20
ENDBRANCH  17  18
ENDBRANCH  11  17
TORSDOF 8
ENDMDL
MODEL 6
REMARK VINA RESULT:      -6.0     27.778     30.843
REMARK  Name = 26762246
REMARK  10 active torsions:
REMARK  status: ('A' for Active; 'I' for Inactive)
REMARK    1  A    between atoms: N_7  and  C_12
REMARK    2  A    between atoms: N_8  and  C_24
REMARK    3  A    between atoms: N_9  and  C_27
REMARK    4  A    between atoms: N_9  and  C_31
REMARK    5  A    between atoms: N_9  and  C_32
REMARK    6  A    between atoms: C_11  and  C_17
REMARK    7  A    between atoms: C_17  and  C_18
REMARK    8  A    between atoms: C_18  and  C_20
REMARK    9  A    between atoms: C_19  and  C_21
REMARK   10  A    between atoms: C_24  and  C_28
REMARK                            x       y       z     vdW  Elec       q    Type
REMARK                         _______ _______ _______ _____ _____    ______ ____
ROOT
ATOM      2  O   UNL     1      -1.538 -10.667  15.010  0.00  0.00    -0.274 OA
ATOM      5  N   UNL     1      -4.839 -11.936  14.966  0.00  0.00    -0.285 NA
ATOM      6  N   UNL     1      -3.313 -10.160  16.377  0.00  0.00    -0.313 N 
ATOM     10  C   UNL     1      -3.397 -12.190  15.031  0.00  0.00    +0.145 C 
ATOM     11  C   UNL     1      -5.354 -11.624  16.300  0.00  0.00    +0.075 C 
ATOM     12  C   UNL     1      -4.389 -13.399  13.197  0.00  0.00    +0.089 C 
ATOM     13  C   UNL     1      -3.091 -12.709  13.633  0.00  0.00    +0.052 C 
ATOM     14  C   UNL     1      -5.391 -13.128  14.324  0.00  0.00    +0.107 C 
ATOM     15  C   UNL     1      -4.721 -10.290  16.719  0.00  0.00    +0.123 C 
ATOM     16  C   UNL     1      -2.667 -10.928  15.426  0.00  0.00    +0.230 C 
ATOM     36  H   UNL     1      -2.824  -9.341  16.726  0.00  0.00    +0.149 HD
ENDROOT
BRANCH  12   7
ATOM      3  O   UNL     1      -3.514 -14.221  10.589  0.00  0.00    -0.270 OA
ATOM      7  N   UNL     1      -4.853 -12.885  11.932  0.00  0.00    -0.307 N 
ATOM     19  C   UNL     1      -4.368 -13.347  10.717  0.00  0.00    +0.244 C 
ATOM     37  H   UNL     1      -5.476 -12.085  11.963  0.00  0.00    +0.149 HD
BRANCH  19  21
ATOM     21  C   UNL     1      -4.927 -12.697   9.504  0.00  0.00    +0.037 A 
ATOM     22  C   UNL     1      -6.295 -12.443   9.414  0.00  0.00    +0.015 A 
ATOM     23  C   UNL     1      -4.082 -12.341   8.452  0.00  0.00    +0.015 A 
ATOM     25  C   UNL     1      -6.819 -11.834   8.275  0.00  0.00    +0.024 A 
ATOM     26  C   UNL     1      -4.606 -11.732   7.312  0.00  0.00    +0.024 A 
ATOM     27  C   UNL     1      -5.975 -11.478   7.224  0.00  0.00    +0.029 A 
BRANCH  27   9
ATOM      9  N   UNL     1      -6.503 -10.861   6.071  0.00  0.00    -0.336 N 
ATOM     31  C   UNL     1      -6.739  -9.431   6.045  0.00  0.00    +0.129 C 
ATOM     32  C   UNL     1      -6.826 -11.651   4.899  0.00  0.00    +0.129 C 
ENDBRANCH  27   9
ENDBRANCH  19  21
ENDBRANCH  12   7
BRANCH  11  17
ATOM     17  C   UNL     1      -6.879 -11.501  16.341  0.00  0.00    +0.029 C 
BRANCH  17  18
ATOM     18  C   UNL     1      -7.312 -10.043  16.408  0.00  0.00    +0.097 C 
BRANCH  18  20
ATOM      4  O   UNL     1      -9.099  -9.046  15.114  0.00  0.00    -0.276 OA
ATOM      8  N   UNL     1      -7.234  -9.877  14.010  0.00  0.00    -0.311 N 
ATOM     20  C   UNL     1      -7.999  -9.593  15.132  0.00  0.00    +0.213 C 
ATOM     38  H   UNL     1      -6.319 -10.305  14.113  0.00  0.00    +0.149 HD
BRANCH   8  24
ATOM     24  C   UNL     1      -7.671  -9.547  12.675  0.00  0.00    +0.139 C 
BRANCH  24  28
ATOM      1  F   UNL     1      -3.333  -8.797   9.164  0.00  0.00    -0.205 F 
ATOM     28  C   UNL     1      -6.514  -9.348  11.739  0.00  0.00    -0.030 A 
ATOM     29  C   UNL     1      -6.727  -8.798  10.475  0.00  0.00    +0.008 A 
ATOM     30  C   UNL     1      -5.226  -9.711  12.133  0.00  0.00    +0.008 A 
ATOM     33  C   UNL     1      -5.653  -8.611   9.604  0.00  0.00    +0.038 A 
ATOM     34  C   UNL     1      -4.152  -9.525  11.263  0.00  0.00    +0.038 A 
ATOM     35  C   UNL     1      -4.365  -8.976   9.999  0.00  0.00    +0.123 A 
ENDBRANCH  24  28
ENDBRANCH   8  24
ENDBRANCH  18  20
ENDBRANCH  17  18
ENDBRANCH  11  17
TORSDOF 8
ENDMDL
MODEL 7
REMARK VINA RESULT:      -6.0     28.261     31.462
REMARK  Name = 26762246
REMARK  10 active torsions:
REMARK  status: ('A' for Active; 'I' for Inactive)
REMARK    1  A    between atoms: N_7  and  C_12
REMARK    2  A    between atoms: N_8  and  C_24
REMARK    3  A    between atoms: N_9  and  C_27
REMARK    4  A    between atoms: N_9  and  C_31
REMARK    5  A    between atoms: N_9  and  C_32
REMARK    6  A    between atoms: C_11  and  C_17
REMARK    7  A    between atoms: C_17  and  C_18
REMARK    8  A    between atoms: C_18  and  C_20
REMARK    9  A    between atoms: C_19  and  C_21
REMARK   10  A    between atoms: C_24  and  C_28
REMARK                            x       y       z     vdW  Elec       q    Type
REMARK                         _______ _______ _______ _____ _____    ______ ____
ROOT
ATOM      2  O   UNL     1      -8.313 -14.856  17.539  0.00  0.00    -0.274 OA
ATOM      5  N   UNL     1      -6.592 -11.811  18.064  0.00  0.00    -0.285 NA
ATOM      6  N   UNL     1      -6.155 -14.289  16.994  0.00  0.00    -0.313 N 
ATOM     10  C   UNL     1      -7.364 -12.928  18.615  0.00  0.00    +0.145 C 
ATOM     11  C   UNL     1      -5.180 -12.182  17.955  0.00  0.00    +0.075 C 
ATOM     12  C   UNL     1      -8.408 -10.825  19.159  0.00  0.00    +0.089 C 
ATOM     13  C   UNL     1      -8.726 -12.296  18.863  0.00  0.00    +0.052 C 
ATOM     14  C   UNL     1      -6.897 -10.685  18.945  0.00  0.00    +0.107 C 
ATOM     15  C   UNL     1      -5.094 -13.298  16.905  0.00  0.00    +0.123 C 
ATOM     16  C   UNL     1      -7.357 -14.089  17.648  0.00  0.00    +0.230 C 
ATOM     36  H   UNL     1      -6.083 -15.103  16.390  0.00  0.00    +0.149 HD
ENDROOT
BRANCH  12   7
ATOM      3  O   UNL     1     -11.091  -9.891  19.573  0.00  0.00    -0.270 OA
ATOM      7  N   UNL     1      -9.157  -9.946  18.295  0.00  0.00    -0.307 N 
ATOM     19  C   UNL     1     -10.454  -9.548  18.580  0.00  0.00    +0.244 C 
ATOM     37  H   UNL     1      -8.734  -9.713  17.402  0.00  0.00    +0.149 HD
BRANCH  19  21
ATOM     21  C   UNL     1     -11.099  -8.662  17.576  0.00  0.00    +0.037 A 
ATOM     22  C   UNL     1     -10.403  -7.571  17.058  0.00  0.00    +0.015 A 
ATOM     23  C   UNL     1     -12.402  -8.923  17.152  0.00  0.00    +0.015 A 
ATOM     25  C   UNL     1     -11.009  -6.740  16.117  0.00  0.00    +0.024 A 
ATOM     26  C   UNL     1     -13.008  -8.092  16.211  0.00  0.00    +0.024 A 
ATOM     27  C   UNL     1     -12.311  -7.000  15.692  0.00  0.00    +0.029 A 
BRANCH  27   9
ATOM      9  N   UNL     1     -12.924  -6.160  14.740  0.00  0.00    -0.336 N 
ATOM     31  C   UNL     1     -12.126  -5.258  13.934  0.00  0.00    +0.129 C 
ATOM     32  C   UNL     1     -14.362  -6.182  14.560  0.00  0.00    +0.129 C 
ENDBRANCH  27   9
ENDBRANCH  19  21
ENDBRANCH  12   7
BRANCH  11  17
ATOM     17  C   UNL     1      -4.284 -11.014  17.535  0.00  0.00    +0.029 C 
BRANCH  17  18
ATOM     18  C   UNL     1      -4.552 -10.606  16.093  0.00  0.00    +0.097 C 
BRANCH  18  20
ATOM      4  O   UNL     1      -2.165 -10.691  15.700  0.00  0.00    -0.276 OA
ATOM      8  N   UNL     1      -3.610 -10.732  13.885  0.00  0.00    -0.311 N 
ATOM     20  C   UNL     1      -3.302 -10.680  15.236  0.00  0.00    +0.213 C 
ATOM     38  H   UNL     1      -4.580 -10.749  13.584  0.00  0.00    +0.149 HD
BRANCH   8  24
ATOM     24  C   UNL     1      -2.593 -10.806  12.864  0.00  0.00    +0.139 C 
BRANCH  24  28
ATOM      1  F   UNL     1      -4.759 -10.363   7.686  0.00  0.00    -0.205 F 
ATOM     28  C   UNL     1      -3.171 -10.688  11.484  0.00  0.00    -0.030 A 
ATOM     29  C   UNL     1      -3.235  -9.443  10.859  0.00  0.00    +0.008 A 
ATOM     30  C   UNL     1      -3.643 -11.824  10.826  0.00  0.00    +0.008 A 
ATOM     33  C   UNL     1      -3.771  -9.332   9.576  0.00  0.00    +0.038 A 
ATOM     34  C   UNL     1      -4.180 -11.713   9.542  0.00  0.00    +0.038 A 
ATOM     35  C   UNL     1      -4.244 -10.468   8.918  0.00  0.00    +0.123 A 
ENDBRANCH  24  28
ENDBRANCH   8  24
ENDBRANCH  18  20
ENDBRANCH  17  18
ENDBRANCH  11  17
TORSDOF 8
ENDMDL
MODEL 8
REMARK VINA RESULT:      -6.0     17.187     19.627
REMARK  Name = 26762246
REMARK  10 active torsions:
REMARK  status: ('A' for Active; 'I' for Inactive)
REMARK    1  A    between atoms: N_7  and  C_12
REMARK    2  A    between atoms: N_8  and  C_24
REMARK    3  A    between atoms: N_9  and  C_27
REMARK    4  A    between atoms: N_9  and  C_31
REMARK    5  A    between atoms: N_9  and  C_32
REMARK    6  A    between atoms: C_11  and  C_17
REMARK    7  A    between atoms: C_17  and  C_18
REMARK    8  A    between atoms: C_18  and  C_20
REMARK    9  A    between atoms: C_19  and  C_21
REMARK   10  A    between atoms: C_24  and  C_28
REMARK                            x       y       z     vdW  Elec       q    Type
REMARK                         _______ _______ _______ _____ _____    ______ ____
ROOT
ATOM      2  O   UNL     1       9.793   4.128   7.576  0.00  0.00    -0.274 OA
ATOM      5  N   UNL     1      11.030   6.955   5.849  0.00  0.00    -0.285 NA
ATOM      6  N   UNL     1      11.576   5.482   8.087  0.00  0.00    -0.313 N 
ATOM     10  C   UNL     1       9.906   6.271   6.496  0.00  0.00    +0.145 C 
ATOM     11  C   UNL     1      11.836   7.655   6.851  0.00  0.00    +0.075 C 
ATOM     12  C   UNL     1       9.349   6.859   4.226  0.00  0.00    +0.089 C 
ATOM     13  C   UNL     1       9.076   5.806   5.308  0.00  0.00    +0.052 C 
ATOM     14  C   UNL     1      10.408   7.791   4.823  0.00  0.00    +0.107 C 
ATOM     15  C   UNL     1      12.469   6.578   7.742  0.00  0.00    +0.123 C 
ATOM     16  C   UNL     1      10.419   5.171   7.396  0.00  0.00    +0.230 C 
ATOM     36  H   UNL     1      11.915   4.800   8.759  0.00  0.00    +0.149 HD
ENDROOT
BRANCH  12   7
ATOM      3  O   UNL     1      10.907   4.459   3.992  0.00  0.00    -0.270 OA
ATOM      7  N   UNL     1       9.804   6.243   3.003  0.00  0.00    -0.307 N 
ATOM     19  C   UNL     1      10.556   5.078   2.991  0.00  0.00    +0.244 C 
ATOM     37  H   UNL     1       9.646   6.760   2.144  0.00  0.00    +0.149 HD
BRANCH  19  21
ATOM     21  C   UNL     1      10.970   4.586   1.651  0.00  0.00    +0.037 A 
ATOM     22  C   UNL     1      12.103   3.782   1.522  0.00  0.00    +0.015 A 
ATOM     23  C   UNL     1      10.226   4.928   0.522  0.00  0.00    +0.015 A 
ATOM     25  C   UNL     1      12.492   3.322   0.265  0.00  0.00    +0.024 A 
ATOM     26  C   UNL     1      10.615   4.467  -0.735  0.00  0.00    +0.024 A 
ATOM     27  C   UNL     1      11.747   3.663  -0.864  0.00  0.00    +0.029 A 
BRANCH  27   9
ATOM      9  N   UNL     1      12.140   3.197  -2.136  0.00  0.00    -0.336 N 
ATOM     31  C   UNL     1      13.231   3.835  -2.847  0.00  0.00    +0.129 C 
ATOM     32  C   UNL     1      11.453   2.080  -2.753  0.00  0.00    +0.129 C 
ENDBRANCH  27   9
ENDBRANCH  19  21
ENDBRANCH  12   7
BRANCH  11  17
ATOM     17  C   UNL     1      12.937   8.523   6.237  0.00  0.00    +0.029 C 
BRANCH  17  18
ATOM     18  C   UNL     1      14.318   7.971   6.563  0.00  0.00    +0.097 C 
BRANCH  18  20
ATOM      4  O   UNL     1      16.279   8.183   5.159  0.00  0.00    -0.276 OA
ATOM      8  N   UNL     1      14.467   6.951   4.392  0.00  0.00    -0.311 N 
ATOM     20  C   UNL     1      15.147   7.732   5.315  0.00  0.00    +0.213 C 
ATOM     38  H   UNL     1      13.544   6.591   4.611  0.00  0.00    +0.149 HD
BRANCH   8  24
ATOM     24  C   UNL     1      15.044   6.582   3.121  0.00  0.00    +0.139 C 
BRANCH  24  28
ATOM      1  F   UNL     1      11.705   7.976  -1.194  0.00  0.00    -0.205 F 
ATOM     28  C   UNL     1      14.153   6.953   1.971  0.00  0.00    -0.030 A 
ATOM     29  C   UNL     1      13.029   7.749   2.188  0.00  0.00    +0.008 A 
ATOM     30  C   UNL     1      14.451   6.503   0.685  0.00  0.00    +0.008 A 
ATOM     33  C   UNL     1      12.201   8.095   1.120  0.00  0.00    +0.038 A 
ATOM     34  C   UNL     1      13.623   6.848  -0.384  0.00  0.00    +0.038 A 
ATOM     35  C   UNL     1      12.499   7.644  -0.167  0.00  0.00    +0.123 A 
ENDBRANCH  24  28
ENDBRANCH   8  24
ENDBRANCH  18  20
ENDBRANCH  17  18
ENDBRANCH  11  17
TORSDOF 8
ENDMDL
MODEL 9
REMARK VINA RESULT:      -5.9     28.609     31.069
REMARK  Name = 26762246
REMARK  10 active torsions:
REMARK  status: ('A' for Active; 'I' for Inactive)
REMARK    1  A    between atoms: N_7  and  C_12
REMARK    2  A    between atoms: N_8  and  C_24
REMARK    3  A    between atoms: N_9  and  C_27
REMARK    4  A    between atoms: N_9  and  C_31
REMARK    5  A    between atoms: N_9  and  C_32
REMARK    6  A    between atoms: C_11  and  C_17
REMARK    7  A    between atoms: C_17  and  C_18
REMARK    8  A    between atoms: C_18  and  C_20
REMARK    9  A    between atoms: C_19  and  C_21
REMARK   10  A    between atoms: C_24  and  C_28
REMARK                            x       y       z     vdW  Elec       q    Type
REMARK                         _______ _______ _______ _____ _____    ______ ____
ROOT
ATOM      2  O   UNL     1      -2.899 -15.014  12.130  0.00  0.00    -0.274 OA
ATOM      5  N   UNL     1      -3.320 -11.536  12.611  0.00  0.00    -0.285 NA
ATOM      6  N   UNL     1      -3.332 -13.372  10.584  0.00  0.00    -0.313 N 
ATOM     10  C   UNL     1      -2.499 -12.737  12.786  0.00  0.00    +0.145 C 
ATOM     11  C   UNL     1      -3.101 -10.967  11.279  0.00  0.00    +0.075 C 
ATOM     12  C   UNL     1      -2.910 -11.674  14.909  0.00  0.00    +0.089 C 
ATOM     13  C   UNL     1      -2.680 -13.046  14.265  0.00  0.00    +0.052 C 
ATOM     14  C   UNL     1      -2.965 -10.682  13.743  0.00  0.00    +0.107 C 
ATOM     15  C   UNL     1      -3.643 -11.986  10.267  0.00  0.00    +0.123 C 
ATOM     16  C   UNL     1      -2.959 -13.820  11.838  0.00  0.00    +0.230 C 
ATOM     36  H   UNL     1      -3.577 -14.073   9.892  0.00  0.00    +0.149 HD
ENDROOT
BRANCH  12   7
ATOM      3  O   UNL     1      -3.161 -11.036  17.697  0.00  0.00    -0.270 OA
ATOM      7  N   UNL     1      -4.127 -11.659  15.683  0.00  0.00    -0.307 N 
ATOM     19  C   UNL     1      -4.149 -11.337  17.032  0.00  0.00    +0.244 C 
ATOM     37  H   UNL     1      -4.965 -12.005  15.226  0.00  0.00    +0.149 HD
BRANCH  19  21
ATOM     21  C   UNL     1      -5.478 -11.394  17.694  0.00  0.00    +0.037 A 
ATOM     22  C   UNL     1      -5.905 -12.574  18.302  0.00  0.00    +0.015 A 
ATOM     23  C   UNL     1      -6.300 -10.267  17.706  0.00  0.00    +0.015 A 
ATOM     25  C   UNL     1      -7.153 -12.627  18.922  0.00  0.00    +0.024 A 
ATOM     26  C   UNL     1      -7.547 -10.320  18.326  0.00  0.00    +0.024 A 
ATOM     27  C   UNL     1      -7.974 -11.500  18.935  0.00  0.00    +0.029 A 
BRANCH  27   9
ATOM      9  N   UNL     1      -9.236 -11.553  19.562  0.00  0.00    -0.336 N 
ATOM     31  C   UNL     1     -10.085 -10.379  19.603  0.00  0.00    +0.129 C 
ATOM     32  C   UNL     1      -9.698 -12.780  20.180  0.00  0.00    +0.129 C 
ENDBRANCH  27   9
ENDBRANCH  19  21
ENDBRANCH  12   7
BRANCH  11  17
ATOM     17  C   UNL     1      -3.804  -9.623  11.078  0.00  0.00    +0.029 C 
BRANCH  17  18
ATOM     18  C   UNL     1      -5.067  -9.782  10.244  0.00  0.00    +0.097 C 
BRANCH  18  20
ATOM      4  O   UNL     1      -7.260  -8.792  10.514  0.00  0.00    -0.276 OA
ATOM      8  N   UNL     1      -6.243  -9.801  12.341  0.00  0.00    -0.311 N 
ATOM     20  C   UNL     1      -6.315  -9.394  11.017  0.00  0.00    +0.213 C 
ATOM     38  H   UNL     1      -5.437 -10.322  12.671  0.00  0.00    +0.149 HD
BRANCH   8  24
ATOM     24  C   UNL     1      -7.307  -9.549  13.283  0.00  0.00    +0.139 C 
BRANCH  24  28
ATOM      1  F   UNL     1      -8.715 -14.178  16.162  0.00  0.00    -0.205 F 
ATOM     28  C   UNL     1      -7.683 -10.783  14.050  0.00  0.00    -0.030 A 
ATOM     29  C   UNL     1      -6.889 -11.927  13.964  0.00  0.00    +0.008 A 
ATOM     30  C   UNL     1      -8.825 -10.787  14.850  0.00  0.00    +0.008 A 
ATOM     33  C   UNL     1      -7.237 -13.074  14.677  0.00  0.00    +0.038 A 
ATOM     34  C   UNL     1      -9.174 -11.934  15.564  0.00  0.00    +0.038 A 
ATOM     35  C   UNL     1      -8.380 -13.077  15.476  0.00  0.00    +0.123 A 
ENDBRANCH  24  28
ENDBRANCH   8  24
ENDBRANCH  18  20
ENDBRANCH  17  18
ENDBRANCH  11  17
TORSDOF 8
ENDMDL
MODEL 10
REMARK VINA RESULT:      -5.8     26.608     29.592
REMARK  Name = 26762246
REMARK  10 active torsions:
REMARK  status: ('A' for Active; 'I' for Inactive)
REMARK    1  A    between atoms: N_7  and  C_12
REMARK    2  A    between atoms: N_8  and  C_24
REMARK    3  A    between atoms: N_9  and  C_27
REMARK    4  A    between atoms: N_9  and  C_31
REMARK    5  A    between atoms: N_9  and  C_32
REMARK    6  A    between atoms: C_11  and  C_17
REMARK    7  A    between atoms: C_17  and  C_18
REMARK    8  A    between atoms: C_18  and  C_20
REMARK    9  A    between atoms: C_19  and  C_21
REMARK   10  A    between atoms: C_24  and  C_28
REMARK                            x       y       z     vdW  Elec       q    Type
REMARK                         _______ _______ _______ _____ _____    ______ ____
ROOT
ATOM      2  O   UNL     1     -10.684   8.159  14.940  0.00  0.00    -0.274 OA
ATOM      5  N   UNL     1     -10.783  10.211  17.818  0.00  0.00    -0.285 NA
ATOM      6  N   UNL     1     -10.556  10.446  15.103  0.00  0.00    -0.313 N 
ATOM     10  C   UNL     1     -10.173   9.092  17.094  0.00  0.00    +0.145 C 
ATOM     11  C   UNL     1     -10.202  11.477  17.368  0.00  0.00    +0.075 C 
ATOM     12  C   UNL     1     -10.923   8.385  19.272  0.00  0.00    +0.089 C 
ATOM     13  C   UNL     1     -10.720   7.882  17.838  0.00  0.00    +0.052 C 
ATOM     14  C   UNL     1     -10.593   9.880  19.230  0.00  0.00    +0.107 C 
ATOM     15  C   UNL     1     -10.619  11.660  15.903  0.00  0.00    +0.123 C 
ATOM     16  C   UNL     1     -10.533   9.167  15.629  0.00  0.00    +0.230 C 
ATOM     36  H   UNL     1     -10.721  10.537  14.106  0.00  0.00    +0.149 HD
ENDROOT
BRANCH  12   7
ATOM      3  O   UNL     1     -11.764   6.455  21.225  0.00  0.00    -0.270 OA
ATOM      7  N   UNL     1     -12.273   8.145  19.721  0.00  0.00    -0.307 N 
ATOM     19  C   UNL     1     -12.583   7.186  20.674  0.00  0.00    +0.244 C 
ATOM     37  H   UNL     1     -13.013   8.634  19.228  0.00  0.00    +0.149 HD
BRANCH  19  21
ATOM     21  C   UNL     1     -14.023   7.043  21.009  0.00  0.00    +0.037 A 
ATOM     22  C   UNL     1     -14.407   6.664  22.295  0.00  0.00    +0.015 A 
ATOM     23  C   UNL     1     -14.993   7.288  20.036  0.00  0.00    +0.015 A 
ATOM     25  C   UNL     1     -15.759   6.529  22.608  0.00  0.00    +0.024 A 
ATOM     26  C   UNL     1     -16.344   7.153  20.350  0.00  0.00    +0.024 A 
ATOM     27  C   UNL     1     -16.728   6.774  21.636  0.00  0.00    +0.029 A 
BRANCH  27   9
ATOM      9  N   UNL     1     -18.095   6.638  21.952  0.00  0.00    -0.336 N 
ATOM     31  C   UNL     1     -19.102   7.329  21.171  0.00  0.00    +0.129 C 
ATOM     32  C   UNL     1     -18.513   5.811  23.067  0.00  0.00    +0.129 C 
ENDBRANCH  27   9
ENDBRANCH  19  21
ENDBRANCH  12   7
BRANCH  11  17
ATOM     17  C   UNL     1     -10.675  12.680  18.189  0.00  0.00    +0.029 C 
BRANCH  17  18
ATOM     18  C   UNL     1     -11.780  13.438  17.466  0.00  0.00    +0.097 C 
BRANCH  18  20
ATOM      4  O   UNL     1     -13.884  14.268  18.330  0.00  0.00    -0.276 OA
ATOM      8  N   UNL     1     -13.339  12.032  18.637  0.00  0.00    -0.311 N 
ATOM     20  C   UNL     1     -13.113  13.323  18.182  0.00  0.00    +0.213 C 
ATOM     38  H   UNL     1     -12.664  11.299  18.446  0.00  0.00    +0.149 HD
BRANCH   8  24
ATOM     24  C   UNL     1     -14.539  11.666  19.350  0.00  0.00    +0.139 C 
BRANCH  24  28
ATOM      1  F   UNL     1     -13.423   9.836  24.557  0.00  0.00    -0.205 F 
ATOM     28  C   UNL     1     -14.242  11.179  20.738  0.00  0.00    -0.030 A 
ATOM     29  C   UNL     1     -15.266  10.660  21.530  0.00  0.00    +0.008 A 
ATOM     30  C   UNL     1     -12.940  11.243  21.236  0.00  0.00    +0.008 A 
ATOM     33  C   UNL     1     -14.991  10.207  22.820  0.00  0.00    +0.038 A 
ATOM     34  C   UNL     1     -12.664  10.789  22.527  0.00  0.00    +0.038 A 
ATOM     35  C   UNL     1     -13.689  10.272  23.318  0.00  0.00    +0.123 A 
ENDBRANCH  24  28
ENDBRANCH   8  24
ENDBRANCH  18  20
ENDBRANCH  17  18
ENDBRANCH  11  17
TORSDOF 8
ENDMDL
