MODEL 1
REMARK VINA RESULT:      -7.5      0.000      0.000
REMARK  Name = 40780206
REMARK  7 active torsions:
REMARK  status: ('A' for Active; 'I' for Inactive)
REMARK    1  A    between atoms: S_1  and  C_33
REMARK    2  A    between atoms: S_1  and  C_36
REMARK    3  A    between atoms: N_5  and  C_15
REMARK    4  A    between atoms: N_7  and  C_22
REMARK    5  A    between atoms: N_8  and  C_30
REMARK    6  A    between atoms: C_10  and  C_15
REMARK    7  A    between atoms: C_12  and  C_22
REMARK                            x       y       z     vdW  Elec       q    Type
REMARK                         _______ _______ _______ _____ _____    ______ ____
ROOT
ATOM      4  N   UNL     1      14.988  13.535  21.355  0.00  0.00    -0.298 NA
ATOM      9  C   UNL     1      13.578  11.658  20.233  0.00  0.00    -0.003 C 
ATOM     10  C   UNL     1      12.963  12.076  21.588  0.00  0.00    +0.020 C 
ATOM     11  C   UNL     1      15.033  11.204  20.452  0.00  0.00    +0.024 C 
ATOM     12  C   UNL     1      15.865  12.392  20.983  0.00  0.00    +0.074 C 
ATOM     13  C   UNL     1      13.914  13.082  22.273  0.00  0.00    +0.089 C 
ATOM     14  C   UNL     1      13.623  12.923  19.354  0.00  0.00    +0.019 C 
ATOM     16  C   UNL     1      14.352  14.044  20.116  0.00  0.00    +0.085 C 
ENDROOT
BRANCH  10  15
ATOM     15  C   UNL     1      12.651  10.895  22.494  0.00  0.00    +0.089 C 
BRANCH  15   5
ATOM      2  O   UNL     1      12.007   8.552  16.840  0.00  0.00    -0.268 OA
ATOM      5  N   UNL     1      12.388   9.688  21.715  0.00  0.00    -0.301 NA
ATOM      6  N   UNL     1      12.401   7.919  19.060  0.00  0.00    -0.312 N 
ATOM     17  C   UNL     1      10.635   8.087  20.907  0.00  0.00    +0.024 C 
ATOM     18  C   UNL     1      12.875   7.252  21.441  0.00  0.00    +0.050 C 
ATOM     19  C   UNL     1      10.951   9.389  21.675  0.00  0.00    +0.089 C 
ATOM     20  C   UNL     1      13.161   8.549  22.233  0.00  0.00    +0.094 C 
ATOM     21  C   UNL     1      11.388   6.919  21.528  0.00  0.00    +0.017 C 
ATOM     23  C   UNL     1      11.001   8.179  19.419  0.00  0.00    +0.130 C 
ATOM     24  C   UNL     1      13.307   7.407  19.995  0.00  0.00    +0.026 A 
ATOM     25  C   UNL     1      14.553   7.074  19.617  0.00  0.00    +0.022 A 
ATOM     26  C   UNL     1      12.760   8.119  17.713  0.00  0.00    +0.251 A 
ATOM     27  C   UNL     1      14.983   7.257  18.258  0.00  0.00    +0.007 A 
ATOM     28  C   UNL     1      14.156   7.761  17.339  0.00  0.00    +0.070 A 
ENDBRANCH  15   5
ENDBRANCH  10  15
BRANCH  12  22
ATOM     22  C   UNL     1      16.791  11.970  22.126  0.00  0.00    +0.124 C 
BRANCH  22   7
ATOM      3  O   UNL     1      18.811  10.290  20.986  0.00  0.00    -0.253 OA
ATOM      7  N   UNL     1      16.871  10.522  22.218  0.00  0.00    -0.298 N 
ATOM      8  N   UNL     1      17.710   8.421  21.884  0.00  0.00    -0.269 N 
ATOM     29  C   UNL     1      17.895   9.783  21.629  0.00  0.00    +0.304 C 
ATOM     37  H   UNL     1      16.144  10.032  22.731  0.00  0.00    +0.150 HD
ATOM     38  H   UNL     1      16.895   8.167  22.436  0.00  0.00    +0.156 HD
BRANCH   8  30
ATOM     30  C   UNL     1      18.522   7.341  21.466  0.00  0.00    +0.036 A 
ATOM     31  C   UNL     1      19.704   7.052  22.147  0.00  0.00    +0.038 A 
ATOM     32  C   UNL     1      18.140   6.566  20.372  0.00  0.00    +0.023 A 
ATOM     33  C   UNL     1      20.504   5.987  21.734  0.00  0.00    +0.009 A 
ATOM     34  C   UNL     1      18.940   5.501  19.958  0.00  0.00    +0.003 A 
ATOM     35  C   UNL     1      20.122   5.210  20.640  0.00  0.00    +0.015 A 
BRANCH  33   1
ATOM      1  S   UNL     1      22.015   5.615  22.604  0.00  0.00    -0.129 S 
ATOM     36  C   UNL     1      22.800   7.250  22.692  0.00  0.00    +0.090 C 
ENDBRANCH  33   1
ENDBRANCH   8  30
ENDBRANCH  22   7
ENDBRANCH  12  22
TORSDOF 6
ENDMDL
MODEL 2
REMARK VINA RESULT:      -7.1     27.989     31.608
REMARK  Name = 40780206
REMARK  7 active torsions:
REMARK  status: ('A' for Active; 'I' for Inactive)
REMARK    1  A    between atoms: S_1  and  C_33
REMARK    2  A    between atoms: S_1  and  C_36
REMARK    3  A    between atoms: N_5  and  C_15
REMARK    4  A    between atoms: N_7  and  C_22
REMARK    5  A    between atoms: N_8  and  C_30
REMARK    6  A    between atoms: C_10  and  C_15
REMARK    7  A    between atoms: C_12  and  C_22
REMARK                            x       y       z     vdW  Elec       q    Type
REMARK                         _______ _______ _______ _____ _____    ______ ____
ROOT
ATOM      4  N   UNL     1     -11.210  -9.343  17.165  0.00  0.00    -0.298 NA
ATOM      9  C   UNL     1      -9.331 -10.192  15.578  0.00  0.00    -0.003 C 
ATOM     10  C   UNL     1      -8.887 -10.278  17.056  0.00  0.00    +0.020 C 
ATOM     11  C   UNL     1      -9.723  -8.740  15.247  0.00  0.00    +0.024 C 
ATOM     12  C   UNL     1     -10.934  -8.327  16.113  0.00  0.00    +0.074 C 
ATOM     13  C   UNL     1      -9.977  -9.630  17.938  0.00  0.00    +0.089 C 
ATOM     14  C   UNL     1     -10.605 -11.049  15.444  0.00  0.00    +0.019 C 
ATOM     16  C   UNL     1     -11.636 -10.593  16.492  0.00  0.00    +0.085 C 
ENDROOT
BRANCH  10  15
ATOM     15  C   UNL     1      -7.522  -9.660  17.308  0.00  0.00    +0.089 C 
BRANCH  15   5
ATOM      2  O   UNL     1      -4.084 -12.934  13.392  0.00  0.00    -0.268 OA
ATOM      5  N   UNL     1      -6.460 -10.655  17.182  0.00  0.00    -0.301 NA
ATOM      6  N   UNL     1      -4.163 -12.227  15.623  0.00  0.00    -0.312 N 
ATOM     17  C   UNL     1      -5.881 -13.091  17.314  0.00  0.00    +0.024 C 
ATOM     18  C   UNL     1      -4.229 -11.421  18.008  0.00  0.00    +0.050 C 
ATOM     19  C   UNL     1      -6.982 -12.012  17.384  0.00  0.00    +0.089 C 
ATOM     20  C   UNL     1      -5.351 -10.362  18.103  0.00  0.00    +0.094 C 
ATOM     21  C   UNL     1      -4.796 -12.797  18.343  0.00  0.00    +0.017 C 
ATOM     23  C   UNL     1      -5.236 -13.183  15.925  0.00  0.00    +0.130 C 
ATOM     24  C   UNL     1      -3.612 -11.416  16.622  0.00  0.00    +0.026 A 
ATOM     25  C   UNL     1      -2.558 -10.628  16.347  0.00  0.00    +0.022 A 
ATOM     26  C   UNL     1      -3.654 -12.235  14.311  0.00  0.00    +0.251 A 
ATOM     27  C   UNL     1      -1.994 -10.587  15.027  0.00  0.00    +0.007 A 
ATOM     28  C   UNL     1      -2.502 -11.331  14.040  0.00  0.00    +0.070 A 
ENDBRANCH  15   5
ENDBRANCH  10  15
BRANCH  12  22
ATOM     22  C   UNL     1     -10.768  -6.919  16.689  0.00  0.00    +0.124 C 
BRANCH  22   7
ATOM      3  O   UNL     1     -12.990  -6.402  14.958  0.00  0.00    -0.253 OA
ATOM      7  N   UNL     1     -10.835  -5.920  15.636  0.00  0.00    -0.298 N 
ATOM      8  N   UNL     1     -11.738  -4.711  13.917  0.00  0.00    -0.269 N 
ATOM     29  C   UNL     1     -11.963  -5.738  14.839  0.00  0.00    +0.304 C 
ATOM     37  H   UNL     1     -10.021  -5.335  15.476  0.00  0.00    +0.150 HD
ATOM     38  H   UNL     1     -10.827  -4.260  13.952  0.00  0.00    +0.156 HD
BRANCH   8  30
ATOM     30  C   UNL     1     -12.625  -4.217  12.934  0.00  0.00    +0.036 A 
ATOM     31  C   UNL     1     -12.221  -4.146  11.601  0.00  0.00    +0.038 A 
ATOM     32  C   UNL     1     -13.904  -3.799  13.298  0.00  0.00    +0.023 A 
ATOM     33  C   UNL     1     -13.097  -3.659  10.631  0.00  0.00    +0.009 A 
ATOM     34  C   UNL     1     -14.781  -3.311  12.329  0.00  0.00    +0.003 A 
ATOM     35  C   UNL     1     -14.378  -3.241  10.995  0.00  0.00    +0.015 A 
BRANCH  33   1
ATOM      1  S   UNL     1     -12.583  -3.570   8.927  0.00  0.00    -0.129 S 
ATOM     36  C   UNL     1     -10.793  -3.836   9.069  0.00  0.00    +0.090 C 
ENDBRANCH  33   1
ENDBRANCH   8  30
ENDBRANCH  22   7
ENDBRANCH  12  22
TORSDOF 6
ENDMDL
MODEL 3
REMARK VINA RESULT:      -7.1     14.474     17.749
REMARK  Name = 40780206
REMARK  7 active torsions:
REMARK  status: ('A' for Active; 'I' for Inactive)
REMARK    1  A    between atoms: S_1  and  C_33
REMARK    2  A    between atoms: S_1  and  C_36
REMARK    3  A    between atoms: N_5  and  C_15
REMARK    4  A    between atoms: N_7  and  C_22
REMARK    5  A    between atoms: N_8  and  C_30
REMARK    6  A    between atoms: C_10  and  C_15
REMARK    7  A    between atoms: C_12  and  C_22
REMARK                            x       y       z     vdW  Elec       q    Type
REMARK                         _______ _______ _______ _____ _____    ______ ____
ROOT
ATOM      4  N   UNL     1      12.234   5.329   0.066  0.00  0.00    -0.298 NA
ATOM      9  C   UNL     1      11.091   4.355   2.190  0.00  0.00    -0.003 C 
ATOM     10  C   UNL     1      11.140   5.898   2.249  0.00  0.00    +0.020 C 
ATOM     11  C   UNL     1      12.520   3.804   2.027  0.00  0.00    +0.024 C 
ATOM     12  C   UNL     1      13.105   4.294   0.684  0.00  0.00    +0.074 C 
ATOM     13  C   UNL     1      11.953   6.412   1.040  0.00  0.00    +0.089 C 
ATOM     14  C   UNL     1      10.310   3.981   0.915  0.00  0.00    +0.019 C 
ATOM     16  C   UNL     1      10.947   4.687  -0.295  0.00  0.00    +0.085 C 
ENDROOT
BRANCH  10  15
ATOM     15  C   UNL     1      11.691   6.430   3.562  0.00  0.00    +0.089 C 
BRANCH  15   5
ATOM      2  O   UNL     1      10.171   9.778   8.497  0.00  0.00    -0.268 OA
ATOM      5  N   UNL     1      10.613   6.812   4.470  0.00  0.00    -0.301 NA
ATOM      6  N   UNL     1       9.225   8.661   6.668  0.00  0.00    -0.312 N 
ATOM     17  C   UNL     1       9.212   6.111   6.429  0.00  0.00    +0.024 C 
ATOM     18  C   UNL     1       8.219   7.501   4.672  0.00  0.00    +0.050 C 
ATOM     19  C   UNL     1      10.382   5.772   5.480  0.00  0.00    +0.089 C 
ATOM     20  C   UNL     1       9.383   7.124   3.727  0.00  0.00    +0.094 C 
ATOM     21  C   UNL     1       7.939   6.342   5.625  0.00  0.00    +0.017 C 
ATOM     23  C   UNL     1       9.490   7.355   7.284  0.00  0.00    +0.130 C 
ATOM     24  C   UNL     1       8.552   8.764   5.446  0.00  0.00    +0.026 A 
ATOM     25  C   UNL     1       8.223   9.971   4.954  0.00  0.00    +0.022 A 
ATOM     26  C   UNL     1       9.592   9.800   7.410  0.00  0.00    +0.251 A 
ATOM     27  C   UNL     1       8.572  11.172   5.660  0.00  0.00    +0.007 A 
ATOM     28  C   UNL     1       9.231  11.120   6.821  0.00  0.00    +0.070 A 
ENDBRANCH  15   5
ENDBRANCH  10  15
BRANCH  12  22
ATOM     22  C   UNL     1      14.555   4.762   0.833  0.00  0.00    +0.124 C 
BRANCH  22   7
ATOM      3  O   UNL     1      15.191   7.388   1.783  0.00  0.00    -0.253 OA
ATOM      7  N   UNL     1      14.835   5.145   2.206  0.00  0.00    -0.298 N 
ATOM      8  N   UNL     1      15.358   6.519   3.958  0.00  0.00    -0.269 N 
ATOM     29  C   UNL     1      15.137   6.453   2.579  0.00  0.00    +0.304 C 
ATOM     37  H   UNL     1      14.812   4.424   2.920  0.00  0.00    +0.150 HD
ATOM     38  H   UNL     1      15.273   5.647   4.475  0.00  0.00    +0.156 HD
BRANCH   8  30
ATOM     30  C   UNL     1      15.688   7.656   4.731  0.00  0.00    +0.036 A 
ATOM     31  C   UNL     1      17.013   8.083   4.815  0.00  0.00    +0.038 A 
ATOM     32  C   UNL     1      14.687   8.350   5.410  0.00  0.00    +0.023 A 
ATOM     33  C   UNL     1      17.338   9.204   5.578  0.00  0.00    +0.009 A 
ATOM     34  C   UNL     1      15.011   9.472   6.173  0.00  0.00    +0.003 A 
ATOM     35  C   UNL     1      16.336   9.900   6.257  0.00  0.00    +0.015 A 
BRANCH  33   1
ATOM      1  S   UNL     1      19.030   9.752   5.685  0.00  0.00    -0.129 S 
ATOM     36  C   UNL     1      19.763   8.475   6.748  0.00  0.00    +0.090 C 
ENDBRANCH  33   1
ENDBRANCH   8  30
ENDBRANCH  22   7
ENDBRANCH  12  22
TORSDOF 6
ENDMDL
MODEL 4
REMARK VINA RESULT:      -6.8     28.461     31.000
REMARK  Name = 40780206
REMARK  7 active torsions:
REMARK  status: ('A' for Active; 'I' for Inactive)
REMARK    1  A    between atoms: S_1  and  C_33
REMARK    2  A    between atoms: S_1  and  C_36
REMARK    3  A    between atoms: N_5  and  C_15
REMARK    4  A    between atoms: N_7  and  C_22
REMARK    5  A    between atoms: N_8  and  C_30
REMARK    6  A    between atoms: C_10  and  C_15
REMARK    7  A    between atoms: C_12  and  C_22
REMARK                            x       y       z     vdW  Elec       q    Type
REMARK                         _______ _______ _______ _____ _____    ______ ____
ROOT
ATOM      4  N   UNL     1     -10.003  -7.785  15.840  0.00  0.00    -0.298 NA
ATOM      9  C   UNL     1     -12.491  -8.311  16.393  0.00  0.00    -0.003 C 
ATOM     10  C   UNL     1     -11.552  -8.866  17.488  0.00  0.00    +0.020 C 
ATOM     11  C   UNL     1     -12.088  -8.902  15.029  0.00  0.00    +0.024 C 
ATOM     12  C   UNL     1     -10.655  -8.445  14.677  0.00  0.00    +0.074 C 
ATOM     13  C   UNL     1     -10.089  -8.654  17.039  0.00  0.00    +0.089 C 
ATOM     14  C   UNL     1     -12.244  -6.792  16.321  0.00  0.00    +0.019 C 
ATOM     16  C   UNL     1     -10.740  -6.530  16.125  0.00  0.00    +0.085 C 
ENDROOT
BRANCH  10  15
ATOM     15  C   UNL     1     -11.827 -10.321  17.832  0.00  0.00    +0.089 C 
BRANCH  15   5
ATOM      2  O   UNL     1      -6.016 -10.451  15.811  0.00  0.00    -0.268 OA
ATOM      5  N   UNL     1     -10.624 -11.136  17.679  0.00  0.00    -0.301 NA
ATOM      6  N   UNL     1      -7.502 -11.595  17.213  0.00  0.00    -0.312 N 
ATOM     17  C   UNL     1      -9.502 -12.940  16.347  0.00  0.00    +0.024 C 
ATOM     18  C   UNL     1      -9.092 -12.790  18.757  0.00  0.00    +0.050 C 
ATOM     19  C   UNL     1     -10.731 -12.020  16.512  0.00  0.00    +0.089 C 
ATOM     20  C   UNL     1     -10.345 -11.897  18.907  0.00  0.00    +0.094 C 
ATOM     21  C   UNL     1      -9.300 -13.771  17.606  0.00  0.00    +0.017 C 
ATOM     23  C   UNL     1      -8.216 -12.155  16.058  0.00  0.00    +0.130 C 
ATOM     24  C   UNL     1      -7.858 -11.939  18.522  0.00  0.00    +0.026 A 
ATOM     25  C   UNL     1      -7.124 -11.502  19.559  0.00  0.00    +0.022 A 
ATOM     26  C   UNL     1      -6.390 -10.777  16.938  0.00  0.00    +0.251 A 
ATOM     27  C   UNL     1      -5.979 -10.661  19.346  0.00  0.00    +0.007 A 
ATOM     28  C   UNL     1      -5.615 -10.294  18.115  0.00  0.00    +0.070 A 
ENDBRANCH  15   5
ENDBRANCH  10  15
BRANCH  12  22
ATOM     22  C   UNL     1      -9.816  -9.592  14.110  0.00  0.00    +0.124 C 
BRANCH  22   7
ATOM      3  O   UNL     1      -7.934 -10.721  12.270  0.00  0.00    -0.253 OA
ATOM      7  N   UNL     1      -8.439  -9.174  13.909  0.00  0.00    -0.298 N 
ATOM      8  N   UNL     1      -6.334  -9.173  13.015  0.00  0.00    -0.269 N 
ATOM     29  C   UNL     1      -7.591  -9.784  12.987  0.00  0.00    +0.304 C 
ATOM     37  H   UNL     1      -8.083  -8.407  14.470  0.00  0.00    +0.150 HD
ATOM     38  H   UNL     1      -6.215  -8.405  13.671  0.00  0.00    +0.156 HD
BRANCH   8  30
ATOM     30  C   UNL     1      -5.196  -9.491  12.237  0.00  0.00    +0.036 A 
ATOM     31  C   UNL     1      -4.228 -10.360  12.740  0.00  0.00    +0.038 A 
ATOM     32  C   UNL     1      -5.044  -8.935  10.968  0.00  0.00    +0.023 A 
ATOM     33  C   UNL     1      -3.106 -10.673  11.972  0.00  0.00    +0.009 A 
ATOM     34  C   UNL     1      -3.922  -9.247  10.199  0.00  0.00    +0.003 A 
ATOM     35  C   UNL     1      -2.953 -10.117  10.701  0.00  0.00    +0.015 A 
BRANCH  33   1
ATOM      1  S   UNL     1      -1.868 -11.784  12.612  0.00  0.00    -0.129 S 
ATOM     36  C   UNL     1      -2.149 -11.655  14.401  0.00  0.00    +0.090 C 
ENDBRANCH  33   1
ENDBRANCH   8  30
ENDBRANCH  22   7
ENDBRANCH  12  22
TORSDOF 6
ENDMDL
MODEL 5
REMARK VINA RESULT:      -6.5     15.729     19.218
REMARK  Name = 40780206
REMARK  7 active torsions:
REMARK  status: ('A' for Active; 'I' for Inactive)
REMARK    1  A    between atoms: S_1  and  C_33
REMARK    2  A    between atoms: S_1  and  C_36
REMARK    3  A    between atoms: N_5  and  C_15
REMARK    4  A    between atoms: N_7  and  C_22
REMARK    5  A    between atoms: N_8  and  C_30
REMARK    6  A    between atoms: C_10  and  C_15
REMARK    7  A    between atoms: C_12  and  C_22
REMARK                            x       y       z     vdW  Elec       q    Type
REMARK                         _______ _______ _______ _____ _____    ______ ____
ROOT
ATOM      4  N   UNL     1      13.894   7.288   5.256  0.00  0.00    -0.298 NA
ATOM      9  C   UNL     1      14.111   9.732   4.390  0.00  0.00    -0.003 C 
ATOM     10  C   UNL     1      13.027   9.629   5.487  0.00  0.00    +0.020 C 
ATOM     11  C   UNL     1      13.769   8.764   3.242  0.00  0.00    +0.024 C 
ATOM     12  C   UNL     1      13.792   7.314   3.772  0.00  0.00    +0.074 C 
ATOM     13  C   UNL     1      12.841   8.141   5.858  0.00  0.00    +0.089 C 
ATOM     14  C   UNL     1      15.431   9.243   5.019  0.00  0.00    +0.019 C 
ATOM     16  C   UNL     1      15.214   7.848   5.633  0.00  0.00    +0.085 C 
ENDROOT
BRANCH  10  15
ATOM     15  C   UNL     1      11.710  10.276   5.090  0.00  0.00    +0.089 C 
BRANCH  15   5
ATOM      2  O   UNL     1      10.159   4.326   5.336  0.00  0.00    -0.268 OA
ATOM      5  N   UNL     1      10.606   9.323   5.176  0.00  0.00    -0.301 NA
ATOM      6  N   UNL     1       9.312   6.467   5.764  0.00  0.00    -0.312 N 
ATOM     17  C   UNL     1       8.772   8.162   3.921  0.00  0.00    +0.024 C 
ATOM     18  C   UNL     1       8.428   8.770   6.269  0.00  0.00    +0.050 C 
ATOM     19  C   UNL     1       9.981   9.121   3.864  0.00  0.00    +0.089 C 
ATOM     20  C   UNL     1       9.621   9.749   6.182  0.00  0.00    +0.094 C 
ATOM     21  C   UNL     1       7.738   8.684   4.910  0.00  0.00    +0.017 C 
ATOM     23  C   UNL     1       9.171   6.737   4.327  0.00  0.00    +0.130 C 
ATOM     24  C   UNL     1       8.898   7.400   6.721  0.00  0.00    +0.026 A 
ATOM     25  C   UNL     1       8.934   7.089   8.028  0.00  0.00    +0.022 A 
ATOM     26  C   UNL     1       9.793   5.195   6.128  0.00  0.00    +0.251 A 
ATOM     27  C   UNL     1       9.417   5.808   8.466  0.00  0.00    +0.007 A 
ATOM     28  C   UNL     1       9.841   4.897   7.586  0.00  0.00    +0.070 A 
ENDBRANCH  15   5
ENDBRANCH  10  15
BRANCH  12  22
ATOM     22  C   UNL     1      12.604   6.500   3.254  0.00  0.00    +0.124 C 
BRANCH  22   7
ATOM      3  O   UNL     1      11.228   4.464   1.782  0.00  0.00    -0.253 OA
ATOM      7  N   UNL     1      12.772   6.182   1.846  0.00  0.00    -0.298 N 
ATOM      8  N   UNL     1      12.426   5.095  -0.137  0.00  0.00    -0.269 N 
ATOM     29  C   UNL     1      12.056   5.169   1.210  0.00  0.00    +0.304 C 
ATOM     37  H   UNL     1      13.444   6.721   1.308  0.00  0.00    +0.150 HD
ATOM     38  H   UNL     1      13.131   5.756  -0.453  0.00  0.00    +0.156 HD
BRANCH   8  30
ATOM     30  C   UNL     1      11.938   4.207  -1.123  0.00  0.00    +0.036 A 
ATOM     31  C   UNL     1      10.873   4.587  -1.939  0.00  0.00    +0.038 A 
ATOM     32  C   UNL     1      12.523   2.951  -1.279  0.00  0.00    +0.023 A 
ATOM     33  C   UNL     1      10.393   3.711  -2.913  0.00  0.00    +0.009 A 
ATOM     34  C   UNL     1      12.042   2.074  -2.252  0.00  0.00    +0.003 A 
ATOM     35  C   UNL     1      10.977   2.454  -3.070  0.00  0.00    +0.015 A 
BRANCH  33   1
ATOM      1  S   UNL     1       9.032   4.196  -3.957  0.00  0.00    -0.129 S 
ATOM     36  C   UNL     1       8.869   5.959  -3.552  0.00  0.00    +0.090 C 
ENDBRANCH  33   1
ENDBRANCH   8  30
ENDBRANCH  22   7
ENDBRANCH  12  22
TORSDOF 6
ENDMDL
MODEL 6
REMARK VINA RESULT:      -6.5      4.930     11.344
REMARK  Name = 40780206
REMARK  7 active torsions:
REMARK  status: ('A' for Active; 'I' for Inactive)
REMARK    1  A    between atoms: S_1  and  C_33
REMARK    2  A    between atoms: S_1  and  C_36
REMARK    3  A    between atoms: N_5  and  C_15
REMARK    4  A    between atoms: N_7  and  C_22
REMARK    5  A    between atoms: N_8  and  C_30
REMARK    6  A    between atoms: C_10  and  C_15
REMARK    7  A    between atoms: C_12  and  C_22
REMARK                            x       y       z     vdW  Elec       q    Type
REMARK                         _______ _______ _______ _____ _____    ______ ____
ROOT
ATOM      4  N   UNL     1      20.811   7.204  22.424  0.00  0.00    -0.298 NA
ATOM      9  C   UNL     1      22.729   5.455  22.606  0.00  0.00    -0.003 C 
ATOM     10  C   UNL     1      23.221   6.744  21.909  0.00  0.00    +0.020 C 
ATOM     11  C   UNL     1      21.528   4.883  21.831  0.00  0.00    +0.024 C 
ATOM     12  C   UNL     1      20.363   5.897  21.872  0.00  0.00    +0.074 C 
ATOM     13  C   UNL     1      22.013   7.683  21.699  0.00  0.00    +0.089 C 
ATOM     14  C   UNL     1      22.217   5.868  24.000  0.00  0.00    +0.019 C 
ATOM     16  C   UNL     1      21.181   6.996  23.845  0.00  0.00    +0.085 C 
ENDROOT
BRANCH  10  15
ATOM     15  C   UNL     1      23.956   6.477  20.606  0.00  0.00    +0.089 C 
BRANCH  15   5
ATOM      2  O   UNL     1      26.669   2.585  24.526  0.00  0.00    -0.268 OA
ATOM      5  N   UNL     1      24.871   5.346  20.738  0.00  0.00    -0.301 NA
ATOM      6  N   UNL     1      26.163   2.855  22.255  0.00  0.00    -0.312 N 
ATOM     17  C   UNL     1      27.271   4.619  20.765  0.00  0.00    +0.024 C 
ATOM     18  C   UNL     1      25.571   3.128  19.823  0.00  0.00    +0.050 C 
ATOM     19  C   UNL     1      26.269   5.791  20.685  0.00  0.00    +0.089 C 
ATOM     20  C   UNL     1      24.593   4.321  19.721  0.00  0.00    +0.094 C 
ATOM     21  C   UNL     1      27.003   3.625  19.643  0.00  0.00    +0.017 C 
ATOM     23  C   UNL     1      27.204   3.880  22.109  0.00  0.00    +0.130 C 
ATOM     24  C   UNL     1      25.410   2.424  21.157  0.00  0.00    +0.026 A 
ATOM     25  C   UNL     1      24.540   1.408  21.291  0.00  0.00    +0.022 A 
ATOM     26  C   UNL     1      26.027   2.263  23.525  0.00  0.00    +0.251 A 
ATOM     27  C   UNL     1      24.352   0.764  22.562  0.00  0.00    +0.007 A 
ATOM     28  C   UNL     1      25.036   1.157  23.639  0.00  0.00    +0.070 A 
ENDBRANCH  15   5
ENDBRANCH  10  15
BRANCH  12  22
ATOM     22  C   UNL     1      19.686   6.040  20.507  0.00  0.00    +0.124 C 
BRANCH  22   7
ATOM      3  O   UNL     1      17.339   5.685  18.904  0.00  0.00    -0.253 OA
ATOM      7  N   UNL     1      18.434   6.768  20.626  0.00  0.00    -0.298 N 
ATOM      8  N   UNL     1      16.282   7.375  20.145  0.00  0.00    -0.269 N 
ATOM     29  C   UNL     1      17.339   6.528  19.799  0.00  0.00    +0.304 C 
ATOM     37  H   UNL     1      18.361   7.485  21.341  0.00  0.00    +0.150 HD
ATOM     38  H   UNL     1      16.448   8.018  20.915  0.00  0.00    +0.156 HD
BRANCH   8  30
ATOM     30  C   UNL     1      14.999   7.449  19.555  0.00  0.00    +0.036 A 
ATOM     31  C   UNL     1      14.813   8.174  18.378  0.00  0.00    +0.038 A 
ATOM     32  C   UNL     1      13.921   6.797  20.151  0.00  0.00    +0.023 A 
ATOM     33  C   UNL     1      13.547   8.246  17.796  0.00  0.00    +0.009 A 
ATOM     34  C   UNL     1      12.654   6.869  19.570  0.00  0.00    +0.003 A 
ATOM     35  C   UNL     1      12.467   7.593  18.392  0.00  0.00    +0.015 A 
BRANCH  33   1
ATOM      1  S   UNL     1      13.308   9.170  16.292  0.00  0.00    -0.129 S 
ATOM     36  C   UNL     1      14.324  10.643  16.600  0.00  0.00    +0.090 C 
ENDBRANCH  33   1
ENDBRANCH   8  30
ENDBRANCH  22   7
ENDBRANCH  12  22
TORSDOF 6
ENDMDL
MODEL 7
REMARK VINA RESULT:      -6.5     28.699     30.966
REMARK  Name = 40780206
REMARK  7 active torsions:
REMARK  status: ('A' for Active; 'I' for Inactive)
REMARK    1  A    between atoms: S_1  and  C_33
REMARK    2  A    between atoms: S_1  and  C_36
REMARK    3  A    between atoms: N_5  and  C_15
REMARK    4  A    between atoms: N_7  and  C_22
REMARK    5  A    between atoms: N_8  and  C_30
REMARK    6  A    between atoms: C_10  and  C_15
REMARK    7  A    between atoms: C_12  and  C_22
REMARK                            x       y       z     vdW  Elec       q    Type
REMARK                         _______ _______ _______ _____ _____    ______ ____
ROOT
ATOM      4  N   UNL     1      -5.181 -12.735  17.130  0.00  0.00    -0.298 NA
ATOM      9  C   UNL     1      -5.641 -10.227  17.650  0.00  0.00    -0.003 C 
ATOM     10  C   UNL     1      -6.863 -10.883  16.968  0.00  0.00    +0.020 C 
ATOM     11  C   UNL     1      -4.404 -10.389  16.747  0.00  0.00    +0.024 C 
ATOM     12  C   UNL     1      -4.085 -11.892  16.583  0.00  0.00    +0.074 C 
ATOM     13  C   UNL     1      -6.484 -12.322  16.553  0.00  0.00    +0.089 C 
ATOM     14  C   UNL     1      -5.369 -11.025  18.941  0.00  0.00    +0.019 C 
ATOM     16  C   UNL     1      -5.236 -12.519  18.596  0.00  0.00    +0.085 C 
ENDROOT
BRANCH  10  15
ATOM     15  C   UNL     1      -7.392 -10.081  15.790  0.00  0.00    +0.089 C 
BRANCH  15   5
ATOM      2  O   UNL     1     -11.507  -5.663  14.598  0.00  0.00    -0.268 OA
ATOM      5  N   UNL     1      -8.747  -9.598  16.045  0.00  0.00    -0.301 NA
ATOM      6  N   UNL     1     -11.341  -7.848  15.425  0.00  0.00    -0.312 N 
ATOM     17  C   UNL     1     -10.253  -8.424  17.671  0.00  0.00    +0.024 C 
ATOM     18  C   UNL     1     -11.159 -10.214  16.266  0.00  0.00    +0.050 C 
ATOM     19  C   UNL     1      -8.823  -8.902  17.336  0.00  0.00    +0.089 C 
ATOM     20  C   UNL     1      -9.721 -10.698  15.968  0.00  0.00    +0.094 C 
ATOM     21  C   UNL     1     -11.213  -9.606  17.665  0.00  0.00    +0.017 C 
ATOM     23  C   UNL     1     -10.764  -7.364  16.686  0.00  0.00    +0.130 C 
ATOM     24  C   UNL     1     -11.606  -9.207  15.223  0.00  0.00    +0.026 A 
ATOM     25  C   UNL     1     -12.235  -9.614  14.107  0.00  0.00    +0.022 A 
ATOM     26  C   UNL     1     -11.699  -6.873  14.474  0.00  0.00    +0.251 A 
ATOM     27  C   UNL     1     -12.624  -8.670  13.096  0.00  0.00    +0.007 A 
ATOM     28  C   UNL     1     -12.372  -7.367  13.241  0.00  0.00    +0.070 A 
ENDBRANCH  15   5
ENDBRANCH  10  15
BRANCH  12  22
ATOM     22  C   UNL     1      -3.743 -12.245  15.134  0.00  0.00    +0.124 C 
BRANCH  22   7
ATOM      3  O   UNL     1      -4.864 -12.236  12.498  0.00  0.00    -0.253 OA
ATOM      7  N   UNL     1      -3.916 -11.092  14.267  0.00  0.00    -0.298 N 
ATOM      8  N   UNL     1      -4.512  -9.917  12.397  0.00  0.00    -0.269 N 
ATOM     29  C   UNL     1      -4.473 -11.181  12.993  0.00  0.00    +0.304 C 
ATOM     37  H   UNL     1      -3.612 -10.185  14.607  0.00  0.00    +0.150 HD
ATOM     38  H   UNL     1      -4.147  -9.143  12.947  0.00  0.00    +0.156 HD
BRANCH   8  30
ATOM     30  C   UNL     1      -5.001  -9.576  11.115  0.00  0.00    +0.036 A 
ATOM     31  C   UNL     1      -6.349  -9.263  10.941  0.00  0.00    +0.038 A 
ATOM     32  C   UNL     1      -4.133  -9.552  10.024  0.00  0.00    +0.023 A 
ATOM     33  C   UNL     1      -6.829  -8.926   9.676  0.00  0.00    +0.009 A 
ATOM     34  C   UNL     1      -4.613  -9.215   8.758  0.00  0.00    +0.003 A 
ATOM     35  C   UNL     1      -5.961  -8.902   8.584  0.00  0.00    +0.015 A 
BRANCH  33   1
ATOM      1  S   UNL     1      -8.551  -8.526   9.453  0.00  0.00    -0.129 S 
ATOM     36  C   UNL     1      -8.452  -7.042   8.411  0.00  0.00    +0.090 C 
ENDBRANCH  33   1
ENDBRANCH   8  30
ENDBRANCH  22   7
ENDBRANCH  12  22
TORSDOF 6
ENDMDL
MODEL 8
REMARK VINA RESULT:      -6.5     13.936     16.585
REMARK  Name = 40780206
REMARK  7 active torsions:
REMARK  status: ('A' for Active; 'I' for Inactive)
REMARK    1  A    between atoms: S_1  and  C_33
REMARK    2  A    between atoms: S_1  and  C_36
REMARK    3  A    between atoms: N_5  and  C_15
REMARK    4  A    between atoms: N_7  and  C_22
REMARK    5  A    between atoms: N_8  and  C_30
REMARK    6  A    between atoms: C_10  and  C_15
REMARK    7  A    between atoms: C_12  and  C_22
REMARK                            x       y       z     vdW  Elec       q    Type
REMARK                         _______ _______ _______ _____ _____    ______ ____
ROOT
ATOM      4  N   UNL     1      11.356   9.226   2.704  0.00  0.00    -0.298 NA
ATOM      9  C   UNL     1       9.371   7.897   1.673  0.00  0.00    -0.003 C 
ATOM     10  C   UNL     1       8.999   8.452   3.067  0.00  0.00    +0.020 C 
ATOM     11  C   UNL     1      10.627   7.014   1.793  0.00  0.00    +0.024 C 
ATOM     12  C   UNL     1      11.815   7.878   2.272  0.00  0.00    +0.074 C 
ATOM     13  C   UNL     1      10.254   9.103   3.690  0.00  0.00    +0.089 C 
ATOM     14  C   UNL     1       9.748   9.108   0.796  0.00  0.00    +0.019 C 
ATOM     16  C   UNL     1      10.832   9.934   1.511  0.00  0.00    +0.085 C 
ENDROOT
BRANCH  10  15
ATOM     15  C   UNL     1       8.397   7.403   3.987  0.00  0.00    +0.089 C 
BRANCH  15   5
ATOM      2  O   UNL     1      13.691   8.644   6.868  0.00  0.00    -0.268 OA
ATOM      5  N   UNL     1       9.124   7.331   5.252  0.00  0.00    -0.301 NA
ATOM      6  N   UNL     1      11.442   8.143   7.287  0.00  0.00    -0.312 N 
ATOM     17  C   UNL     1      10.401   5.850   6.823  0.00  0.00    +0.024 C 
ATOM     18  C   UNL     1       9.012   7.654   7.728  0.00  0.00    +0.050 C 
ATOM     19  C   UNL     1       9.671   5.986   5.469  0.00  0.00    +0.089 C 
ATOM     20  C   UNL     1       8.272   7.752   6.374  0.00  0.00    +0.094 C 
ATOM     21  C   UNL     1       9.458   6.213   7.962  0.00  0.00    +0.017 C 
ATOM     23  C   UNL     1      11.648   6.739   6.909  0.00  0.00    +0.130 C 
ATOM     24  C   UNL     1      10.202   8.595   7.751  0.00  0.00    +0.026 A 
ATOM     25  C   UNL     1      10.065   9.857   8.194  0.00  0.00    +0.022 A 
ATOM     26  C   UNL     1      12.571   8.984   7.250  0.00  0.00    +0.251 A 
ATOM     27  C   UNL     1      11.177  10.766   8.180  0.00  0.00    +0.007 A 
ATOM     28  C   UNL     1      12.373  10.381   7.727  0.00  0.00    +0.070 A 
ENDBRANCH  15   5
ENDBRANCH  10  15
BRANCH  12  22
ATOM     22  C   UNL     1      12.636   7.167   3.350  0.00  0.00    +0.124 C 
BRANCH  22   7
ATOM      3  O   UNL     1      15.338   6.372   3.870  0.00  0.00    -0.253 OA
ATOM      7  N   UNL     1      13.716   8.017   3.821  0.00  0.00    -0.298 N 
ATOM      8  N   UNL     1      15.828   8.582   4.494  0.00  0.00    -0.269 N 
ATOM     29  C   UNL     1      15.007   7.542   4.047  0.00  0.00    +0.304 C 
ATOM     37  H   UNL     1      13.516   8.997   3.994  0.00  0.00    +0.150 HD
ATOM     38  H   UNL     1      15.394   9.497   4.587  0.00  0.00    +0.156 HD
BRANCH   8  30
ATOM     30  C   UNL     1      17.199   8.521   4.834  0.00  0.00    +0.036 A 
ATOM     31  C   UNL     1      18.141   8.149   3.874  0.00  0.00    +0.038 A 
ATOM     32  C   UNL     1      17.609   8.832   6.130  0.00  0.00    +0.023 A 
ATOM     33  C   UNL     1      19.493   8.090   4.211  0.00  0.00    +0.009 A 
ATOM     34  C   UNL     1      18.961   8.773   6.467  0.00  0.00    +0.003 A 
ATOM     35  C   UNL     1      19.904   8.402   5.507  0.00  0.00    +0.015 A 
BRANCH  33   1
ATOM      1  S   UNL     1      20.698   7.616   2.986  0.00  0.00    -0.129 S 
ATOM     36  C   UNL     1      21.788   6.526   3.945  0.00  0.00    +0.090 C 
ENDBRANCH  33   1
ENDBRANCH   8  30
ENDBRANCH  22   7
ENDBRANCH  12  22
TORSDOF 6
ENDMDL
MODEL 9
REMARK VINA RESULT:      -6.4     29.097     32.259
REMARK  Name = 40780206
REMARK  7 active torsions:
REMARK  status: ('A' for Active; 'I' for Inactive)
REMARK    1  A    between atoms: S_1  and  C_33
REMARK    2  A    between atoms: S_1  and  C_36
REMARK    3  A    between atoms: N_5  and  C_15
REMARK    4  A    between atoms: N_7  and  C_22
REMARK    5  A    between atoms: N_8  and  C_30
REMARK    6  A    between atoms: C_10  and  C_15
REMARK    7  A    between atoms: C_12  and  C_22
REMARK                            x       y       z     vdW  Elec       q    Type
REMARK                         _______ _______ _______ _____ _____    ______ ____
ROOT
ATOM      4  N   UNL     1     -13.385 -11.294  19.641  0.00  0.00    -0.298 NA
ATOM      9  C   UNL     1     -13.188 -10.203  17.287  0.00  0.00    -0.003 C 
ATOM     10  C   UNL     1     -12.862 -11.713  17.225  0.00  0.00    +0.020 C 
ATOM     11  C   UNL     1     -12.248  -9.519  18.296  0.00  0.00    +0.024 C 
ATOM     12  C   UNL     1     -12.502 -10.099  19.705  0.00  0.00    +0.074 C 
ATOM     13  C   UNL     1     -12.852 -12.275  18.664  0.00  0.00    +0.089 C 
ATOM     14  C   UNL     1     -14.621 -10.078  17.842  0.00  0.00    +0.019 C 
ATOM     16  C   UNL     1     -14.719 -10.851  19.170  0.00  0.00    +0.085 C 
ENDROOT
BRANCH  10  15
ATOM     15  C   UNL     1     -11.562 -12.015  16.497  0.00  0.00    +0.089 C 
BRANCH  15   5
ATOM      2  O   UNL     1     -13.541  -6.918  13.672  0.00  0.00    -0.268 OA
ATOM      5  N   UNL     1     -11.213 -10.939  15.573  0.00  0.00    -0.301 NA
ATOM      6  N   UNL     1     -11.579  -8.067  14.232  0.00  0.00    -0.312 N 
ATOM     17  C   UNL     1     -10.900 -10.296  13.169  0.00  0.00    +0.024 C 
ATOM     18  C   UNL     1      -9.472  -9.284  14.882  0.00  0.00    +0.050 C 
ATOM     19  C   UNL     1     -11.315 -11.388  14.179  0.00  0.00    +0.089 C 
ATOM     20  C   UNL     1      -9.875 -10.404  15.869  0.00  0.00    +0.094 C 
ATOM     21  C   UNL     1      -9.479  -9.831  13.458  0.00  0.00    +0.017 C 
ATOM     23  C   UNL     1     -11.836  -9.080  13.201  0.00  0.00    +0.130 C 
ATOM     24  C   UNL     1     -10.415  -8.102  15.008  0.00  0.00    +0.026 A 
ATOM     25  C   UNL     1     -10.148  -7.105  15.870  0.00  0.00    +0.022 A 
ATOM     26  C   UNL     1     -12.508  -7.014  14.335  0.00  0.00    +0.251 A 
ATOM     27  C   UNL     1     -11.056  -6.003  16.025  0.00  0.00    +0.007 A 
ATOM     28  C   UNL     1     -12.188  -5.941  15.318  0.00  0.00    +0.070 A 
ENDBRANCH  15   5
ENDBRANCH  10  15
BRANCH  12  22
ATOM     22  C   UNL     1     -11.193 -10.378  20.449  0.00  0.00    +0.124 C 
BRANCH  22   7
ATOM      3  O   UNL     1      -8.764 -11.837  20.028  0.00  0.00    -0.253 OA
ATOM      7  N   UNL     1     -10.050  -9.953  19.659  0.00  0.00    -0.298 N 
ATOM      8  N   UNL     1      -7.977 -10.069  18.699  0.00  0.00    -0.269 N 
ATOM     29  C   UNL     1      -8.904 -10.732  19.509  0.00  0.00    +0.304 C 
ATOM     37  H   UNL     1     -10.091  -9.047  19.202  0.00  0.00    +0.150 HD
ATOM     38  H   UNL     1      -8.252  -9.155  18.347  0.00  0.00    +0.156 HD
BRANCH   8  30
ATOM     30  C   UNL     1      -6.695 -10.514  18.303  0.00  0.00    +0.036 A 
ATOM     31  C   UNL     1      -6.299 -10.406  16.970  0.00  0.00    +0.038 A 
ATOM     32  C   UNL     1      -5.827 -11.061  19.247  0.00  0.00    +0.023 A 
ATOM     33  C   UNL     1      -5.033 -10.845  16.581  0.00  0.00    +0.009 A 
ATOM     34  C   UNL     1      -4.561 -11.501  18.858  0.00  0.00    +0.003 A 
ATOM     35  C   UNL     1      -4.164 -11.392  17.525  0.00  0.00    +0.015 A 
BRANCH  33   1
ATOM      1  S   UNL     1      -4.525 -10.706  14.879  0.00  0.00    -0.129 S 
ATOM     36  C   UNL     1      -2.996 -11.686  14.871  0.00  0.00    +0.090 C 
ENDBRANCH  33   1
ENDBRANCH   8  30
ENDBRANCH  22   7
ENDBRANCH  12  22
TORSDOF 6
ENDMDL
MODEL 10
REMARK VINA RESULT:      -6.3     29.073     31.532
REMARK  Name = 40780206
REMARK  7 active torsions:
REMARK  status: ('A' for Active; 'I' for Inactive)
REMARK    1  A    between atoms: S_1  and  C_33
REMARK    2  A    between atoms: S_1  and  C_36
REMARK    3  A    between atoms: N_5  and  C_15
REMARK    4  A    between atoms: N_7  and  C_22
REMARK    5  A    between atoms: N_8  and  C_30
REMARK    6  A    between atoms: C_10  and  C_15
REMARK    7  A    between atoms: C_12  and  C_22
REMARK                            x       y       z     vdW  Elec       q    Type
REMARK                         _______ _______ _______ _____ _____    ______ ____
ROOT
ATOM      4  N   UNL     1      -6.574 -10.797  18.094  0.00  0.00    -0.298 NA
ATOM      9  C   UNL     1      -4.934 -12.764  17.635  0.00  0.00    -0.003 C 
ATOM     10  C   UNL     1      -5.162 -11.926  16.356  0.00  0.00    +0.020 C 
ATOM     11  C   UNL     1      -6.288 -13.281  18.154  0.00  0.00    +0.024 C 
ATOM     12  C   UNL     1      -7.176 -12.079  18.549  0.00  0.00    +0.074 C 
ATOM     13  C   UNL     1      -6.248 -10.867  16.648  0.00  0.00    +0.089 C 
ATOM     14  C   UNL     1      -4.371 -11.806  18.703  0.00  0.00    +0.019 C 
ATOM     16  C   UNL     1      -5.310 -10.595  18.843  0.00  0.00    +0.085 C 
ENDROOT
BRANCH  10  15
ATOM     15  C   UNL     1      -5.513 -12.769  15.142  0.00  0.00    +0.089 C 
BRANCH  15   5
ATOM      2  O   UNL     1      -4.149 -13.191   9.156  0.00  0.00    -0.268 OA
ATOM      5  N   UNL     1      -4.445 -12.731  14.146  0.00  0.00    -0.301 NA
ATOM      6  N   UNL     1      -3.277 -12.432  11.192  0.00  0.00    -0.312 N 
ATOM     17  C   UNL     1      -2.558 -13.998  13.087  0.00  0.00    +0.024 C 
ATOM     18  C   UNL     1      -2.368 -11.573  13.378  0.00  0.00    +0.050 C 
ATOM     19  C   UNL     1      -3.732 -14.013  14.089  0.00  0.00    +0.089 C 
ATOM     20  C   UNL     1      -3.525 -11.613  14.403  0.00  0.00    +0.094 C 
ATOM     21  C   UNL     1      -1.584 -12.881  13.440  0.00  0.00    +0.017 C 
ATOM     23  C   UNL     1      -3.025 -13.808  11.638  0.00  0.00    +0.130 C 
ATOM     24  C   UNL     1      -2.908 -11.336  11.979  0.00  0.00    +0.026 A 
ATOM     25  C   UNL     1      -3.048 -10.085  11.506  0.00  0.00    +0.022 A 
ATOM     26  C   UNL     1      -3.818 -12.270   9.903  0.00  0.00    +0.251 A 
ATOM     27  C   UNL     1      -3.597  -9.852  10.199  0.00  0.00    +0.007 A 
ATOM     28  C   UNL     1      -3.980 -10.869   9.423  0.00  0.00    +0.070 A 
ENDBRANCH  15   5
ENDBRANCH  10  15
BRANCH  12  22
ATOM     22  C   UNL     1      -8.617 -12.254  18.063  0.00  0.00    +0.124 C 
BRANCH  22   7
ATOM      3  O   UNL     1      -9.878 -10.628  16.071  0.00  0.00    -0.253 OA
ATOM      7  N   UNL     1      -9.387 -11.043  18.290  0.00  0.00    -0.298 N 
ATOM      8  N   UNL     1     -10.644  -9.203  17.773  0.00  0.00    -0.269 N 
ATOM     29  C   UNL     1      -9.968 -10.313  17.255  0.00  0.00    +0.304 C 
ATOM     37  H   UNL     1      -9.501 -10.717  19.245  0.00  0.00    +0.150 HD
ATOM     38  H   UNL     1     -10.621  -9.086  18.783  0.00  0.00    +0.156 HD
BRANCH   8  30
ATOM     30  C   UNL     1     -11.362  -8.214  17.062  0.00  0.00    +0.036 A 
ATOM     31  C   UNL     1     -12.697  -8.431  16.720  0.00  0.00    +0.038 A 
ATOM     32  C   UNL     1     -10.735  -7.022  16.702  0.00  0.00    +0.023 A 
ATOM     33  C   UNL     1     -13.405  -7.455  16.019  0.00  0.00    +0.009 A 
ATOM     34  C   UNL     1     -11.442  -6.045  16.000  0.00  0.00    +0.003 A 
ATOM     35  C   UNL     1     -12.777  -6.261  15.659  0.00  0.00    +0.015 A 
BRANCH  33   1
ATOM      1  S   UNL     1     -15.110  -7.729  15.583  0.00  0.00    -0.129 S 
ATOM     36  C   UNL     1     -15.975  -7.004  17.005  0.00  0.00    +0.090 C 
ENDBRANCH  33   1
ENDBRANCH   8  30
ENDBRANCH  22   7
ENDBRANCH  12  22
TORSDOF 6
ENDMDL
