MODEL 1
REMARK VINA RESULT:      -7.8      0.000      0.000
REMARK  Name = 7142823
REMARK  2 active torsions:
REMARK  status: ('A' for Active; 'I' for Inactive)
REMARK    1  A    between atoms: N_8  and  C_19
REMARK    2  A    between atoms: C_23  and  C_25
REMARK                            x       y       z     vdW  Elec       q    Type
REMARK                         _______ _______ _______ _____ _____    ______ ____
ROOT
ATOM      2  O   UNL     1     -10.599  -9.651  14.258  0.00  0.00    -0.266 OA
ATOM      4  N   UNL     1     -13.146  -5.983  11.941  0.00  0.00    -0.299 N 
ATOM      5  N   UNL     1     -12.159  -7.912  14.295  0.00  0.00    -0.310 N 
ATOM      6  N   UNL     1     -12.058  -4.088  11.053  0.00  0.00    -0.223 NA
ATOM      7  N   UNL     1     -12.019  -6.192   9.879  0.00  0.00    -0.223 NA
ATOM      9  C   UNL     1     -14.314  -7.953  12.915  0.00  0.00    +0.027 C 
ATOM     10  C   UNL     1     -13.811  -6.011  14.328  0.00  0.00    +0.054 C 
ATOM     11  C   UNL     1     -14.875  -7.057  14.009  0.00  0.00    +0.018 C 
ATOM     12  C   UNL     1     -13.998  -7.140  11.645  0.00  0.00    +0.113 C 
ATOM     13  C   UNL     1     -13.081  -8.688  13.456  0.00  0.00    +0.130 C 
ATOM     14  C   UNL     1     -13.549  -5.145  13.080  0.00  0.00    +0.117 C 
ATOM     15  C   UNL     1     -12.520  -6.657  14.793  0.00  0.00    +0.027 A 
ATOM     16  C   UNL     1     -11.713  -6.014  15.654  0.00  0.00    +0.024 A 
ATOM     17  C   UNL     1     -10.950  -8.540  14.657  0.00  0.00    +0.273 A 
ATOM     18  C   UNL     1     -12.384  -5.402  10.925  0.00  0.00    +0.218 A 
ATOM     19  C   UNL     1     -10.067  -7.780  15.599  0.00  0.00    +0.099 A 
ATOM     20  C   UNL     1     -10.462  -6.589  16.062  0.00  0.00    +0.030 A 
ATOM     21  C   UNL     1     -11.320  -3.559  10.054  0.00  0.00    +0.116 A 
ATOM     22  C   UNL     1     -11.283  -5.600   8.917  0.00  0.00    +0.116 A 
ATOM     24  C   UNL     1     -10.900  -4.274   8.951  0.00  0.00    +0.039 A 
ENDROOT
BRANCH  19   8
ATOM      3  O   UNL     1      -9.595  -9.361  17.927  0.00  0.00    -0.270 OA
ATOM      8  N   UNL     1      -8.880  -8.345  15.960  0.00  0.00    -0.277 N 
ATOM     23  C   UNL     1      -8.714  -9.106  17.109  0.00  0.00    +0.248 C 
ATOM     31  H   UNL     1      -8.079  -8.054  15.412  0.00  0.00    +0.155 HD
BRANCH  23  25
ATOM      1  F   UNL     1      -3.597 -11.191  17.914  0.00  0.00    -0.205 F 
ATOM     25  C   UNL     1      -7.352  -9.660  17.323  0.00  0.00    +0.037 A 
ATOM     26  C   UNL     1      -6.420  -9.547  16.313  0.00  0.00    +0.016 A 
ATOM     27  C   UNL     1      -7.064 -10.272  18.525  0.00  0.00    +0.016 A 
ATOM     28  C   UNL     1      -5.141 -10.068  16.514  0.00  0.00    +0.039 A 
ATOM     29  C   UNL     1      -5.786 -10.793  18.727  0.00  0.00    +0.039 A 
ATOM     30  C   UNL     1      -4.825 -10.691  17.721  0.00  0.00    +0.123 A 
ENDBRANCH  23  25
ENDBRANCH  19   8
TORSDOF 2
ENDMDL
MODEL 2
REMARK VINA RESULT:      -7.8     29.044     31.423
REMARK  Name = 7142823
REMARK  2 active torsions:
REMARK  status: ('A' for Active; 'I' for Inactive)
REMARK    1  A    between atoms: N_8  and  C_19
REMARK    2  A    between atoms: C_23  and  C_25
REMARK                            x       y       z     vdW  Elec       q    Type
REMARK                         _______ _______ _______ _____ _____    ______ ____
ROOT
ATOM      2  O   UNL     1      15.734   6.151  18.982  0.00  0.00    -0.266 OA
ATOM      4  N   UNL     1      13.137  10.396  18.243  0.00  0.00    -0.299 N 
ATOM      5  N   UNL     1      14.040   7.640  19.593  0.00  0.00    -0.310 N 
ATOM      6  N   UNL     1      14.148  12.518  18.440  0.00  0.00    -0.223 NA
ATOM      7  N   UNL     1      14.478  11.176  16.466  0.00  0.00    -0.223 NA
ATOM      9  C   UNL     1      12.044   8.166  18.079  0.00  0.00    +0.027 C 
ATOM     10  C   UNL     1      12.241   9.271  20.261  0.00  0.00    +0.054 C 
ATOM     11  C   UNL     1      11.305   8.453  19.378  0.00  0.00    +0.018 C 
ATOM     12  C   UNL     1      12.417   9.475  17.357  0.00  0.00    +0.113 C 
ATOM     13  C   UNL     1      13.274   7.301  18.387  0.00  0.00    +0.130 C 
ATOM     14  C   UNL     1      12.554  10.616  19.575  0.00  0.00    +0.117 C 
ATOM     15  C   UNL     1      13.528   8.523  20.548  0.00  0.00    +0.027 A 
ATOM     16  C   UNL     1      14.189   8.728  21.701  0.00  0.00    +0.024 A 
ATOM     17  C   UNL     1      15.254   6.951  19.786  0.00  0.00    +0.273 A 
ATOM     18  C   UNL     1      13.946  11.396  17.699  0.00  0.00    +0.218 A 
ATOM     19  C   UNL     1      15.972   7.227  21.072  0.00  0.00    +0.099 A 
ATOM     20  C   UNL     1      15.437   8.067  21.964  0.00  0.00    +0.030 A 
ATOM     21  C   UNL     1      14.935  13.463  17.884  0.00  0.00    +0.116 A 
ATOM     22  C   UNL     1      15.255  12.161  15.970  0.00  0.00    +0.116 A 
ATOM     24  C   UNL     1      15.522  13.338  16.641  0.00  0.00    +0.039 A 
ENDROOT
BRANCH  19   8
ATOM      3  O   UNL     1      18.570   8.387  20.839  0.00  0.00    -0.270 OA
ATOM      8  N   UNL     1      17.160   6.593  21.290  0.00  0.00    -0.277 N 
ATOM     23  C   UNL     1      18.394   7.215  21.160  0.00  0.00    +0.248 C 
ATOM     31  H   UNL     1      17.096   5.589  21.413  0.00  0.00    +0.155 HD
BRANCH  23  25
ATOM      1  F   UNL     1      22.841   4.035  22.295  0.00  0.00    -0.205 F 
ATOM     25  C   UNL     1      19.577   6.368  21.462  0.00  0.00    +0.037 A 
ATOM     26  C   UNL     1      20.264   6.579  22.640  0.00  0.00    +0.016 A 
ATOM     27  C   UNL     1      19.952   5.399  20.555  0.00  0.00    +0.016 A 
ATOM     28  C   UNL     1      21.375   5.785  22.924  0.00  0.00    +0.039 A 
ATOM     29  C   UNL     1      21.063   4.604  20.838  0.00  0.00    +0.039 A 
ATOM     30  C   UNL     1      21.775   4.798  22.022  0.00  0.00    +0.123 A 
ENDBRANCH  23  25
ENDBRANCH  19   8
TORSDOF 2
ENDMDL
MODEL 3
REMARK VINA RESULT:      -7.6      1.441      1.885
REMARK  Name = 7142823
REMARK  2 active torsions:
REMARK  status: ('A' for Active; 'I' for Inactive)
REMARK    1  A    between atoms: N_8  and  C_19
REMARK    2  A    between atoms: C_23  and  C_25
REMARK                            x       y       z     vdW  Elec       q    Type
REMARK                         _______ _______ _______ _____ _____    ______ ____
ROOT
ATOM      2  O   UNL     1      -9.721 -10.269  14.408  0.00  0.00    -0.266 OA
ATOM      4  N   UNL     1     -13.208  -6.715  13.690  0.00  0.00    -0.299 N 
ATOM      5  N   UNL     1     -11.476  -8.944  15.195  0.00  0.00    -0.310 N 
ATOM      6  N   UNL     1     -12.621  -4.478  13.224  0.00  0.00    -0.223 NA
ATOM      7  N   UNL     1     -12.521  -6.161  11.502  0.00  0.00    -0.223 NA
ATOM      9  C   UNL     1     -13.843  -9.060  14.228  0.00  0.00    +0.027 C 
ATOM     10  C   UNL     1     -13.346  -7.484  16.041  0.00  0.00    +0.054 C 
ATOM     11  C   UNL     1     -14.287  -8.603  15.610  0.00  0.00    +0.018 C 
ATOM     12  C   UNL     1     -13.923  -7.904  13.214  0.00  0.00    +0.113 C 
ATOM     13  C   UNL     1     -12.429  -9.648  14.328  0.00  0.00    +0.130 C 
ATOM     14  C   UNL     1     -13.482  -6.293  15.071  0.00  0.00    +0.117 C 
ATOM     15  C   UNL     1     -11.905  -7.956  16.086  0.00  0.00    +0.027 A 
ATOM     16  C   UNL     1     -11.039  -7.407  16.954  0.00  0.00    +0.024 A 
ATOM     17  C   UNL     1     -10.140  -9.390  15.161  0.00  0.00    +0.273 A 
ATOM     18  C   UNL     1     -12.770  -5.754  12.776  0.00  0.00    +0.218 A 
ATOM     19  C   UNL     1      -9.201  -8.735  16.127  0.00  0.00    +0.099 A 
ATOM     20  C   UNL     1      -9.659  -7.805  16.971  0.00  0.00    +0.030 A 
ATOM     21  C   UNL     1     -12.196  -3.576  12.314  0.00  0.00    +0.116 A 
ATOM     22  C   UNL     1     -12.098  -5.209  10.646  0.00  0.00    +0.116 A 
ATOM     24  C   UNL     1     -11.916  -3.887  10.999  0.00  0.00    +0.039 A 
ENDROOT
BRANCH  19   8
ATOM      3  O   UNL     1      -7.967 -10.552  17.949  0.00  0.00    -0.270 OA
ATOM      8  N   UNL     1      -7.894  -9.126  16.114  0.00  0.00    -0.277 N 
ATOM     23  C   UNL     1      -7.353 -10.016  17.030  0.00  0.00    +0.248 C 
ATOM     31  H   UNL     1      -7.296  -8.611  15.477  0.00  0.00    +0.155 HD
BRANCH  23  25
ATOM      1  F   UNL     1      -1.951 -11.239  16.321  0.00  0.00    -0.205 F 
ATOM     25  C   UNL     1      -5.915 -10.341  16.842  0.00  0.00    +0.037 A 
ATOM     26  C   UNL     1      -5.340 -10.130  15.606  0.00  0.00    +0.016 A 
ATOM     27  C   UNL     1      -5.201 -10.844  17.909  0.00  0.00    +0.016 A 
ATOM     28  C   UNL     1      -3.991 -10.435  15.428  0.00  0.00    +0.039 A 
ATOM     29  C   UNL     1      -3.851 -11.150  17.732  0.00  0.00    +0.039 A 
ATOM     30  C   UNL     1      -3.247 -10.946  16.491  0.00  0.00    +0.123 A 
ENDBRANCH  23  25
ENDBRANCH  19   8
TORSDOF 2
ENDMDL
MODEL 4
REMARK VINA RESULT:      -7.3      6.152      9.879
REMARK  Name = 7142823
REMARK  2 active torsions:
REMARK  status: ('A' for Active; 'I' for Inactive)
REMARK    1  A    between atoms: N_8  and  C_19
REMARK    2  A    between atoms: C_23  and  C_25
REMARK                            x       y       z     vdW  Elec       q    Type
REMARK                         _______ _______ _______ _____ _____    ______ ____
ROOT
ATOM      2  O   UNL     1      -6.632 -10.136  14.270  0.00  0.00    -0.266 OA
ATOM      4  N   UNL     1      -2.675 -13.057  13.216  0.00  0.00    -0.299 N 
ATOM      5  N   UNL     1      -4.328 -10.516  14.239  0.00  0.00    -0.310 N 
ATOM      6  N   UNL     1      -2.319 -15.110  14.322  0.00  0.00    -0.223 NA
ATOM      7  N   UNL     1      -3.946 -14.931  12.553  0.00  0.00    -0.223 NA
ATOM      9  C   UNL     1      -3.009 -10.871  12.074  0.00  0.00    +0.027 C 
ATOM     10  C   UNL     1      -1.847 -10.955  14.233  0.00  0.00    +0.054 C 
ATOM     11  C   UNL     1      -1.832 -10.304  12.854  0.00  0.00    +0.018 C 
ATOM     12  C   UNL     1      -2.884 -12.399  11.922  0.00  0.00    +0.113 C 
ATOM     13  C   UNL     1      -4.313 -10.462  12.772  0.00  0.00    +0.130 C 
ATOM     14  C   UNL     1      -1.644 -12.476  14.089  0.00  0.00    +0.117 C 
ATOM     15  C   UNL     1      -3.144 -10.672  14.967  0.00  0.00    +0.027 A 
ATOM     16  C   UNL     1      -3.162 -10.600  16.309  0.00  0.00    +0.024 A 
ATOM     17  C   UNL     1      -5.569 -10.296  14.869  0.00  0.00    +0.273 A 
ATOM     18  C   UNL     1      -2.990 -14.409  13.368  0.00  0.00    +0.218 A 
ATOM     19  C   UNL     1      -5.550 -10.248  16.366  0.00  0.00    +0.099 A 
ATOM     20  C   UNL     1      -4.391 -10.386  17.020  0.00  0.00    +0.030 A 
ATOM     21  C   UNL     1      -2.649 -16.413  14.443  0.00  0.00    +0.116 A 
ATOM     22  C   UNL     1      -4.226 -16.238  12.728  0.00  0.00    +0.116 A 
ATOM     24  C   UNL     1      -3.604 -17.038  13.666  0.00  0.00    +0.039 A 
ENDROOT
BRANCH  19   8
ATOM      3  O   UNL     1      -7.282 -12.288  17.359  0.00  0.00    -0.270 OA
ATOM      8  N   UNL     1      -6.734 -10.054  17.015  0.00  0.00    -0.277 N 
ATOM     23  C   UNL     1      -7.533 -11.091  17.476  0.00  0.00    +0.248 C 
ATOM     31  H   UNL     1      -7.074  -9.099  17.014  0.00  0.00    +0.155 HD
BRANCH  23  25
ATOM      1  F   UNL     1     -12.200  -9.553  20.126  0.00  0.00    -0.205 F 
ATOM     25  C   UNL     1      -8.775 -10.682  18.180  0.00  0.00    +0.037 A 
ATOM     26  C   UNL     1      -9.625  -9.784  17.568  0.00  0.00    +0.016 A 
ATOM     27  C   UNL     1      -9.039 -11.212  19.426  0.00  0.00    +0.016 A 
ATOM     28  C   UNL     1     -10.791  -9.400  18.229  0.00  0.00    +0.039 A 
ATOM     29  C   UNL     1     -10.205 -10.828  20.089  0.00  0.00    +0.039 A 
ATOM     30  C   UNL     1     -11.081  -9.922  19.490  0.00  0.00    +0.123 A 
ENDBRANCH  23  25
ENDBRANCH  19   8
TORSDOF 2
ENDMDL
MODEL 5
REMARK VINA RESULT:      -7.3     29.855     32.461
REMARK  Name = 7142823
REMARK  2 active torsions:
REMARK  status: ('A' for Active; 'I' for Inactive)
REMARK    1  A    between atoms: N_8  and  C_19
REMARK    2  A    between atoms: C_23  and  C_25
REMARK                            x       y       z     vdW  Elec       q    Type
REMARK                         _______ _______ _______ _____ _____    ______ ____
ROOT
ATOM      2  O   UNL     1      17.255   5.597  20.153  0.00  0.00    -0.266 OA
ATOM      4  N   UNL     1      14.154   9.412  19.083  0.00  0.00    -0.299 N 
ATOM      5  N   UNL     1      16.006   7.458  20.812  0.00  0.00    -0.310 N 
ATOM      6  N   UNL     1      14.816  11.192  17.684  0.00  0.00    -0.223 NA
ATOM      7  N   UNL     1      14.169   9.068  16.749  0.00  0.00    -0.223 NA
ATOM      9  C   UNL     1      13.457   7.565  20.598  0.00  0.00    +0.027 C 
ATOM     10  C   UNL     1      14.684   9.488  21.502  0.00  0.00    +0.054 C 
ATOM     11  C   UNL     1      13.532   8.527  21.775  0.00  0.00    +0.018 C 
ATOM     12  C   UNL     1      13.193   8.323  19.283  0.00  0.00    +0.113 C 
ATOM     13  C   UNL     1      14.752   6.743  20.544  0.00  0.00    +0.130 C 
ATOM     14  C   UNL     1      14.385  10.304  20.228  0.00  0.00    +0.117 C 
ATOM     15  C   UNL     1      16.000   8.749  21.348  0.00  0.00    +0.027 A 
ATOM     16  C   UNL     1      17.155   9.342  21.697  0.00  0.00    +0.024 A 
ATOM     17  C   UNL     1      17.201   6.741  20.605  0.00  0.00    +0.273 A 
ATOM     18  C   UNL     1      14.387   9.907  17.797  0.00  0.00    +0.218 A 
ATOM     19  C   UNL     1      18.468   7.447  20.983  0.00  0.00    +0.099 A 
ATOM     20  C   UNL     1      18.412   8.675  21.508  0.00  0.00    +0.030 A 
ATOM     21  C   UNL     1      15.032  11.638  16.428  0.00  0.00    +0.116 A 
ATOM     22  C   UNL     1      14.404   9.577  15.522  0.00  0.00    +0.116 A 
ATOM     24  C   UNL     1      14.841  10.868  15.298  0.00  0.00    +0.039 A 
ENDROOT
BRANCH  19   8
ATOM      3  O   UNL     1      20.004   6.092  22.971  0.00  0.00    -0.270 OA
ATOM      8  N   UNL     1      19.648   6.793  20.782  0.00  0.00    -0.277 N 
ATOM     23  C   UNL     1      20.349   6.152  21.793  0.00  0.00    +0.248 C 
ATOM     31  H   UNL     1      20.066   6.928  19.868  0.00  0.00    +0.155 HD
BRANCH  23  25
ATOM      1  F   UNL     1      25.064   3.603  20.229  0.00  0.00    -0.205 F 
ATOM     25  C   UNL     1      21.604   5.473  21.378  0.00  0.00    +0.037 A 
ATOM     26  C   UNL     1      22.647   6.238  20.897  0.00  0.00    +0.016 A 
ATOM     27  C   UNL     1      21.686   4.101  21.485  0.00  0.00    +0.016 A 
ATOM     28  C   UNL     1      23.825   5.602  20.506  0.00  0.00    +0.039 A 
ATOM     29  C   UNL     1      22.864   3.464  21.094  0.00  0.00    +0.039 A 
ATOM     30  C   UNL     1      23.933   4.214  20.604  0.00  0.00    +0.123 A 
ENDBRANCH  23  25
ENDBRANCH  19   8
TORSDOF 2
ENDMDL
MODEL 6
REMARK VINA RESULT:      -7.2     15.670     17.176
REMARK  Name = 7142823
REMARK  2 active torsions:
REMARK  status: ('A' for Active; 'I' for Inactive)
REMARK    1  A    between atoms: N_8  and  C_19
REMARK    2  A    between atoms: C_23  and  C_25
REMARK                            x       y       z     vdW  Elec       q    Type
REMARK                         _______ _______ _______ _____ _____    ______ ____
ROOT
ATOM      2  O   UNL     1     -15.028   8.354  19.955  0.00  0.00    -0.266 OA
ATOM      4  N   UNL     1     -11.440   9.667  16.684  0.00  0.00    -0.299 N 
ATOM      5  N   UNL     1     -12.895   9.184  19.491  0.00  0.00    -0.310 N 
ATOM      6  N   UNL     1     -10.390   8.078  15.291  0.00  0.00    -0.223 NA
ATOM      7  N   UNL     1     -12.590   8.910  14.768  0.00  0.00    -0.223 NA
ATOM      9  C   UNL     1     -12.504  11.347  18.179  0.00  0.00    +0.027 C 
ATOM     10  C   UNL     1     -10.584  10.045  18.978  0.00  0.00    +0.054 C 
ATOM     11  C   UNL     1     -11.207  11.437  18.971  0.00  0.00    +0.018 C 
ATOM     12  C   UNL     1     -12.234  10.899  16.730  0.00  0.00    +0.113 C 
ATOM     13  C   UNL     1     -13.469  10.404  18.909  0.00  0.00    +0.130 C 
ATOM     14  C   UNL     1     -10.241   9.625  17.534  0.00  0.00    +0.117 C 
ATOM     15  C   UNL     1     -11.511   9.024  19.609  0.00  0.00    +0.027 A 
ATOM     16  C   UNL     1     -11.007   7.956  20.251  0.00  0.00    +0.024 A 
ATOM     17  C   UNL     1     -13.803   8.245  20.019  0.00  0.00    +0.273 A 
ATOM     18  C   UNL     1     -11.474   8.860  15.544  0.00  0.00    +0.218 A 
ATOM     19  C   UNL     1     -13.201   7.057  20.704  0.00  0.00    +0.099 A 
ATOM     20  C   UNL     1     -11.872   6.954  20.807  0.00  0.00    +0.030 A 
ATOM     21  C   UNL     1     -10.457   7.311  14.183  0.00  0.00    +0.116 A 
ATOM     22  C   UNL     1     -12.591   8.117  13.677  0.00  0.00    +0.116 A 
ATOM     24  C   UNL     1     -11.543   7.288  13.330  0.00  0.00    +0.039 A 
ENDROOT
BRANCH  19   8
ATOM      3  O   UNL     1     -14.582   7.205  23.197  0.00  0.00    -0.270 OA
ATOM      8  N   UNL     1     -14.047   6.116  21.214  0.00  0.00    -0.277 N 
ATOM     23  C   UNL     1     -14.690   6.247  22.436  0.00  0.00    +0.248 C 
ATOM     31  H   UNL     1     -14.067   5.236  20.710  0.00  0.00    +0.155 HD
BRANCH  23  25
ATOM      1  F   UNL     1     -18.077   2.040  23.850  0.00  0.00    -0.205 F 
ATOM     25  C   UNL     1     -15.592   5.128  22.813  0.00  0.00    +0.037 A 
ATOM     26  C   UNL     1     -15.236   4.311  23.866  0.00  0.00    +0.016 A 
ATOM     27  C   UNL     1     -16.755   4.940  22.097  0.00  0.00    +0.016 A 
ATOM     28  C   UNL     1     -16.082   3.260  24.220  0.00  0.00    +0.039 A 
ATOM     29  C   UNL     1     -17.602   3.889  22.449  0.00  0.00    +0.039 A 
ATOM     30  C   UNL     1     -17.265   3.049  23.511  0.00  0.00    +0.123 A 
ENDBRANCH  23  25
ENDBRANCH  19   8
TORSDOF 2
ENDMDL
MODEL 7
REMARK VINA RESULT:      -7.2     29.025     31.622
REMARK  Name = 7142823
REMARK  2 active torsions:
REMARK  status: ('A' for Active; 'I' for Inactive)
REMARK    1  A    between atoms: N_8  and  C_19
REMARK    2  A    between atoms: C_23  and  C_25
REMARK                            x       y       z     vdW  Elec       q    Type
REMARK                         _______ _______ _______ _____ _____    ______ ____
ROOT
ATOM      2  O   UNL     1      13.430  11.780  18.403  0.00  0.00    -0.266 OA
ATOM      4  N   UNL     1      14.894   7.892  21.240  0.00  0.00    -0.299 N 
ATOM      5  N   UNL     1      13.000   9.725  19.427  0.00  0.00    -0.310 N 
ATOM      6  N   UNL     1      16.605   6.424  20.544  0.00  0.00    -0.223 NA
ATOM      7  N   UNL     1      17.136   8.594  21.448  0.00  0.00    -0.223 NA
ATOM      9  C   UNL     1      13.054   9.402  21.966  0.00  0.00    +0.027 C 
ATOM     10  C   UNL     1      12.561   7.492  20.507  0.00  0.00    +0.054 C 
ATOM     11  C   UNL     1      12.058   8.281  21.711  0.00  0.00    +0.018 C 
ATOM     12  C   UNL     1      14.454   8.836  22.272  0.00  0.00    +0.113 C 
ATOM     13  C   UNL     1      13.061  10.346  20.756  0.00  0.00    +0.130 C 
ATOM     14  C   UNL     1      13.927   6.859  20.838  0.00  0.00    +0.117 C 
ATOM     15  C   UNL     1      12.681   8.372  19.277  0.00  0.00    +0.027 A 
ATOM     16  C   UNL     1      12.512   7.850  18.051  0.00  0.00    +0.024 A 
ATOM     17  C   UNL     1      13.168  10.580  18.320  0.00  0.00    +0.273 A 
ATOM     18  C   UNL     1      16.256   7.628  21.072  0.00  0.00    +0.218 A 
ATOM     19  C   UNL     1      12.996   9.953  16.970  0.00  0.00    +0.099 A 
ATOM     20  C   UNL     1      12.676   8.659  16.875  0.00  0.00    +0.030 A 
ATOM     21  C   UNL     1      17.929   6.203  20.395  0.00  0.00    +0.116 A 
ATOM     22  C   UNL     1      18.442   8.308  21.272  0.00  0.00    +0.116 A 
ATOM     24  C   UNL     1      18.902   7.117  20.745  0.00  0.00    +0.039 A 
ENDROOT
BRANCH  19   8
ATOM      3  O   UNL     1      15.441  10.367  15.556  0.00  0.00    -0.270 OA
ATOM      8  N   UNL     1      13.168  10.743  15.871  0.00  0.00    -0.277 N 
ATOM     23  C   UNL     1      14.386  10.904  15.227  0.00  0.00    +0.248 C 
ATOM     31  H   UNL     1      12.375  11.330  15.635  0.00  0.00    +0.155 HD
BRANCH  23  25
ATOM      1  F   UNL     1      14.334  14.224  10.738  0.00  0.00    -0.205 F 
ATOM     25  C   UNL     1      14.372  11.786  14.032  0.00  0.00    +0.037 A 
ATOM     26  C   UNL     1      15.487  11.828  13.220  0.00  0.00    +0.016 A 
ATOM     27  C   UNL     1      13.245  12.538  13.773  0.00  0.00    +0.016 A 
ATOM     28  C   UNL     1      15.474  12.658  12.099  0.00  0.00    +0.039 A 
ATOM     29  C   UNL     1      13.231  13.368  12.651  0.00  0.00    +0.039 A 
ATOM     30  C   UNL     1      14.346  13.428  11.815  0.00  0.00    +0.123 A 
ENDBRANCH  23  25
ENDBRANCH  19   8
TORSDOF 2
ENDMDL
MODEL 8
REMARK VINA RESULT:      -7.1      6.930     11.201
REMARK  Name = 7142823
REMARK  2 active torsions:
REMARK  status: ('A' for Active; 'I' for Inactive)
REMARK    1  A    between atoms: N_8  and  C_19
REMARK    2  A    between atoms: C_23  and  C_25
REMARK                            x       y       z     vdW  Elec       q    Type
REMARK                         _______ _______ _______ _____ _____    ______ ____
ROOT
ATOM      2  O   UNL     1      -4.895 -12.639  10.040  0.00  0.00    -0.266 OA
ATOM      4  N   UNL     1      -3.516 -12.428  14.874  0.00  0.00    -0.299 N 
ATOM      5  N   UNL     1      -3.257 -12.381  11.685  0.00  0.00    -0.310 N 
ATOM      6  N   UNL     1      -4.267 -10.708  16.303  0.00  0.00    -0.223 NA
ATOM      7  N   UNL     1      -5.707 -12.556  15.740  0.00  0.00    -0.223 NA
ATOM      9  C   UNL     1      -2.678 -14.222  13.367  0.00  0.00    +0.027 C 
ATOM     10  C   UNL     1      -1.507 -12.069  13.470  0.00  0.00    +0.054 C 
ATOM     11  C   UNL     1      -1.300 -13.578  13.397  0.00  0.00    +0.018 C 
ATOM     12  C   UNL     1      -3.476 -13.875  14.638  0.00  0.00    +0.113 C 
ATOM     13  C   UNL     1      -3.404 -13.785  12.088  0.00  0.00    +0.130 C 
ATOM     14  C   UNL     1      -2.237 -11.711  14.780  0.00  0.00    +0.117 C 
ATOM     15  C   UNL     1      -2.296 -11.558  12.280  0.00  0.00    +0.027 A 
ATOM     16  C   UNL     1      -2.095 -10.312  11.818  0.00  0.00    +0.024 A 
ATOM     17  C   UNL     1      -4.050 -11.944  10.606  0.00  0.00    +0.273 A 
ATOM     18  C   UNL     1      -4.529 -11.880  15.665  0.00  0.00    +0.218 A 
ATOM     19  C   UNL     1      -3.813 -10.541  10.138  0.00  0.00    +0.099 A 
ATOM     20  C   UNL     1      -2.871  -9.795  10.726  0.00  0.00    +0.030 A 
ATOM     21  C   UNL     1      -5.268 -10.207  17.058  0.00  0.00    +0.116 A 
ATOM     22  C   UNL     1      -6.663 -12.000  16.511  0.00  0.00    +0.116 A 
ATOM     24  C   UNL     1      -6.499 -10.815  17.201  0.00  0.00    +0.039 A 
ENDROOT
BRANCH  19   8
ATOM      3  O   UNL     1      -6.372  -9.297  10.357  0.00  0.00    -0.270 OA
ATOM      8  N   UNL     1      -4.572 -10.074   9.105  0.00  0.00    -0.277 N 
ATOM     23  C   UNL     1      -5.813  -9.476   9.278  0.00  0.00    +0.248 C 
ATOM     31  H   UNL     1      -4.241 -10.323   8.180  0.00  0.00    +0.155 HD
BRANCH  23  25
ATOM      1  F   UNL     1      -8.322  -7.717   4.610  0.00  0.00    -0.205 F 
ATOM     25  C   UNL     1      -6.481  -9.009   8.036  0.00  0.00    +0.037 A 
ATOM     26  C   UNL     1      -6.148  -9.602   6.836  0.00  0.00    +0.016 A 
ATOM     27  C   UNL     1      -7.412  -7.996   8.122  0.00  0.00    +0.016 A 
ATOM     28  C   UNL     1      -6.774  -9.163   5.670  0.00  0.00    +0.039 A 
ATOM     29  C   UNL     1      -8.039  -7.556   6.956  0.00  0.00    +0.039 A 
ATOM     30  C   UNL     1      -7.720  -8.139   5.730  0.00  0.00    +0.123 A 
ENDBRANCH  23  25
ENDBRANCH  19   8
TORSDOF 2
ENDMDL
MODEL 9
REMARK VINA RESULT:      -7.0     28.136     30.108
REMARK  Name = 7142823
REMARK  2 active torsions:
REMARK  status: ('A' for Active; 'I' for Inactive)
REMARK    1  A    between atoms: N_8  and  C_19
REMARK    2  A    between atoms: C_23  and  C_25
REMARK                            x       y       z     vdW  Elec       q    Type
REMARK                         _______ _______ _______ _____ _____    ______ ____
ROOT
ATOM      2  O   UNL     1      14.280   6.465   7.251  0.00  0.00    -0.266 OA
ATOM      4  N   UNL     1       9.980   6.340   4.642  0.00  0.00    -0.299 N 
ATOM      5  N   UNL     1      12.202   7.378   6.697  0.00  0.00    -0.310 N 
ATOM      6  N   UNL     1       9.948   6.558   2.293  0.00  0.00    -0.223 NA
ATOM      7  N   UNL     1      10.566   4.471   3.328  0.00  0.00    -0.223 NA
ATOM      9  C   UNL     1       9.993   6.158   7.124  0.00  0.00    +0.027 C 
ATOM     10  C   UNL     1       9.975   8.370   6.063  0.00  0.00    +0.054 C 
ATOM     11  C   UNL     1       9.392   7.553   7.211  0.00  0.00    +0.018 C 
ATOM     12  C   UNL     1       9.635   5.487   5.784  0.00  0.00    +0.113 C 
ATOM     13  C   UNL     1      11.509   6.253   7.339  0.00  0.00    +0.130 C 
ATOM     14  C   UNL     1       9.553   7.745   4.718  0.00  0.00    +0.117 C 
ATOM     15  C   UNL     1      11.488   8.447   6.148  0.00  0.00    +0.027 A 
ATOM     16  C   UNL     1      12.140   9.521   5.672  0.00  0.00    +0.024 A 
ATOM     17  C   UNL     1      13.610   7.374   6.761  0.00  0.00    +0.273 A 
ATOM     18  C   UNL     1      10.170   5.771   3.381  0.00  0.00    +0.218 A 
ATOM     19  C   UNL     1      14.299   8.579   6.197  0.00  0.00    +0.099 A 
ATOM     20  C   UNL     1      13.574   9.585   5.696  0.00  0.00    +0.030 A 
ATOM     21  C   UNL     1      10.142   5.976   1.091  0.00  0.00    +0.116 A 
ATOM     22  C   UNL     1      10.741   3.953   2.095  0.00  0.00    +0.116 A 
ATOM     24  C   UNL     1      10.543   4.665   0.929  0.00  0.00    +0.039 A 
ENDROOT
BRANCH  19   8
ATOM      3  O   UNL     1      16.042   7.955   4.024  0.00  0.00    -0.270 OA
ATOM      8  N   UNL     1      15.663   8.607   6.224  0.00  0.00    -0.277 N 
ATOM     23  C   UNL     1      16.456   8.292   5.130  0.00  0.00    +0.248 C 
ATOM     31  H   UNL     1      16.073   8.731   7.143  0.00  0.00    +0.155 HD
BRANCH  23  25
ATOM      1  F   UNL     1      21.965   8.712   5.936  0.00  0.00    -0.205 F 
ATOM     25  C   UNL     1      17.922   8.403   5.345  0.00  0.00    +0.037 A 
ATOM     26  C   UNL     1      18.386   8.828   6.573  0.00  0.00    +0.016 A 
ATOM     27  C   UNL     1      18.773   8.078   4.309  0.00  0.00    +0.016 A 
ATOM     28  C   UNL     1      19.762   8.933   6.774  0.00  0.00    +0.039 A 
ATOM     29  C   UNL     1      20.150   8.183   4.510  0.00  0.00    +0.039 A 
ATOM     30  C   UNL     1      20.644   8.611   5.742  0.00  0.00    +0.123 A 
ENDBRANCH  23  25
ENDBRANCH  19   8
TORSDOF 2
ENDMDL
MODEL 10
REMARK VINA RESULT:      -6.9     26.628     29.341
REMARK  Name = 7142823
REMARK  2 active torsions:
REMARK  status: ('A' for Active; 'I' for Inactive)
REMARK    1  A    between atoms: N_8  and  C_19
REMARK    2  A    between atoms: C_23  and  C_25
REMARK                            x       y       z     vdW  Elec       q    Type
REMARK                         _______ _______ _______ _____ _____    ______ ____
ROOT
ATOM      2  O   UNL     1      12.716   7.146   1.764  0.00  0.00    -0.266 OA
ATOM      4  N   UNL     1      12.290   4.879  -2.706  0.00  0.00    -0.299 N 
ATOM      5  N   UNL     1      13.330   5.466   0.262  0.00  0.00    -0.310 N 
ATOM      6  N   UNL     1      10.294   3.811  -3.370  0.00  0.00    -0.223 NA
ATOM      7  N   UNL     1      10.497   6.210  -3.466  0.00  0.00    -0.223 NA
ATOM      9  C   UNL     1      14.419   5.959  -2.002  0.00  0.00    +0.027 C 
ATOM     10  C   UNL     1      13.955   3.638  -1.355  0.00  0.00    +0.054 C 
ATOM     11  C   UNL     1      15.046   4.581  -1.851  0.00  0.00    +0.018 C 
ATOM     12  C   UNL     1      13.264   5.929  -3.022  0.00  0.00    +0.113 C 
ATOM     13  C   UNL     1      13.962   6.453  -0.623  0.00  0.00    +0.130 C 
ATOM     14  C   UNL     1      12.834   3.546  -2.409  0.00  0.00    +0.117 C 
ATOM     15  C   UNL     1      13.383   4.099  -0.028  0.00  0.00    +0.027 A 
ATOM     16  C   UNL     1      12.903   3.203   0.851  0.00  0.00    +0.024 A 
ATOM     17  C   UNL     1      12.769   5.955   1.458  0.00  0.00    +0.273 A 
ATOM     18  C   UNL     1      10.985   4.970  -3.197  0.00  0.00    +0.218 A 
ATOM     19  C   UNL     1      12.222   4.926   2.400  0.00  0.00    +0.099 A 
ATOM     20  C   UNL     1      12.310   3.628   2.088  0.00  0.00    +0.030 A 
ATOM     21  C   UNL     1       9.036   3.936  -3.845  0.00  0.00    +0.116 A 
ATOM     22  C   UNL     1       9.234   6.262  -3.938  0.00  0.00    +0.116 A 
ATOM     24  C   UNL     1       8.448   5.147  -4.149  0.00  0.00    +0.039 A 
ENDROOT
BRANCH  19   8
ATOM      3  O   UNL     1       9.620   6.063   2.684  0.00  0.00    -0.270 OA
ATOM      8  N   UNL     1      11.655   5.359   3.562  0.00  0.00    -0.277 N 
ATOM     23  C   UNL     1      10.381   5.904   3.635  0.00  0.00    +0.248 C 
ATOM     31  H   UNL     1      12.281   5.395   4.359  0.00  0.00    +0.155 HD
BRANCH  23  25
ATOM      1  F   UNL     1       8.668   7.379   8.740  0.00  0.00    -0.205 F 
ATOM     25  C   UNL     1       9.926   6.298   4.993  0.00  0.00    +0.037 A 
ATOM     26  C   UNL     1      10.815   6.214   6.045  0.00  0.00    +0.016 A 
ATOM     27  C   UNL     1       8.627   6.732   5.160  0.00  0.00    +0.016 A 
ATOM     28  C   UNL     1      10.387   6.582   7.320  0.00  0.00    +0.039 A 
ATOM     29  C   UNL     1       8.199   7.101   6.436  0.00  0.00    +0.039 A 
ATOM     30  C   UNL     1       9.078   7.025   7.516  0.00  0.00    +0.123 A 
ENDBRANCH  23  25
ENDBRANCH  19   8
TORSDOF 2
ENDMDL
