MODEL 1
REMARK VINA RESULT:      -7.6      0.000      0.000
REMARK  Name = 75536631
REMARK  8 active torsions:
REMARK  status: ('A' for Active; 'I' for Inactive)
REMARK    1  A    between atoms: O_2  and  C_8
REMARK    2  A    between atoms: N_4  and  C_7
REMARK    3  A    between atoms: N_4  and  C_12
REMARK    4  A    between atoms: N_5  and  C_11
REMARK    5  A    between atoms: C_9  and  C_11
REMARK    6  A    between atoms: C_12  and  C_13
REMARK    7  A    between atoms: C_14  and  C_17
REMARK    8  A    between atoms: C_18  and  C_26
REMARK                            x       y       z     vdW  Elec       q    Type
REMARK                         _______ _______ _______ _____ _____    ______ ____
ROOT
ATOM      1  O   UNL     1      11.204   8.421  20.431  0.00  0.00    -0.371 OA
ATOM      7  C   UNL     1      12.765   6.675  20.777  0.00  0.00    +0.111 C 
ATOM      8  C   UNL     1      11.533   6.372  21.611  0.00  0.00    +0.164 C 
ATOM      9  C   UNL     1      10.675   7.632  21.512  0.00  0.00    +0.165 C 
ATOM     10  C   UNL     1      12.218   7.663  19.760  0.00  0.00    +0.181 C 
ENDROOT
BRANCH   8   2
ATOM      2  O   UNL     1      10.842   5.287  20.987  0.00  0.00    -0.388 OA
ATOM     28  H   UNL     1       9.977   5.624  20.697  0.00  0.00    +0.210 HD
ENDBRANCH   8   2
BRANCH   7   4
ATOM      4  N   UNL     1      13.821   7.290  21.579  0.00  0.00    -0.305 NA
ATOM     27  H   UNL     1      13.400   7.921  22.260  0.00  0.00    +0.123 HD
BRANCH   4  12
ATOM     12  C   UNL     1      14.736   8.055  20.743  0.00  0.00    +0.116 C 
BRANCH  12  13
ATOM     13  C   UNL     1      15.993   7.284  20.435  0.00  0.00    -0.032 A 
ATOM     15  C   UNL     1      17.071   7.322  21.319  0.00  0.00    +0.023 A 
ATOM     16  C   UNL     1      16.078   6.530  19.264  0.00  0.00    +0.005 A 
ATOM     18  C   UNL     1      18.233   6.607  21.034  0.00  0.00    +0.052 A 
ATOM     19  C   UNL     1      17.240   5.814  18.979  0.00  0.00    +0.002 A 
ATOM     20  C   UNL     1      18.318   5.853  19.863  0.00  0.00    +0.019 A 
BRANCH  18  26
ATOM      6  N   UNL     1      20.234   6.676  22.675  0.00  0.00    -0.191 NA
ATOM     26  C   UNL     1      19.338   6.645  21.940  0.00  0.00    +0.099 C 
ENDBRANCH  18  26
ENDBRANCH  12  13
ENDBRANCH   4  12
ENDBRANCH   7   4
BRANCH   9  11
ATOM     11  C   UNL     1      10.692   8.480  22.776  0.00  0.00    +0.138 C 
BRANCH  11   5
ATOM      3  O   UNL     1      11.177  10.652  24.590  0.00  0.00    -0.270 OA
ATOM      5  N   UNL     1      10.649   9.880  22.466  0.00  0.00    -0.309 N 
ATOM     14  C   UNL     1      10.899  10.868  23.413  0.00  0.00    +0.244 C 
ATOM     29  H   UNL     1      10.345  10.130  21.531  0.00  0.00    +0.149 HD
BRANCH  14  17
ATOM     17  C   UNL     1      10.791  12.273  22.939  0.00  0.00    +0.037 A 
ATOM     21  C   UNL     1      11.218  12.610  21.655  0.00  0.00    +0.013 A 
ATOM     22  C   UNL     1      10.265  13.254  23.780  0.00  0.00    +0.013 A 
ATOM     23  C   UNL     1      11.118  13.929  21.210  0.00  0.00    +0.001 A 
ATOM     24  C   UNL     1      10.165  14.572  23.336  0.00  0.00    +0.001 A 
ATOM     25  C   UNL     1      10.591  14.910  22.051  0.00  0.00    +0.000 A 
ENDBRANCH  14  17
ENDBRANCH  11   5
ENDBRANCH   9  11
TORSDOF 8
ENDMDL
MODEL 2
REMARK VINA RESULT:      -7.2      3.194      4.980
REMARK  Name = 75536631
REMARK  8 active torsions:
REMARK  status: ('A' for Active; 'I' for Inactive)
REMARK    1  A    between atoms: O_2  and  C_8
REMARK    2  A    between atoms: N_4  and  C_7
REMARK    3  A    between atoms: N_4  and  C_12
REMARK    4  A    between atoms: N_5  and  C_11
REMARK    5  A    between atoms: C_9  and  C_11
REMARK    6  A    between atoms: C_12  and  C_13
REMARK    7  A    between atoms: C_14  and  C_17
REMARK    8  A    between atoms: C_18  and  C_26
REMARK                            x       y       z     vdW  Elec       q    Type
REMARK                         _______ _______ _______ _____ _____    ______ ____
ROOT
ATOM      1  O   UNL     1      10.901   7.316  20.451  0.00  0.00    -0.371 OA
ATOM      7  C   UNL     1      12.554   8.127  21.940  0.00  0.00    +0.111 C 
ATOM      8  C   UNL     1      12.390   9.145  20.825  0.00  0.00    +0.164 C 
ATOM      9  C   UNL     1      11.484   8.460  19.802  0.00  0.00    +0.165 C 
ATOM     10  C   UNL     1      11.255   7.342  21.839  0.00  0.00    +0.181 C 
ENDROOT
BRANCH   8   2
ATOM      2  O   UNL     1      11.708  10.278  21.367  0.00  0.00    -0.388 OA
ATOM     28  H   UNL     1      11.377  10.803  20.618  0.00  0.00    +0.210 HD
ENDBRANCH   8   2
BRANCH   7   4
ATOM      4  N   UNL     1      13.704   7.256  21.711  0.00  0.00    -0.305 NA
ATOM     27  H   UNL     1      13.833   6.650  22.521  0.00  0.00    +0.123 HD
BRANCH   4  12
ATOM     12  C   UNL     1      14.921   8.035  21.517  0.00  0.00    +0.116 C 
BRANCH  12  13
ATOM     13  C   UNL     1      15.960   7.268  20.741  0.00  0.00    -0.032 A 
ATOM     15  C   UNL     1      17.255   7.142  21.243  0.00  0.00    +0.023 A 
ATOM     16  C   UNL     1      15.625   6.683  19.519  0.00  0.00    +0.005 A 
ATOM     18  C   UNL     1      18.215   6.430  20.525  0.00  0.00    +0.052 A 
ATOM     19  C   UNL     1      16.585   5.971  18.802  0.00  0.00    +0.002 A 
ATOM     20  C   UNL     1      17.881   5.845  19.304  0.00  0.00    +0.019 A 
BRANCH  18  26
ATOM      6  N   UNL     1      20.620   6.195  21.455  0.00  0.00    -0.191 NA
ATOM     26  C   UNL     1      19.543   6.300  21.039  0.00  0.00    +0.099 C 
ENDBRANCH  18  26
ENDBRANCH  12  13
ENDBRANCH   4  12
ENDBRANCH   7   4
BRANCH   9  11
ATOM     11  C   UNL     1      12.223   7.981  18.561  0.00  0.00    +0.138 C 
BRANCH  11   5
ATOM      3  O   UNL     1      12.703   8.758  15.839  0.00  0.00    -0.270 OA
ATOM      5  N   UNL     1      13.166   8.961  18.104  0.00  0.00    -0.309 N 
ATOM     14  C   UNL     1      13.332   9.275  16.759  0.00  0.00    +0.244 C 
ATOM     29  H   UNL     1      13.776   9.368  18.805  0.00  0.00    +0.149 HD
BRANCH  14  17
ATOM     17  C   UNL     1      14.367  10.295  16.446  0.00  0.00    +0.037 A 
ATOM     21  C   UNL     1      14.934  10.344  15.172  0.00  0.00    +0.013 A 
ATOM     22  C   UNL     1      14.775  11.199  17.427  0.00  0.00    +0.013 A 
ATOM     23  C   UNL     1      15.907  11.300  14.879  0.00  0.00    +0.001 A 
ATOM     24  C   UNL     1      15.748  12.154  17.134  0.00  0.00    +0.001 A 
ATOM     25  C   UNL     1      16.314  12.205  15.860  0.00  0.00    +0.000 A 
ENDBRANCH  14  17
ENDBRANCH  11   5
ENDBRANCH   9  11
TORSDOF 8
ENDMDL
MODEL 3
REMARK VINA RESULT:      -6.8      1.854      2.516
REMARK  Name = 75536631
REMARK  8 active torsions:
REMARK  status: ('A' for Active; 'I' for Inactive)
REMARK    1  A    between atoms: O_2  and  C_8
REMARK    2  A    between atoms: N_4  and  C_7
REMARK    3  A    between atoms: N_4  and  C_12
REMARK    4  A    between atoms: N_5  and  C_11
REMARK    5  A    between atoms: C_9  and  C_11
REMARK    6  A    between atoms: C_12  and  C_13
REMARK    7  A    between atoms: C_14  and  C_17
REMARK    8  A    between atoms: C_18  and  C_26
REMARK                            x       y       z     vdW  Elec       q    Type
REMARK                         _______ _______ _______ _____ _____    ______ ____
ROOT
ATOM      1  O   UNL     1      12.777   9.176  19.408  0.00  0.00    -0.371 OA
ATOM      7  C   UNL     1      13.862   7.192  18.706  0.00  0.00    +0.111 C 
ATOM      8  C   UNL     1      13.144   6.895  20.011  0.00  0.00    +0.164 C 
ATOM      9  C   UNL     1      12.660   8.256  20.509  0.00  0.00    +0.165 C 
ATOM     10  C   UNL     1      13.141   8.444  18.231  0.00  0.00    +0.181 C 
ENDROOT
BRANCH   8   2
ATOM      2  O   UNL     1      12.009   6.080  19.707  0.00  0.00    -0.388 OA
ATOM     28  H   UNL     1      12.306   5.387  19.092  0.00  0.00    +0.210 HD
ENDBRANCH   8   2
BRANCH   7   4
ATOM      4  N   UNL     1      15.282   7.463  18.921  0.00  0.00    -0.305 NA
ATOM     27  H   UNL     1      15.742   7.579  18.018  0.00  0.00    +0.123 HD
BRANCH   4  12
ATOM     12  C   UNL     1      15.923   6.362  19.629  0.00  0.00    +0.116 C 
BRANCH  12  13
ATOM     13  C   UNL     1      17.201   6.795  20.299  0.00  0.00    -0.032 A 
ATOM     15  C   UNL     1      18.366   6.047  20.134  0.00  0.00    +0.023 A 
ATOM     16  C   UNL     1      17.218   7.948  21.086  0.00  0.00    +0.005 A 
ATOM     18  C   UNL     1      19.548   6.450  20.753  0.00  0.00    +0.052 A 
ATOM     19  C   UNL     1      18.400   8.351  21.705  0.00  0.00    +0.002 A 
ATOM     20  C   UNL     1      19.565   7.602  21.540  0.00  0.00    +0.019 A 
BRANCH  18  26
ATOM      6  N   UNL     1      21.712   5.062  20.447  0.00  0.00    -0.191 NA
ATOM     26  C   UNL     1      20.742   5.684  20.584  0.00  0.00    +0.099 C 
ENDBRANCH  18  26
ENDBRANCH  12  13
ENDBRANCH   4  12
ENDBRANCH   7   4
BRANCH   9  11
ATOM     11  C   UNL     1      13.473   8.800  21.674  0.00  0.00    +0.138 C 
BRANCH  11   5
ATOM      3  O   UNL     1      13.399  11.660  21.434  0.00  0.00    -0.270 OA
ATOM      5  N   UNL     1      12.699   9.707  22.472  0.00  0.00    -0.309 N 
ATOM     14  C   UNL     1      12.725  11.085  22.285  0.00  0.00    +0.244 C 
ATOM     29  H   UNL     1      12.183   9.304  23.247  0.00  0.00    +0.149 HD
BRANCH  14  17
ATOM     17  C   UNL     1      11.886  11.890  23.210  0.00  0.00    +0.037 A 
ATOM     21  C   UNL     1      11.194  13.004  22.733  0.00  0.00    +0.013 A 
ATOM     22  C   UNL     1      11.793  11.533  24.555  0.00  0.00    +0.013 A 
ATOM     23  C   UNL     1      10.407  13.760  23.602  0.00  0.00    +0.001 A 
ATOM     24  C   UNL     1      11.006  12.290  25.424  0.00  0.00    +0.001 A 
ATOM     25  C   UNL     1      10.313  13.403  24.948  0.00  0.00    +0.000 A 
ENDBRANCH  14  17
ENDBRANCH  11   5
ENDBRANCH   9  11
TORSDOF 8
ENDMDL
MODEL 4
REMARK VINA RESULT:      -6.8     16.139     18.475
REMARK  Name = 75536631
REMARK  8 active torsions:
REMARK  status: ('A' for Active; 'I' for Inactive)
REMARK    1  A    between atoms: O_2  and  C_8
REMARK    2  A    between atoms: N_4  and  C_7
REMARK    3  A    between atoms: N_4  and  C_12
REMARK    4  A    between atoms: N_5  and  C_11
REMARK    5  A    between atoms: C_9  and  C_11
REMARK    6  A    between atoms: C_12  and  C_13
REMARK    7  A    between atoms: C_14  and  C_17
REMARK    8  A    between atoms: C_18  and  C_26
REMARK                            x       y       z     vdW  Elec       q    Type
REMARK                         _______ _______ _______ _____ _____    ______ ____
ROOT
ATOM      1  O   UNL     1      12.859   4.498   1.572  0.00  0.00    -0.371 OA
ATOM      7  C   UNL     1      10.526   4.253   1.886  0.00  0.00    +0.111 C 
ATOM      8  C   UNL     1      10.746   4.987   0.575  0.00  0.00    +0.164 C 
ATOM      9  C   UNL     1      12.242   5.300   0.549  0.00  0.00    +0.165 C 
ATOM     10  C   UNL     1      11.880   3.600   2.109  0.00  0.00    +0.181 C 
ENDROOT
BRANCH   8   2
ATOM      2  O   UNL     1      10.442   4.081  -0.488  0.00  0.00    -0.388 OA
ATOM     28  H   UNL     1      10.242   4.615  -1.276  0.00  0.00    +0.210 HD
ENDBRANCH   8   2
BRANCH   7   4
ATOM      4  N   UNL     1      10.210   5.176   2.974  0.00  0.00    -0.305 NA
ATOM     27  H   UNL     1      10.726   6.045   2.837  0.00  0.00    +0.123 HD
BRANCH   4  12
ATOM     12  C   UNL     1      10.586   4.613   4.264  0.00  0.00    +0.116 C 
BRANCH  12  13
ATOM     13  C   UNL     1       9.903   5.321   5.405  0.00  0.00    -0.032 A 
ATOM     15  C   UNL     1      10.111   4.895   6.717  0.00  0.00    +0.023 A 
ATOM     16  C   UNL     1       9.063   6.405   5.148  0.00  0.00    +0.005 A 
ATOM     18  C   UNL     1       9.480   5.553   7.772  0.00  0.00    +0.052 A 
ATOM     19  C   UNL     1       8.432   7.062   6.204  0.00  0.00    +0.002 A 
ATOM     20  C   UNL     1       8.640   6.636   7.516  0.00  0.00    +0.019 A 
BRANCH  18  26
ATOM      6  N   UNL     1       9.866   4.764  10.208  0.00  0.00    -0.191 NA
ATOM     26  C   UNL     1       9.693   5.117   9.117  0.00  0.00    +0.099 C 
ENDBRANCH  18  26
ENDBRANCH  12  13
ENDBRANCH   4  12
ENDBRANCH   7   4
BRANCH   9  11
ATOM     11  C   UNL     1      12.561   6.761   0.830  0.00  0.00    +0.138 C 
BRANCH  11   5
ATOM      3  O   UNL     1      14.349   7.885   2.775  0.00  0.00    -0.270 OA
ATOM      5  N   UNL     1      12.242   7.115   2.184  0.00  0.00    -0.309 N 
ATOM     14  C   UNL     1      13.176   7.657   3.060  0.00  0.00    +0.244 C 
ATOM     29  H   UNL     1      11.311   6.875   2.509  0.00  0.00    +0.149 HD
BRANCH  14  17
ATOM     17  C   UNL     1      12.694   7.945   4.436  0.00  0.00    +0.037 A 
ATOM     21  C   UNL     1      11.789   8.984   4.654  0.00  0.00    +0.013 A 
ATOM     22  C   UNL     1      13.151   7.180   5.510  0.00  0.00    +0.013 A 
ATOM     23  C   UNL     1      11.337   9.256   5.946  0.00  0.00    +0.001 A 
ATOM     24  C   UNL     1      12.699   7.453   6.801  0.00  0.00    +0.001 A 
ATOM     25  C   UNL     1      11.793   8.490   7.019  0.00  0.00    +0.000 A 
ENDBRANCH  14  17
ENDBRANCH  11   5
ENDBRANCH   9  11
TORSDOF 8
ENDMDL
MODEL 5
REMARK VINA RESULT:      -6.6     26.195     29.280
REMARK  Name = 75536631
REMARK  8 active torsions:
REMARK  status: ('A' for Active; 'I' for Inactive)
REMARK    1  A    between atoms: O_2  and  C_8
REMARK    2  A    between atoms: N_4  and  C_7
REMARK    3  A    between atoms: N_4  and  C_12
REMARK    4  A    between atoms: N_5  and  C_11
REMARK    5  A    between atoms: C_9  and  C_11
REMARK    6  A    between atoms: C_12  and  C_13
REMARK    7  A    between atoms: C_14  and  C_17
REMARK    8  A    between atoms: C_18  and  C_26
REMARK                            x       y       z     vdW  Elec       q    Type
REMARK                         _______ _______ _______ _____ _____    ______ ____
ROOT
ATOM      1  O   UNL     1     -17.827   5.031  24.137  0.00  0.00    -0.371 OA
ATOM      7  C   UNL     1     -15.734   4.787  23.058  0.00  0.00    +0.111 C 
ATOM      8  C   UNL     1     -15.859   3.680  24.090  0.00  0.00    +0.164 C 
ATOM      9  C   UNL     1     -17.116   4.029  24.887  0.00  0.00    +0.165 C 
ATOM     10  C   UNL     1     -17.184   5.202  22.868  0.00  0.00    +0.181 C 
ENDROOT
BRANCH   8   2
ATOM      2  O   UNL     1     -16.078   2.454  23.389  0.00  0.00    -0.388 OA
ATOM     28  H   UNL     1     -17.039   2.334  23.308  0.00  0.00    +0.210 HD
ENDBRANCH   8   2
BRANCH   7   4
ATOM      4  N   UNL     1     -14.937   5.905  23.561  0.00  0.00    -0.305 NA
ATOM     27  H   UNL     1     -15.245   6.138  24.505  0.00  0.00    +0.123 HD
BRANCH   4  12
ATOM     12  C   UNL     1     -15.097   7.083  22.718  0.00  0.00    +0.116 C 
BRANCH  12  13
ATOM     13  C   UNL     1     -13.862   7.358  21.900  0.00  0.00    -0.032 A 
ATOM     15  C   UNL     1     -13.566   8.660  21.497  0.00  0.00    +0.023 A 
ATOM     16  C   UNL     1     -13.013   6.308  21.546  0.00  0.00    +0.005 A 
ATOM     18  C   UNL     1     -12.422   8.913  20.741  0.00  0.00    +0.052 A 
ATOM     19  C   UNL     1     -11.870   6.562  20.790  0.00  0.00    +0.002 A 
ATOM     20  C   UNL     1     -11.573   7.864  20.387  0.00  0.00    +0.019 A 
BRANCH  18  26
ATOM      6  N   UNL     1     -11.870  11.329  19.993  0.00  0.00    -0.191 NA
ATOM     26  C   UNL     1     -12.117  10.247  20.329  0.00  0.00    +0.099 C 
ENDBRANCH  18  26
ENDBRANCH  12  13
ENDBRANCH   4  12
ENDBRANCH   7   4
BRANCH   9  11
ATOM     11  C   UNL     1     -16.823   4.587  26.271  0.00  0.00    +0.138 C 
BRANCH  11   5
ATOM      3  O   UNL     1     -16.419   4.748  29.109  0.00  0.00    -0.270 OA
ATOM      5  N   UNL     1     -16.177   3.610  27.101  0.00  0.00    -0.309 N 
ATOM     14  C   UNL     1     -16.025   3.772  28.474  0.00  0.00    +0.244 C 
ATOM     29  H   UNL     1     -15.756   2.818  26.628  0.00  0.00    +0.149 HD
BRANCH  14  17
ATOM     17  C   UNL     1     -15.312   2.682  29.189  0.00  0.00    +0.037 A 
ATOM     21  C   UNL     1     -14.276   2.989  30.073  0.00  0.00    +0.013 A 
ATOM     22  C   UNL     1     -15.674   1.352  28.973  0.00  0.00    +0.013 A 
ATOM     23  C   UNL     1     -13.605   1.965  30.742  0.00  0.00    +0.001 A 
ATOM     24  C   UNL     1     -15.003   0.329  29.642  0.00  0.00    +0.001 A 
ATOM     25  C   UNL     1     -13.969   0.635  30.527  0.00  0.00    +0.000 A 
ENDBRANCH  14  17
ENDBRANCH  11   5
ENDBRANCH   9  11
TORSDOF 8
ENDMDL
MODEL 6
REMARK VINA RESULT:      -6.6     25.999     28.410
REMARK  Name = 75536631
REMARK  8 active torsions:
REMARK  status: ('A' for Active; 'I' for Inactive)
REMARK    1  A    between atoms: O_2  and  C_8
REMARK    2  A    between atoms: N_4  and  C_7
REMARK    3  A    between atoms: N_4  and  C_12
REMARK    4  A    between atoms: N_5  and  C_11
REMARK    5  A    between atoms: C_9  and  C_11
REMARK    6  A    between atoms: C_12  and  C_13
REMARK    7  A    between atoms: C_14  and  C_17
REMARK    8  A    between atoms: C_18  and  C_26
REMARK                            x       y       z     vdW  Elec       q    Type
REMARK                         _______ _______ _______ _____ _____    ______ ____
ROOT
ATOM      1  O   UNL     1      -3.884 -12.185  15.659  0.00  0.00    -0.371 OA
ATOM      7  C   UNL     1      -2.068 -11.150  14.549  0.00  0.00    +0.111 C 
ATOM      8  C   UNL     1      -2.172 -10.544  15.939  0.00  0.00    +0.164 C 
ATOM      9  C   UNL     1      -3.482 -11.092  16.505  0.00  0.00    +0.165 C 
ATOM     10  C   UNL     1      -2.838 -12.449  14.717  0.00  0.00    +0.181 C 
ENDROOT
BRANCH   8   2
ATOM      2  O   UNL     1      -1.082 -11.046  16.715  0.00  0.00    -0.388 OA
ATOM     28  H   UNL     1      -1.214 -12.005  16.813  0.00  0.00    +0.210 HD
ENDBRANCH   8   2
BRANCH   7   4
ATOM      4  N   UNL     1      -2.698 -10.299  13.542  0.00  0.00    -0.305 NA
ATOM     27  H   UNL     1      -3.631 -10.657  13.338  0.00  0.00    +0.123 HD
BRANCH   4  12
ATOM     12  C   UNL     1      -1.925 -10.289  12.307  0.00  0.00    +0.116 C 
BRANCH  12  13
ATOM     13  C   UNL     1      -2.813 -10.328  11.090  0.00  0.00    -0.032 A 
ATOM     15  C   UNL     1      -3.433 -11.520  10.715  0.00  0.00    +0.023 A 
ATOM     16  C   UNL     1      -3.015  -9.169  10.338  0.00  0.00    +0.005 A 
ATOM     18  C   UNL     1      -4.256 -11.554   9.590  0.00  0.00    +0.052 A 
ATOM     19  C   UNL     1      -3.838  -9.204   9.213  0.00  0.00    +0.002 A 
ATOM     20  C   UNL     1      -4.458 -10.396   8.839  0.00  0.00    +0.019 A 
BRANCH  18  26
ATOM      6  N   UNL     1      -5.408 -13.765   8.893  0.00  0.00    -0.191 NA
ATOM     26  C   UNL     1      -4.892 -12.774   9.205  0.00  0.00    +0.099 C 
ENDBRANCH  18  26
ENDBRANCH  12  13
ENDBRANCH   4  12
ENDBRANCH   7   4
BRANCH   9  11
ATOM     11  C   UNL     1      -4.607 -10.069  16.533  0.00  0.00    +0.138 C 
BRANCH  11   5
ATOM      3  O   UNL     1      -7.391 -10.361  15.894  0.00  0.00    -0.270 OA
ATOM      5  N   UNL     1      -5.209  -9.920  15.239  0.00  0.00    -0.309 N 
ATOM     14  C   UNL     1      -6.573 -10.080  15.020  0.00  0.00    +0.244 C 
ATOM     29  H   UNL     1      -4.578  -9.769  14.458  0.00  0.00    +0.149 HD
BRANCH  14  17
ATOM     17  C   UNL     1      -7.037  -9.918  13.618  0.00  0.00    +0.037 A 
ATOM     21  C   UNL     1      -6.193  -9.343  12.667  0.00  0.00    +0.013 A 
ATOM     22  C   UNL     1      -8.317 -10.336  13.253  0.00  0.00    +0.013 A 
ATOM     23  C   UNL     1      -6.628  -9.189  11.351  0.00  0.00    +0.001 A 
ATOM     24  C   UNL     1      -8.752 -10.181  11.937  0.00  0.00    +0.001 A 
ATOM     25  C   UNL     1      -7.908  -9.608  10.986  0.00  0.00    +0.000 A 
ENDBRANCH  14  17
ENDBRANCH  11   5
ENDBRANCH   9  11
TORSDOF 8
ENDMDL
MODEL 7
REMARK VINA RESULT:      -6.5     27.038     29.498
REMARK  Name = 75536631
REMARK  8 active torsions:
REMARK  status: ('A' for Active; 'I' for Inactive)
REMARK    1  A    between atoms: O_2  and  C_8
REMARK    2  A    between atoms: N_4  and  C_7
REMARK    3  A    between atoms: N_4  and  C_12
REMARK    4  A    between atoms: N_5  and  C_11
REMARK    5  A    between atoms: C_9  and  C_11
REMARK    6  A    between atoms: C_12  and  C_13
REMARK    7  A    between atoms: C_14  and  C_17
REMARK    8  A    between atoms: C_18  and  C_26
REMARK                            x       y       z     vdW  Elec       q    Type
REMARK                         _______ _______ _______ _____ _____    ______ ____
ROOT
ATOM      1  O   UNL     1      -3.828 -12.921  12.879  0.00  0.00    -0.371 OA
ATOM      7  C   UNL     1      -2.198 -12.168  14.423  0.00  0.00    +0.111 C 
ATOM      8  C   UNL     1      -1.827 -13.579  14.003  0.00  0.00    +0.164 C 
ATOM      9  C   UNL     1      -3.024 -14.073  13.192  0.00  0.00    +0.165 C 
ATOM     10  C   UNL     1      -3.129 -11.743  13.298  0.00  0.00    +0.181 C 
ENDROOT
BRANCH   8   2
ATOM      2  O   UNL     1      -0.687 -13.492  13.145  0.00  0.00    -0.388 OA
ATOM     28  H   UNL     1      -0.948 -12.968  12.368  0.00  0.00    +0.210 HD
ENDBRANCH   8   2
BRANCH   7   4
ATOM      4  N   UNL     1      -2.897 -12.153  15.706  0.00  0.00    -0.305 NA
ATOM     27  H   UNL     1      -3.749 -12.709  15.630  0.00  0.00    +0.123 HD
BRANCH   4  12
ATOM     12  C   UNL     1      -3.263 -10.796  16.089  0.00  0.00    +0.116 C 
BRANCH  12  13
ATOM     13  C   UNL     1      -4.397 -10.779  17.080  0.00  0.00    -0.032 A 
ATOM     15  C   UNL     1      -5.553 -10.048  16.807  0.00  0.00    +0.023 A 
ATOM     16  C   UNL     1      -4.290 -11.497  18.272  0.00  0.00    +0.005 A 
ATOM     18  C   UNL     1      -6.603 -10.035  17.725  0.00  0.00    +0.052 A 
ATOM     19  C   UNL     1      -5.340 -11.483  19.190  0.00  0.00    +0.002 A 
ATOM     20  C   UNL     1      -6.496 -10.752  18.917  0.00  0.00    +0.019 A 
BRANCH  18  26
ATOM      6  N   UNL     1      -8.750  -8.679  17.220  0.00  0.00    -0.191 NA
ATOM     26  C   UNL     1      -7.788  -9.287  17.446  0.00  0.00    +0.099 C 
ENDBRANCH  18  26
ENDBRANCH  12  13
ENDBRANCH   4  12
ENDBRANCH   7   4
BRANCH   9  11
ATOM     11  C   UNL     1      -3.893 -15.073  13.940  0.00  0.00    +0.138 C 
BRANCH  11   5
ATOM      3  O   UNL     1      -4.672 -14.593  16.661  0.00  0.00    -0.270 OA
ATOM      5  N   UNL     1      -5.116 -14.471  14.387  0.00  0.00    -0.309 N 
ATOM     14  C   UNL     1      -5.411 -14.276  15.732  0.00  0.00    +0.244 C 
ATOM     29  H   UNL     1      -5.807 -14.261  13.674  0.00  0.00    +0.149 HD
BRANCH  14  17
ATOM     17  C   UNL     1      -6.731 -13.662  16.032  0.00  0.00    +0.037 A 
ATOM     21  C   UNL     1      -7.323 -12.799  15.110  0.00  0.00    +0.013 A 
ATOM     22  C   UNL     1      -7.374 -13.945  17.237  0.00  0.00    +0.013 A 
ATOM     23  C   UNL     1      -8.561 -12.220  15.391  0.00  0.00    +0.001 A 
ATOM     24  C   UNL     1      -8.612 -13.367  17.518  0.00  0.00    +0.001 A 
ATOM     25  C   UNL     1      -9.206 -12.505  16.596  0.00  0.00    +0.000 A 
ENDBRANCH  14  17
ENDBRANCH  11   5
ENDBRANCH   9  11
TORSDOF 8
ENDMDL
MODEL 8
REMARK VINA RESULT:      -6.5     26.299     29.122
REMARK  Name = 75536631
REMARK  8 active torsions:
REMARK  status: ('A' for Active; 'I' for Inactive)
REMARK    1  A    between atoms: O_2  and  C_8
REMARK    2  A    between atoms: N_4  and  C_7
REMARK    3  A    between atoms: N_4  and  C_12
REMARK    4  A    between atoms: N_5  and  C_11
REMARK    5  A    between atoms: C_9  and  C_11
REMARK    6  A    between atoms: C_12  and  C_13
REMARK    7  A    between atoms: C_14  and  C_17
REMARK    8  A    between atoms: C_18  and  C_26
REMARK                            x       y       z     vdW  Elec       q    Type
REMARK                         _______ _______ _______ _____ _____    ______ ____
ROOT
ATOM      1  O   UNL     1      -2.202 -11.812  11.992  0.00  0.00    -0.371 OA
ATOM      7  C   UNL     1      -4.567 -11.717  12.025  0.00  0.00    +0.111 C 
ATOM      8  C   UNL     1      -4.040 -10.317  12.285  0.00  0.00    +0.164 C 
ATOM      9  C   UNL     1      -2.533 -10.494  12.468  0.00  0.00    +0.165 C 
ATOM     10  C   UNL     1      -3.364 -12.389  11.384  0.00  0.00    +0.181 C 
ENDROOT
BRANCH   8   2
ATOM      2  O   UNL     1      -4.278  -9.537  11.111  0.00  0.00    -0.388 OA
ATOM     28  H   UNL     1      -3.542  -9.704  10.498  0.00  0.00    +0.210 HD
ENDBRANCH   8   2
BRANCH   7   4
ATOM      4  N   UNL     1      -4.937 -12.393  13.267  0.00  0.00    -0.305 NA
ATOM     27  H   UNL     1      -4.619 -13.361  13.229  0.00  0.00    +0.123 HD
BRANCH   4  12
ATOM     12  C   UNL     1      -6.382 -12.387  13.456  0.00  0.00    +0.116 C 
BRANCH  12  13
ATOM     13  C   UNL     1      -6.769 -12.862  14.833  0.00  0.00    -0.032 A 
ATOM     15  C   UNL     1      -8.028 -12.557  15.349  0.00  0.00    +0.023 A 
ATOM     16  C   UNL     1      -5.866 -13.609  15.591  0.00  0.00    +0.005 A 
ATOM     18  C   UNL     1      -8.385 -12.998  16.622  0.00  0.00    +0.052 A 
ATOM     19  C   UNL     1      -6.224 -14.050  16.864  0.00  0.00    +0.002 A 
ATOM     20  C   UNL     1      -7.483 -13.745  17.381  0.00  0.00    +0.019 A 
BRANCH  18  26
ATOM      6  N   UNL     1     -10.723 -12.434  17.582  0.00  0.00    -0.191 NA
ATOM     26  C   UNL     1      -9.676 -12.686  17.152  0.00  0.00    +0.099 C 
ENDBRANCH  18  26
ENDBRANCH  12  13
ENDBRANCH   4  12
ENDBRANCH   7   4
BRANCH   9  11
ATOM     11  C   UNL     1      -2.078 -10.381  13.915  0.00  0.00    +0.138 C 
BRANCH  11   5
ATOM      3  O   UNL     1      -2.096 -11.047  16.708  0.00  0.00    -0.270 OA
ATOM      5  N   UNL     1      -3.198 -10.297  14.809  0.00  0.00    -0.309 N 
ATOM     14  C   UNL     1      -3.115 -10.642  16.154  0.00  0.00    +0.244 C 
ATOM     29  H   UNL     1      -4.091 -10.048  14.397  0.00  0.00    +0.149 HD
BRANCH  14  17
ATOM     17  C   UNL     1      -4.370 -10.524  16.940  0.00  0.00    +0.037 A 
ATOM     21  C   UNL     1      -5.467  -9.848  16.405  0.00  0.00    +0.013 A 
ATOM     22  C   UNL     1      -4.450 -11.084  18.215  0.00  0.00    +0.013 A 
ATOM     23  C   UNL     1      -6.645  -9.735  17.143  0.00  0.00    +0.001 A 
ATOM     24  C   UNL     1      -5.628 -10.972  18.953  0.00  0.00    +0.001 A 
ATOM     25  C   UNL     1      -6.725 -10.297  18.418  0.00  0.00    +0.000 A 
ENDBRANCH  14  17
ENDBRANCH  11   5
ENDBRANCH   9  11
TORSDOF 8
ENDMDL
MODEL 9
REMARK VINA RESULT:      -6.5     26.950     30.197
REMARK  Name = 75536631
REMARK  8 active torsions:
REMARK  status: ('A' for Active; 'I' for Inactive)
REMARK    1  A    between atoms: O_2  and  C_8
REMARK    2  A    between atoms: N_4  and  C_7
REMARK    3  A    between atoms: N_4  and  C_12
REMARK    4  A    between atoms: N_5  and  C_11
REMARK    5  A    between atoms: C_9  and  C_11
REMARK    6  A    between atoms: C_12  and  C_13
REMARK    7  A    between atoms: C_14  and  C_17
REMARK    8  A    between atoms: C_18  and  C_26
REMARK                            x       y       z     vdW  Elec       q    Type
REMARK                         _______ _______ _______ _____ _____    ______ ____
ROOT
ATOM      1  O   UNL     1      -5.163 -12.424  16.263  0.00  0.00    -0.371 OA
ATOM      7  C   UNL     1      -5.281 -10.132  15.682  0.00  0.00    +0.111 C 
ATOM      8  C   UNL     1      -4.176 -10.296  16.710  0.00  0.00    +0.164 C 
ATOM      9  C   UNL     1      -4.305 -11.740  17.195  0.00  0.00    +0.165 C 
ATOM     10  C   UNL     1      -5.435 -11.552  15.160  0.00  0.00    +0.181 C 
ENDROOT
BRANCH   8   2
ATOM      2  O   UNL     1      -2.926 -10.142  16.034  0.00  0.00    -0.388 OA
ATOM     28  H   UNL     1      -2.350  -9.609  16.608  0.00  0.00    +0.210 HD
ENDBRANCH   8   2
BRANCH   7   4
ATOM      4  N   UNL     1      -6.524  -9.668  16.295  0.00  0.00    -0.305 NA
ATOM     27  H   UNL     1      -6.617 -10.088  17.220  0.00  0.00    +0.123 HD
BRANCH   4  12
ATOM     12  C   UNL     1      -7.679 -10.052  15.494  0.00  0.00    +0.116 C 
BRANCH  12  13
ATOM     13  C   UNL     1      -8.957  -9.468  16.037  0.00  0.00    -0.032 A 
ATOM     15  C   UNL     1     -10.188  -9.972  15.620  0.00  0.00    +0.023 A 
ATOM     16  C   UNL     1      -8.907  -8.421  16.959  0.00  0.00    +0.005 A 
ATOM     18  C   UNL     1     -11.370  -9.432  16.125  0.00  0.00    +0.052 A 
ATOM     19  C   UNL     1     -10.089  -7.881  17.463  0.00  0.00    +0.002 A 
ATOM     20  C   UNL     1     -11.321  -8.386  17.047  0.00  0.00    +0.019 A 
BRANCH  18  26
ATOM      6  N   UNL     1     -13.658 -10.367  15.353  0.00  0.00    -0.191 NA
ATOM     26  C   UNL     1     -12.633  -9.948  15.699  0.00  0.00    +0.099 C 
ENDBRANCH  18  26
ENDBRANCH  12  13
ENDBRANCH   4  12
ENDBRANCH   7   4
BRANCH   9  11
ATOM     11  C   UNL     1      -4.915 -11.862  18.584  0.00  0.00    +0.138 C 
BRANCH  11   5
ATOM      3  O   UNL     1      -6.821 -10.331  20.089  0.00  0.00    -0.270 OA
ATOM      5  N   UNL     1      -6.344 -11.972  18.519  0.00  0.00    -0.309 N 
ATOM     14  C   UNL     1      -7.194 -11.185  19.289  0.00  0.00    +0.244 C 
ATOM     29  H   UNL     1      -6.717 -12.715  17.938  0.00  0.00    +0.149 HD
BRANCH  14  17
ATOM     17  C   UNL     1      -8.650 -11.438  19.124  0.00  0.00    +0.037 A 
ATOM     21  C   UNL     1      -9.574 -10.680  19.844  0.00  0.00    +0.013 A 
ATOM     22  C   UNL     1      -9.091 -12.434  18.253  0.00  0.00    +0.013 A 
ATOM     23  C   UNL     1     -10.940 -10.918  19.691  0.00  0.00    +0.001 A 
ATOM     24  C   UNL     1     -10.457 -12.671  18.101  0.00  0.00    +0.001 A 
ATOM     25  C   UNL     1     -11.381 -11.914  18.819  0.00  0.00    +0.000 A 
ENDBRANCH  14  17
ENDBRANCH  11   5
ENDBRANCH   9  11
TORSDOF 8
ENDMDL
MODEL 10
REMARK VINA RESULT:      -6.5     26.300     29.018
REMARK  Name = 75536631
REMARK  8 active torsions:
REMARK  status: ('A' for Active; 'I' for Inactive)
REMARK    1  A    between atoms: O_2  and  C_8
REMARK    2  A    between atoms: N_4  and  C_7
REMARK    3  A    between atoms: N_4  and  C_12
REMARK    4  A    between atoms: N_5  and  C_11
REMARK    5  A    between atoms: C_9  and  C_11
REMARK    6  A    between atoms: C_12  and  C_13
REMARK    7  A    between atoms: C_14  and  C_17
REMARK    8  A    between atoms: C_18  and  C_26
REMARK                            x       y       z     vdW  Elec       q    Type
REMARK                         _______ _______ _______ _____ _____    ______ ____
ROOT
ATOM      1  O   UNL     1      -2.937 -12.511  14.813  0.00  0.00    -0.371 OA
ATOM      7  C   UNL     1      -3.748 -10.672  13.562  0.00  0.00    +0.111 C 
ATOM      8  C   UNL     1      -2.382 -10.297  14.112  0.00  0.00    +0.164 C 
ATOM      9  C   UNL     1      -2.026 -11.428  15.076  0.00  0.00    +0.165 C 
ATOM     10  C   UNL     1      -3.715 -12.189  13.654  0.00  0.00    +0.181 C 
ENDROOT
BRANCH   8   2
ATOM      2  O   UNL     1      -1.457 -10.306  13.022  0.00  0.00    -0.388 OA
ATOM     28  H   UNL     1      -1.256 -11.235  12.819  0.00  0.00    +0.210 HD
ENDBRANCH   8   2
BRANCH   7   4
ATOM      4  N   UNL     1      -4.827 -10.126  14.382  0.00  0.00    -0.305 NA
ATOM     27  H   UNL     1      -4.488  -9.990  15.335  0.00  0.00    +0.123 HD
BRANCH   4  12
ATOM     12  C   UNL     1      -5.966 -11.034  14.422  0.00  0.00    +0.116 C 
BRANCH  12  13
ATOM     13  C   UNL     1      -7.005 -10.587  15.417  0.00  0.00    -0.032 A 
ATOM     15  C   UNL     1      -8.270 -11.175  15.419  0.00  0.00    +0.023 A 
ATOM     16  C   UNL     1      -6.700  -9.584  16.339  0.00  0.00    +0.005 A 
ATOM     18  C   UNL     1      -9.229 -10.762  16.342  0.00  0.00    +0.052 A 
ATOM     19  C   UNL     1      -7.660  -9.172  17.261  0.00  0.00    +0.002 A 
ATOM     20  C   UNL     1      -8.925  -9.759  17.263  0.00  0.00    +0.019 A 
BRANCH  18  26
ATOM      6  N   UNL     1     -11.578 -11.853  16.347  0.00  0.00    -0.191 NA
ATOM     26  C   UNL     1     -10.526 -11.364  16.345  0.00  0.00    +0.099 C 
ENDBRANCH  18  26
ENDBRANCH  12  13
ENDBRANCH   4  12
ENDBRANCH   7   4
BRANCH   9  11
ATOM     11  C   UNL     1      -2.154 -11.040  16.541  0.00  0.00    +0.138 C 
BRANCH  11   5
ATOM      3  O   UNL     1      -2.850 -11.797  19.222  0.00  0.00    -0.270 OA
ATOM      5  N   UNL     1      -3.472 -11.312  17.040  0.00  0.00    -0.309 N 
ATOM     14  C   UNL     1      -3.717 -11.674  18.360  0.00  0.00    +0.244 C 
ATOM     29  H   UNL     1      -4.225 -11.309  16.360  0.00  0.00    +0.149 HD
BRANCH  14  17
ATOM     17  C   UNL     1      -5.135 -11.947  18.714  0.00  0.00    +0.037 A 
ATOM     21  C   UNL     1      -5.852 -12.918  18.016  0.00  0.00    +0.013 A 
ATOM     22  C   UNL     1      -5.748 -11.228  19.740  0.00  0.00    +0.013 A 
ATOM     23  C   UNL     1      -7.183 -13.174  18.346  0.00  0.00    +0.001 A 
ATOM     24  C   UNL     1      -7.079 -11.484  20.070  0.00  0.00    +0.001 A 
ATOM     25  C   UNL     1      -7.797 -12.456  19.374  0.00  0.00    +0.000 A 
ENDBRANCH  14  17
ENDBRANCH  11   5
ENDBRANCH   9  11
TORSDOF 8
ENDMDL
