MODEL 1
REMARK VINA RESULT:      -7.3      0.000      0.000
REMARK  Name = 51136910
REMARK  5 active torsions:
REMARK  status: ('A' for Active; 'I' for Inactive)
REMARK    1  A    between atoms: N_2  and  C_9
REMARK    2  A    between atoms: N_3  and  C_19
REMARK    3  A    between atoms: C_10  and  C_18
REMARK    4  A    between atoms: C_20  and  C_21
REMARK    5  A    between atoms: C_25  and  C_26
REMARK                            x       y       z     vdW  Elec       q    Type
REMARK                         _______ _______ _______ _____ _____    ______ ____
ROOT
ATOM      1  O   UNL     1      21.177   6.037  23.015  0.00  0.00    -0.336 OA
ATOM      4  N   UNL     1      20.867   6.144  20.799  0.00  0.00    -0.190 NA
ATOM      5  N   UNL     1      19.800   6.213  22.822  0.00  0.00    -0.056 NA
ATOM     18  C   UNL     1      21.730   6.007  21.774  0.00  0.00    +0.245 A 
ATOM     20  C   UNL     1      19.697   6.266  21.491  0.00  0.00    +0.204 A 
ENDROOT
BRANCH  20  21
ATOM      6  N   UNL     1      16.262   7.489  20.760  0.00  0.00    -0.254 NA
ATOM     21  C   UNL     1      18.441   6.443  20.821  0.00  0.00    +0.041 A 
ATOM     22  C   UNL     1      18.165   5.782  19.629  0.00  0.00    +0.015 A 
ATOM     23  C   UNL     1      17.465   7.279  21.340  0.00  0.00    +0.123 A 
ATOM     24  C   UNL     1      16.939   5.972  19.002  0.00  0.00    +0.029 A 
ATOM     25  C   UNL     1      16.029   6.828  19.602  0.00  0.00    +0.074 A 
BRANCH  25  26
ATOM      7  N   UNL     1      13.408   7.736  17.114  0.00  0.00    -0.243 NA
ATOM      8  N   UNL     1      12.338   7.134  19.187  0.00  0.00    -0.243 NA
ATOM     26  C   UNL     1      14.738   7.075  19.008  0.00  0.00    +0.037 A 
ATOM     27  C   UNL     1      14.598   7.494  17.701  0.00  0.00    +0.124 A 
ATOM     28  C   UNL     1      13.561   6.910  19.710  0.00  0.00    +0.124 A 
ATOM     29  C   UNL     1      12.335   7.540  17.903  0.00  0.00    +0.221 A 
ENDBRANCH  25  26
ENDBRANCH  20  21
BRANCH  18  10
ATOM      2  N   UNL     1      23.629   4.697  20.840  0.00  0.00    -0.288 NA
ATOM     10  C   UNL     1      23.232   5.823  21.709  0.00  0.00    +0.146 C 
ATOM     11  C   UNL     1      24.947   5.034  20.303  0.00  0.00    +0.085 C 
ATOM     14  C   UNL     1      23.955   7.047  21.117  0.00  0.00    +0.030 C 
ATOM     15  C   UNL     1      24.780   6.501  19.960  0.00  0.00    +0.017 C 
BRANCH   2   9
ATOM      3  N   UNL     1      25.107   1.264  22.864  0.00  0.00    -0.305 NA
ATOM      9  C   UNL     1      23.629   3.410  21.530  0.00  0.00    +0.060 C 
ATOM     12  C   UNL     1      24.198   3.565  22.943  0.00  0.00    +0.034 C 
ATOM     13  C   UNL     1      24.441   2.369  20.752  0.00  0.00    +0.034 C 
ATOM     16  C   UNL     1      24.299   2.209  23.647  0.00  0.00    +0.085 C 
ATOM     17  C   UNL     1      24.532   1.053  21.528  0.00  0.00    +0.085 C 
ATOM     19  C   UNL     1      25.235  -0.009  23.573  0.00  0.00    +0.104 C 
ENDBRANCH   2   9
ENDBRANCH  18  10
TORSDOF 4
ENDMDL
MODEL 2
REMARK VINA RESULT:      -7.3      1.458      3.535
REMARK  Name = 51136910
REMARK  5 active torsions:
REMARK  status: ('A' for Active; 'I' for Inactive)
REMARK    1  A    between atoms: N_2  and  C_9
REMARK    2  A    between atoms: N_3  and  C_19
REMARK    3  A    between atoms: C_10  and  C_18
REMARK    4  A    between atoms: C_20  and  C_21
REMARK    5  A    between atoms: C_25  and  C_26
REMARK                            x       y       z     vdW  Elec       q    Type
REMARK                         _______ _______ _______ _____ _____    ______ ____
ROOT
ATOM      1  O   UNL     1      21.584   5.997  21.839  0.00  0.00    -0.336 OA
ATOM      4  N   UNL     1      20.348   4.804  20.401  0.00  0.00    -0.190 NA
ATOM      5  N   UNL     1      20.382   6.699  21.683  0.00  0.00    -0.056 NA
ATOM     18  C   UNL     1      21.482   4.895  21.050  0.00  0.00    +0.245 A 
ATOM     20  C   UNL     1      19.706   5.933  20.822  0.00  0.00    +0.204 A 
ENDROOT
BRANCH  20  21
ATOM      6  N   UNL     1      16.607   5.907  18.768  0.00  0.00    -0.254 NA
ATOM     21  C   UNL     1      18.390   6.266  20.361  0.00  0.00    +0.041 A 
ATOM     22  C   UNL     1      17.626   7.230  21.010  0.00  0.00    +0.015 A 
ATOM     23  C   UNL     1      17.839   5.639  19.254  0.00  0.00    +0.123 A 
ATOM     24  C   UNL     1      16.353   7.533  20.540  0.00  0.00    +0.029 A 
ATOM     25  C   UNL     1      15.893   6.850  19.425  0.00  0.00    +0.074 A 
BRANCH  25  26
ATOM      7  N   UNL     1      12.190   7.174  19.150  0.00  0.00    -0.243 NA
ATOM      8  N   UNL     1      13.186   7.794  17.045  0.00  0.00    -0.243 NA
ATOM     26  C   UNL     1      14.582   7.111  18.882  0.00  0.00    +0.037 A 
ATOM     27  C   UNL     1      13.432   6.942  19.625  0.00  0.00    +0.124 A 
ATOM     28  C   UNL     1      14.396   7.544  17.585  0.00  0.00    +0.124 A 
ATOM     29  C   UNL     1      12.141   7.592  17.871  0.00  0.00    +0.221 A 
ENDBRANCH  25  26
ENDBRANCH  20  21
BRANCH  18  10
ATOM      2  N   UNL     1      23.931   4.635  21.406  0.00  0.00    -0.288 NA
ATOM     10  C   UNL     1      22.671   3.957  21.042  0.00  0.00    +0.146 C 
ATOM     11  C   UNL     1      24.778   3.623  22.036  0.00  0.00    +0.085 C 
ATOM     14  C   UNL     1      22.533   2.814  22.065  0.00  0.00    +0.030 C 
ATOM     15  C   UNL     1      23.789   2.892  22.921  0.00  0.00    +0.017 C 
BRANCH   2   9
ATOM      3  N   UNL     1      26.978   6.495  19.099  0.00  0.00    -0.305 NA
ATOM      9  C   UNL     1      24.589   5.274  20.269  0.00  0.00    +0.060 C 
ATOM     12  C   UNL     1      25.794   4.444  19.818  0.00  0.00    +0.034 C 
ATOM     13  C   UNL     1      25.038   6.696  20.623  0.00  0.00    +0.034 C 
ATOM     16  C   UNL     1      26.555   5.148  18.692  0.00  0.00    +0.085 C 
ATOM     17  C   UNL     1      25.824   7.326  19.469  0.00  0.00    +0.085 C 
ATOM     19  C   UNL     1      27.747   7.134  18.031  0.00  0.00    +0.104 C 
ENDBRANCH   2   9
ENDBRANCH  18  10
TORSDOF 4
ENDMDL
MODEL 3
REMARK VINA RESULT:      -7.2      2.176     10.186
REMARK  Name = 51136910
REMARK  5 active torsions:
REMARK  status: ('A' for Active; 'I' for Inactive)
REMARK    1  A    between atoms: N_2  and  C_9
REMARK    2  A    between atoms: N_3  and  C_19
REMARK    3  A    between atoms: C_10  and  C_18
REMARK    4  A    between atoms: C_20  and  C_21
REMARK    5  A    between atoms: C_25  and  C_26
REMARK                            x       y       z     vdW  Elec       q    Type
REMARK                         _______ _______ _______ _____ _____    ______ ____
ROOT
ATOM      1  O   UNL     1      16.953   9.140  21.589  0.00  0.00    -0.336 OA
ATOM      4  N   UNL     1      16.922   6.994  20.949  0.00  0.00    -0.190 NA
ATOM      5  N   UNL     1      18.245   8.648  21.815  0.00  0.00    -0.056 NA
ATOM     18  C   UNL     1      16.238   8.102  21.079  0.00  0.00    +0.245 A 
ATOM     20  C   UNL     1      18.148   7.377  21.413  0.00  0.00    +0.204 A 
ENDROOT
BRANCH  20  21
ATOM      6  N   UNL     1      21.117   5.544  22.698  0.00  0.00    -0.254 NA
ATOM     21  C   UNL     1      19.253   6.465  21.463  0.00  0.00    +0.041 A 
ATOM     22  C   UNL     1      19.548   5.636  20.387  0.00  0.00    +0.015 A 
ATOM     23  C   UNL     1      20.061   6.381  22.587  0.00  0.00    +0.123 A 
ATOM     24  C   UNL     1      20.626   4.761  20.464  0.00  0.00    +0.029 A 
ATOM     25  C   UNL     1      21.372   4.753  21.631  0.00  0.00    +0.074 A 
BRANCH  25  26
ATOM      7  N   UNL     1      24.615   3.034  20.983  0.00  0.00    -0.243 NA
ATOM      8  N   UNL     1      23.661   2.158  23.015  0.00  0.00    -0.243 NA
ATOM     26  C   UNL     1      22.504   3.872  21.783  0.00  0.00    +0.037 A 
ATOM     27  C   UNL     1      23.542   3.846  20.874  0.00  0.00    +0.124 A 
ATOM     28  C   UNL     1      22.619   2.997  22.844  0.00  0.00    +0.124 A 
ATOM     29  C   UNL     1      24.610   2.228  22.061  0.00  0.00    +0.221 A 
ENDBRANCH  25  26
ENDBRANCH  20  21
BRANCH  18  10
ATOM      2  N   UNL     1      14.360   7.730  19.490  0.00  0.00    -0.288 NA
ATOM     10  C   UNL     1      14.789   8.382  20.744  0.00  0.00    +0.146 C 
ATOM     11  C   UNL     1      12.929   7.461  19.632  0.00  0.00    +0.085 C 
ATOM     14  C   UNL     1      13.818   7.847  21.814  0.00  0.00    +0.030 C 
ATOM     15  C   UNL     1      12.845   6.953  21.057  0.00  0.00    +0.017 C 
BRANCH   2   9
ATOM      3  N   UNL     1      13.745  10.330  16.184  0.00  0.00    -0.305 NA
ATOM      9  C   UNL     1      14.655   8.524  18.299  0.00  0.00    +0.060 C 
ATOM     12  C   UNL     1      14.357  10.003  18.560  0.00  0.00    +0.034 C 
ATOM     13  C   UNL     1      13.843   8.032  17.097  0.00  0.00    +0.034 C 
ATOM     16  C   UNL     1      14.566  10.836  17.293  0.00  0.00    +0.085 C 
ATOM     17  C   UNL     1      14.069   8.930  15.878  0.00  0.00    +0.085 C 
ATOM     19  C   UNL     1      13.917  11.167  14.997  0.00  0.00    +0.104 C 
ENDBRANCH   2   9
ENDBRANCH  18  10
TORSDOF 4
ENDMDL
MODEL 4
REMARK VINA RESULT:      -7.2      3.262     10.740
REMARK  Name = 51136910
REMARK  5 active torsions:
REMARK  status: ('A' for Active; 'I' for Inactive)
REMARK    1  A    between atoms: N_2  and  C_9
REMARK    2  A    between atoms: N_3  and  C_19
REMARK    3  A    between atoms: C_10  and  C_18
REMARK    4  A    between atoms: C_20  and  C_21
REMARK    5  A    between atoms: C_25  and  C_26
REMARK                            x       y       z     vdW  Elec       q    Type
REMARK                         _______ _______ _______ _____ _____    ______ ____
ROOT
ATOM      1  O   UNL     1      15.383   8.919  20.379  0.00  0.00    -0.336 OA
ATOM      4  N   UNL     1      15.685   6.709  20.582  0.00  0.00    -0.190 NA
ATOM      5  N   UNL     1      16.767   8.721  20.455  0.00  0.00    -0.056 NA
ATOM     18  C   UNL     1      14.820   7.684  20.461  0.00  0.00    +0.245 A 
ATOM     20  C   UNL     1      16.866   7.394  20.573  0.00  0.00    +0.204 A 
ENDROOT
BRANCH  20  21
ATOM      6  N   UNL     1      19.606   4.964  19.928  0.00  0.00    -0.254 NA
ATOM     21  C   UNL     1      18.127   6.721  20.686  0.00  0.00    +0.041 A 
ATOM     22  C   UNL     1      19.077   7.129  21.615  0.00  0.00    +0.015 A 
ATOM     23  C   UNL     1      18.438   5.642  19.872  0.00  0.00    +0.123 A 
ATOM     24  C   UNL     1      20.292   6.457  21.702  0.00  0.00    +0.029 A 
ATOM     25  C   UNL     1      20.505   5.391  20.844  0.00  0.00    +0.074 A 
BRANCH  25  26
ATOM      7  N   UNL     1      24.113   4.529  20.478  0.00  0.00    -0.243 NA
ATOM      8  N   UNL     1      22.941   2.618  21.361  0.00  0.00    -0.243 NA
ATOM     26  C   UNL     1      21.742   4.647  20.876  0.00  0.00    +0.037 A 
ATOM     27  C   UNL     1      22.939   5.195  20.463  0.00  0.00    +0.124 A 
ATOM     28  C   UNL     1      21.804   3.342  21.320  0.00  0.00    +0.124 A 
ATOM     29  C   UNL     1      24.043   3.263  20.932  0.00  0.00    +0.221 A 
ENDBRANCH  25  26
ENDBRANCH  20  21
BRANCH  18  10
ATOM      2  N   UNL     1      12.686   8.964  20.454  0.00  0.00    -0.288 NA
ATOM     10  C   UNL     1      13.308   7.626  20.401  0.00  0.00    +0.146 C 
ATOM     11  C   UNL     1      11.428   8.865  19.714  0.00  0.00    +0.085 C 
ATOM     14  C   UNL     1      12.789   7.006  19.091  0.00  0.00    +0.030 C 
ATOM     15  C   UNL     1      11.837   8.041  18.509  0.00  0.00    +0.017 C 
BRANCH   2   9
ATOM      3  N   UNL     1      11.304  11.407  23.646  0.00  0.00    -0.305 NA
ATOM      9  C   UNL     1      12.486   9.452  21.817  0.00  0.00    +0.060 C 
ATOM     12  C   UNL     1      10.996   9.445  22.169  0.00  0.00    +0.034 C 
ATOM     13  C   UNL     1      13.054  10.865  21.983  0.00  0.00    +0.034 C 
ATOM     16  C   UNL     1      10.757  10.046  23.557  0.00  0.00    +0.085 C 
ATOM     17  C   UNL     1      12.748  11.419  23.377  0.00  0.00    +0.085 C 
ATOM     19  C   UNL     1      11.023  11.985  24.960  0.00  0.00    +0.104 C 
ENDBRANCH   2   9
ENDBRANCH  18  10
TORSDOF 4
ENDMDL
MODEL 5
REMARK VINA RESULT:      -7.0      2.586     10.658
REMARK  Name = 51136910
REMARK  5 active torsions:
REMARK  status: ('A' for Active; 'I' for Inactive)
REMARK    1  A    between atoms: N_2  and  C_9
REMARK    2  A    between atoms: N_3  and  C_19
REMARK    3  A    between atoms: C_10  and  C_18
REMARK    4  A    between atoms: C_20  and  C_21
REMARK    5  A    between atoms: C_25  and  C_26
REMARK                            x       y       z     vdW  Elec       q    Type
REMARK                         _______ _______ _______ _____ _____    ______ ____
ROOT
ATOM      1  O   UNL     1      14.444   6.796  19.273  0.00  0.00    -0.336 OA
ATOM      4  N   UNL     1      15.645   7.692  20.938  0.00  0.00    -0.190 NA
ATOM      5  N   UNL     1      15.710   6.200  19.204  0.00  0.00    -0.056 NA
ATOM     18  C   UNL     1      14.491   7.661  20.321  0.00  0.00    +0.245 A 
ATOM     20  C   UNL     1      16.361   6.779  20.218  0.00  0.00    +0.204 A 
ENDROOT
BRANCH  20  21
ATOM      6  N   UNL     1      19.703   5.155  20.089  0.00  0.00    -0.254 NA
ATOM     21  C   UNL     1      17.724   6.471  20.536  0.00  0.00    +0.041 A 
ATOM     22  C   UNL     1      18.392   7.142  21.555  0.00  0.00    +0.015 A 
ATOM     23  C   UNL     1      18.419   5.494  19.839  0.00  0.00    +0.123 A 
ATOM     24  C   UNL     1      19.714   6.821  21.842  0.00  0.00    +0.029 A 
ATOM     25  C   UNL     1      20.319   5.829  21.087  0.00  0.00    +0.074 A 
BRANCH  25  26
ATOM      7  N   UNL     1      23.504   5.048  22.859  0.00  0.00    -0.243 NA
ATOM      8  N   UNL     1      23.833   4.737  20.492  0.00  0.00    -0.243 NA
ATOM     26  C   UNL     1      21.689   5.444  21.327  0.00  0.00    +0.037 A 
ATOM     27  C   UNL     1      22.228   5.401  22.597  0.00  0.00    +0.124 A 
ATOM     28  C   UNL     1      22.547   5.099  20.304  0.00  0.00    +0.124 A 
ATOM     29  C   UNL     1      24.240   4.733  21.777  0.00  0.00    +0.221 A 
ENDBRANCH  25  26
ENDBRANCH  20  21
BRANCH  18  10
ATOM      2  N   UNL     1      12.230   8.329  19.525  0.00  0.00    -0.288 NA
ATOM     10  C   UNL     1      13.226   8.441  20.609  0.00  0.00    +0.146 C 
ATOM     11  C   UNL     1      10.917   8.468  20.153  0.00  0.00    +0.085 C 
ATOM     14  C   UNL     1      12.492   7.938  21.867  0.00  0.00    +0.030 C 
ATOM     15  C   UNL     1      11.076   7.626  21.404  0.00  0.00    +0.017 C 
BRANCH   2   9
ATOM      3  N   UNL     1      14.124  10.397  16.331  0.00  0.00    -0.305 NA
ATOM      9  C   UNL     1      12.434   9.302  18.454  0.00  0.00    +0.060 C 
ATOM     12  C   UNL     1      12.633   8.584  17.117  0.00  0.00    +0.034 C 
ATOM     13  C   UNL     1      13.640  10.199  18.750  0.00  0.00    +0.034 C 
ATOM     16  C   UNL     1      12.946   9.583  16.000  0.00  0.00    +0.085 C 
ATOM     17  C   UNL     1      13.920  11.145  17.579  0.00  0.00    +0.085 C 
ATOM     19  C   UNL     1      14.440  11.310  15.233  0.00  0.00    +0.104 C 
ENDBRANCH   2   9
ENDBRANCH  18  10
TORSDOF 4
ENDMDL
MODEL 6
REMARK VINA RESULT:      -7.0      1.569      2.357
REMARK  Name = 51136910
REMARK  5 active torsions:
REMARK  status: ('A' for Active; 'I' for Inactive)
REMARK    1  A    between atoms: N_2  and  C_9
REMARK    2  A    between atoms: N_3  and  C_19
REMARK    3  A    between atoms: C_10  and  C_18
REMARK    4  A    between atoms: C_20  and  C_21
REMARK    5  A    between atoms: C_25  and  C_26
REMARK                            x       y       z     vdW  Elec       q    Type
REMARK                         _______ _______ _______ _____ _____    ______ ____
ROOT
ATOM      1  O   UNL     1      21.491   6.553  22.545  0.00  0.00    -0.336 OA
ATOM      4  N   UNL     1      20.630   5.269  20.924  0.00  0.00    -0.190 NA
ATOM      5  N   UNL     1      20.234   7.093  22.247  0.00  0.00    -0.056 NA
ATOM     18  C   UNL     1      21.646   5.482  21.721  0.00  0.00    +0.245 A 
ATOM     20  C   UNL     1      19.788   6.282  21.283  0.00  0.00    +0.204 A 
ENDROOT
BRANCH  20  21
ATOM      6  N   UNL     1      16.379   7.597  20.594  0.00  0.00    -0.254 NA
ATOM     21  C   UNL     1      18.510   6.455  20.657  0.00  0.00    +0.041 A 
ATOM     22  C   UNL     1      18.145   5.698  19.550  0.00  0.00    +0.015 A 
ATOM     23  C   UNL     1      17.599   7.384  21.136  0.00  0.00    +0.123 A 
ATOM     24  C   UNL     1      16.898   5.887  18.964  0.00  0.00    +0.029 A 
ATOM     25  C   UNL     1      16.059   6.841  19.519  0.00  0.00    +0.074 A 
BRANCH  25  26
ATOM      7  N   UNL     1      12.356   7.107  19.198  0.00  0.00    -0.243 NA
ATOM      8  N   UNL     1      13.369   7.800  17.125  0.00  0.00    -0.243 NA
ATOM     26  C   UNL     1      14.752   7.093  18.963  0.00  0.00    +0.037 A 
ATOM     27  C   UNL     1      13.594   6.884  19.685  0.00  0.00    +0.124 A 
ATOM     28  C   UNL     1      14.575   7.556  17.676  0.00  0.00    +0.124 A 
ATOM     29  C   UNL     1      12.316   7.557  17.930  0.00  0.00    +0.221 A 
ENDBRANCH  25  26
ENDBRANCH  20  21
BRANCH  18  10
ATOM      2  N   UNL     1      22.753   3.365  22.415  0.00  0.00    -0.288 NA
ATOM     10  C   UNL     1      22.945   4.715  21.849  0.00  0.00    +0.146 C 
ATOM     11  C   UNL     1      23.816   2.528  21.860  0.00  0.00    +0.085 C 
ATOM     14  C   UNL     1      23.630   4.475  20.491  0.00  0.00    +0.030 C 
ATOM     15  C   UNL     1      23.837   2.969  20.410  0.00  0.00    +0.017 C 
BRANCH   2   9
ATOM      3  N   UNL     1      24.051   2.626  26.395  0.00  0.00    -0.305 NA
ATOM      9  C   UNL     1      22.747   3.349  23.876  0.00  0.00    +0.060 C 
ATOM     12  C   UNL     1      23.956   4.115  24.420  0.00  0.00    +0.034 C 
ATOM     13  C   UNL     1      22.757   1.913  24.410  0.00  0.00    +0.034 C 
ATOM     16  C   UNL     1      24.022   4.026  25.947  0.00  0.00    +0.085 C 
ATOM     17  C   UNL     1      22.862   1.896  25.938  0.00  0.00    +0.085 C 
ATOM     19  C   UNL     1      24.165   2.558  27.852  0.00  0.00    +0.104 C 
ENDBRANCH   2   9
ENDBRANCH  18  10
TORSDOF 4
ENDMDL
MODEL 7
REMARK VINA RESULT:      -6.6     28.804     32.419
REMARK  Name = 51136910
REMARK  5 active torsions:
REMARK  status: ('A' for Active; 'I' for Inactive)
REMARK    1  A    between atoms: N_2  and  C_9
REMARK    2  A    between atoms: N_3  and  C_19
REMARK    3  A    between atoms: C_10  and  C_18
REMARK    4  A    between atoms: C_20  and  C_21
REMARK    5  A    between atoms: C_25  and  C_26
REMARK                            x       y       z     vdW  Elec       q    Type
REMARK                         _______ _______ _______ _____ _____    ______ ____
ROOT
ATOM      1  O   UNL     1      -7.685  -9.786  17.672  0.00  0.00    -0.336 OA
ATOM      4  N   UNL     1      -8.425  -9.958  15.565  0.00  0.00    -0.190 NA
ATOM      5  N   UNL     1      -8.658  -8.790  17.518  0.00  0.00    -0.056 NA
ATOM     18  C   UNL     1      -7.610 -10.427  16.475  0.00  0.00    +0.245 A 
ATOM     20  C   UNL     1      -9.047  -8.955  16.251  0.00  0.00    +0.204 A 
ENDROOT
BRANCH  20  21
ATOM      6  N   UNL     1     -11.036  -5.947  15.345  0.00  0.00    -0.254 NA
ATOM     21  C   UNL     1     -10.053  -8.136  15.639  0.00  0.00    +0.041 A 
ATOM     22  C   UNL     1     -10.996  -8.683  14.776  0.00  0.00    +0.015 A 
ATOM     23  C   UNL     1     -10.115  -6.774  15.888  0.00  0.00    +0.123 A 
ATOM     24  C   UNL     1     -11.960  -7.865  14.198  0.00  0.00    +0.029 A 
ATOM     25  C   UNL     1     -11.937  -6.515  14.512  0.00  0.00    +0.074 A 
BRANCH  25  26
ATOM      7  N   UNL     1     -15.189  -5.061  13.416  0.00  0.00    -0.243 NA
ATOM      8  N   UNL     1     -13.419  -3.527  12.848  0.00  0.00    -0.243 NA
ATOM     26  C   UNL     1     -12.905  -5.605  13.948  0.00  0.00    +0.037 A 
ATOM     27  C   UNL     1     -14.256  -5.886  13.935  0.00  0.00    +0.124 A 
ATOM     28  C   UNL     1     -12.542  -4.399  13.386  0.00  0.00    +0.124 A 
ATOM     29  C   UNL     1     -14.708  -3.916  12.896  0.00  0.00    +0.221 A 
ENDBRANCH  25  26
ENDBRANCH  20  21
BRANCH  18  10
ATOM      2  N   UNL     1      -5.241 -11.148  16.728  0.00  0.00    -0.288 NA
ATOM     10  C   UNL     1      -6.615 -11.564  16.380  0.00  0.00    +0.146 C 
ATOM     11  C   UNL     1      -4.578 -12.329  17.278  0.00  0.00    +0.085 C 
ATOM     14  C   UNL     1      -6.932 -12.714  17.354  0.00  0.00    +0.030 C 
ATOM     15  C   UNL     1      -5.659 -12.912  18.166  0.00  0.00    +0.017 C 
BRANCH   2   9
ATOM      3  N   UNL     1      -2.754 -10.961  13.286  0.00  0.00    -0.305 NA
ATOM      9  C   UNL     1      -4.509 -10.582  15.598  0.00  0.00    +0.060 C 
ATOM     12  C   UNL     1      -5.008 -11.189  14.284  0.00  0.00    +0.034 C 
ATOM     13  C   UNL     1      -3.003 -10.822  15.744  0.00  0.00    +0.034 C 
ATOM     16  C   UNL     1      -4.185 -10.682  13.097  0.00  0.00    +0.085 C 
ATOM     17  C   UNL     1      -2.246 -10.326  14.509  0.00  0.00    +0.085 C 
ATOM     19  C   UNL     1      -1.989 -10.517  12.121  0.00  0.00    +0.104 C 
ENDBRANCH   2   9
ENDBRANCH  18  10
TORSDOF 4
ENDMDL
MODEL 8
REMARK VINA RESULT:      -6.6     29.747     32.823
REMARK  Name = 51136910
REMARK  5 active torsions:
REMARK  status: ('A' for Active; 'I' for Inactive)
REMARK    1  A    between atoms: N_2  and  C_9
REMARK    2  A    between atoms: N_3  and  C_19
REMARK    3  A    between atoms: C_10  and  C_18
REMARK    4  A    between atoms: C_20  and  C_21
REMARK    5  A    between atoms: C_25  and  C_26
REMARK                            x       y       z     vdW  Elec       q    Type
REMARK                         _______ _______ _______ _____ _____    ______ ____
ROOT
ATOM      1  O   UNL     1      -9.578 -11.603  16.846  0.00  0.00    -0.336 OA
ATOM      4  N   UNL     1      -8.808  -9.506  16.692  0.00  0.00    -0.190 NA
ATOM      5  N   UNL     1     -10.589 -10.862  16.219  0.00  0.00    -0.056 NA
ATOM     18  C   UNL     1      -8.566 -10.729  17.090  0.00  0.00    +0.245 A 
ATOM     20  C   UNL     1     -10.060  -9.636  16.163  0.00  0.00    +0.204 A 
ENDROOT
BRANCH  20  21
ATOM      6  N   UNL     1     -12.275  -7.678  13.908  0.00  0.00    -0.254 NA
ATOM     21  C   UNL     1     -10.755  -8.522  15.590  0.00  0.00    +0.041 A 
ATOM     22  C   UNL     1     -10.612  -7.241  16.113  0.00  0.00    +0.015 A 
ATOM     23  C   UNL     1     -11.592  -8.685  14.496  0.00  0.00    +0.123 A 
ATOM     24  C   UNL     1     -11.299  -6.179  15.535  0.00  0.00    +0.029 A 
ATOM     25  C   UNL     1     -12.110  -6.447  14.445  0.00  0.00    +0.074 A 
BRANCH  25  26
ATOM      7  N   UNL     1     -14.959  -4.443  13.118  0.00  0.00    -0.243 NA
ATOM      8  N   UNL     1     -12.897  -3.312  12.589  0.00  0.00    -0.243 NA
ATOM     26  C   UNL     1     -12.853  -5.395  13.795  0.00  0.00    +0.037 A 
ATOM     27  C   UNL     1     -14.231  -5.408  13.719  0.00  0.00    +0.124 A 
ATOM     28  C   UNL     1     -12.234  -4.311  13.206  0.00  0.00    +0.124 A 
ATOM     29  C   UNL     1     -14.238  -3.440  12.581  0.00  0.00    +0.221 A 
ENDBRANCH  25  26
ENDBRANCH  20  21
BRANCH  18  10
ATOM      2  N   UNL     1      -6.109 -10.545  17.435  0.00  0.00    -0.288 NA
ATOM     10  C   UNL     1      -7.337 -11.292  17.771  0.00  0.00    +0.146 C 
ATOM     11  C   UNL     1      -5.219 -10.672  18.589  0.00  0.00    +0.085 C 
ATOM     14  C   UNL     1      -7.427 -11.226  19.307  0.00  0.00    +0.030 C 
ATOM     15  C   UNL     1      -6.176 -10.477  19.747  0.00  0.00    +0.017 C 
BRANCH   2   9
ATOM      3  N   UNL     1      -3.413 -10.672  14.151  0.00  0.00    -0.305 NA
ATOM      9  C   UNL     1      -5.477 -11.003  16.200  0.00  0.00    +0.060 C 
ATOM     12  C   UNL     1      -4.009 -11.357  16.454  0.00  0.00    +0.034 C 
ATOM     13  C   UNL     1      -5.575  -9.935  15.106  0.00  0.00    +0.034 C 
ATOM     16  C   UNL     1      -3.304 -11.743  15.151  0.00  0.00    +0.085 C 
ATOM     17  C   UNL     1      -4.818 -10.369  13.847  0.00  0.00    +0.085 C 
ATOM     19  C   UNL     1      -2.692 -11.035  12.932  0.00  0.00    +0.104 C 
ENDBRANCH   2   9
ENDBRANCH  18  10
TORSDOF 4
ENDMDL
MODEL 9
REMARK VINA RESULT:      -6.6     28.755     33.750
REMARK  Name = 51136910
REMARK  5 active torsions:
REMARK  status: ('A' for Active; 'I' for Inactive)
REMARK    1  A    between atoms: N_2  and  C_9
REMARK    2  A    between atoms: N_3  and  C_19
REMARK    3  A    between atoms: C_10  and  C_18
REMARK    4  A    between atoms: C_20  and  C_21
REMARK    5  A    between atoms: C_25  and  C_26
REMARK                            x       y       z     vdW  Elec       q    Type
REMARK                         _______ _______ _______ _____ _____    ______ ____
ROOT
ATOM      1  O   UNL     1      -5.807 -10.671   5.271  0.00  0.00    -0.336 OA
ATOM      4  N   UNL     1      -6.505  -9.879   7.246  0.00  0.00    -0.190 NA
ATOM      5  N   UNL     1      -4.835 -11.049   6.207  0.00  0.00    -0.056 NA
ATOM     18  C   UNL     1      -6.754  -9.987   5.966  0.00  0.00    +0.245 A 
ATOM     20  C   UNL     1      -5.318 -10.546   7.347  0.00  0.00    +0.204 A 
ENDROOT
BRANCH  20  21
ATOM      6  N   UNL     1      -3.772 -12.146  10.327  0.00  0.00    -0.254 NA
ATOM     21  C   UNL     1      -4.640 -10.689   8.602  0.00  0.00    +0.041 A 
ATOM     22  C   UNL     1      -4.198  -9.577   9.310  0.00  0.00    +0.015 A 
ATOM     23  C   UNL     1      -4.404 -11.941   9.149  0.00  0.00    +0.123 A 
ATOM     24  C   UNL     1      -3.544  -9.747  10.525  0.00  0.00    +0.029 A 
ATOM     25  C   UNL     1      -3.357 -11.040  10.986  0.00  0.00    +0.074 A 
BRANCH  25  26
ATOM      7  N   UNL     1      -1.605 -12.823  13.751  0.00  0.00    -0.243 NA
ATOM      8  N   UNL     1      -1.832 -10.499  14.343  0.00  0.00    -0.243 NA
ATOM     26  C   UNL     1      -2.685 -11.293  12.238  0.00  0.00    +0.037 A 
ATOM     27  C   UNL     1      -2.235 -12.550  12.589  0.00  0.00    +0.124 A 
ATOM     28  C   UNL     1      -2.453 -10.297  13.163  0.00  0.00    +0.124 A 
ATOM     29  C   UNL     1      -1.440 -11.767  14.569  0.00  0.00    +0.221 A 
ENDBRANCH  25  26
ENDBRANCH  20  21
BRANCH  18  10
ATOM      2  N   UNL     1      -8.105  -8.005   5.303  0.00  0.00    -0.288 NA
ATOM     10  C   UNL     1      -7.930  -9.465   5.168  0.00  0.00    +0.146 C 
ATOM     11  C   UNL     1      -8.713  -7.543   4.056  0.00  0.00    +0.085 C 
ATOM     14  C   UNL     1      -7.772  -9.700   3.654  0.00  0.00    +0.030 C 
ATOM     15  C   UNL     1      -7.934  -8.327   3.018  0.00  0.00    +0.017 C 
BRANCH   2   9
ATOM      3  N   UNL     1     -10.273  -5.562   8.023  0.00  0.00    -0.305 NA
ATOM      9  C   UNL     1      -8.894  -7.626   6.473  0.00  0.00    +0.060 C 
ATOM     12  C   UNL     1     -10.240  -7.041   6.038  0.00  0.00    +0.034 C 
ATOM     13  C   UNL     1      -8.139  -6.612   7.339  0.00  0.00    +0.034 C 
ATOM     16  C   UNL     1     -11.039  -6.546   7.247  0.00  0.00    +0.085 C 
ATOM     17  C   UNL     1      -9.008  -6.132   8.505  0.00  0.00    +0.085 C 
ATOM     19  C   UNL     1     -11.070  -5.062   9.143  0.00  0.00    +0.104 C 
ENDBRANCH   2   9
ENDBRANCH  18  10
TORSDOF 4
ENDMDL
MODEL 10
REMARK VINA RESULT:      -6.5     32.718     35.419
REMARK  Name = 51136910
REMARK  5 active torsions:
REMARK  status: ('A' for Active; 'I' for Inactive)
REMARK    1  A    between atoms: N_2  and  C_9
REMARK    2  A    between atoms: N_3  and  C_19
REMARK    3  A    between atoms: C_10  and  C_18
REMARK    4  A    between atoms: C_20  and  C_21
REMARK    5  A    between atoms: C_25  and  C_26
REMARK                            x       y       z     vdW  Elec       q    Type
REMARK                         _______ _______ _______ _____ _____    ______ ____
ROOT
ATOM      1  O   UNL     1     -14.228  -5.432  14.160  0.00  0.00    -0.336 OA
ATOM      4  N   UNL     1     -12.016  -5.761  14.037  0.00  0.00    -0.190 NA
ATOM      5  N   UNL     1     -13.919  -6.377  15.147  0.00  0.00    -0.056 NA
ATOM     18  C   UNL     1     -13.051  -5.123  13.554  0.00  0.00    +0.245 A 
ATOM     20  C   UNL     1     -12.597  -6.518  15.013  0.00  0.00    +0.204 A 
ENDROOT
BRANCH  20  21
ATOM      6  N   UNL     1      -9.661  -8.147  16.612  0.00  0.00    -0.254 NA
ATOM     21  C   UNL     1     -11.828  -7.407  15.834  0.00  0.00    +0.041 A 
ATOM     22  C   UNL     1     -12.448  -8.365  16.629  0.00  0.00    +0.015 A 
ATOM     23  C   UNL     1     -10.444  -7.339  15.862  0.00  0.00    +0.123 A 
ATOM     24  C   UNL     1     -11.677  -9.214  17.415  0.00  0.00    +0.029 A 
ATOM     25  C   UNL     1     -10.300  -9.066  17.372  0.00  0.00    +0.074 A 
BRANCH  25  26
ATOM      7  N   UNL     1      -9.108 -11.372  20.045  0.00  0.00    -0.243 NA
ATOM      8  N   UNL     1      -7.272 -10.883  18.563  0.00  0.00    -0.243 NA
ATOM     26  C   UNL     1      -9.437  -9.910  18.161  0.00  0.00    +0.037 A 
ATOM     27  C   UNL     1      -9.886 -10.577  19.283  0.00  0.00    +0.124 A 
ATOM     28  C   UNL     1      -8.107 -10.103  17.846  0.00  0.00    +0.124 A 
ATOM     29  C   UNL     1      -7.830 -11.479  19.635  0.00  0.00    +0.221 A 
ENDBRANCH  25  26
ENDBRANCH  20  21
BRANCH  18  10
ATOM      2  N   UNL     1     -13.180  -4.735  11.099  0.00  0.00    -0.288 NA
ATOM     10  C   UNL     1     -13.116  -4.106  12.433  0.00  0.00    +0.146 C 
ATOM     11  C   UNL     1     -13.917  -3.809  10.240  0.00  0.00    +0.085 C 
ATOM     14  C   UNL     1     -14.374  -3.220  12.508  0.00  0.00    +0.030 C 
ATOM     15  C   UNL     1     -15.046  -3.368  11.150  0.00  0.00    +0.017 C 
BRANCH   2   9
ATOM      3  N   UNL     1     -10.200  -5.826   8.270  0.00  0.00    -0.305 NA
ATOM      9  C   UNL     1     -11.864  -5.062  10.554  0.00  0.00    +0.060 C 
ATOM     12  C   UNL     1     -11.486  -4.070   9.451  0.00  0.00    +0.034 C 
ATOM     13  C   UNL     1     -11.839  -6.491  10.002  0.00  0.00    +0.034 C 
ATOM     16  C   UNL     1     -10.155  -4.456   8.799  0.00  0.00    +0.085 C 
ATOM     17  C   UNL     1     -10.496  -6.796   9.333  0.00  0.00    +0.085 C 
ATOM     19  C   UNL     1      -8.940  -6.160   7.607  0.00  0.00    +0.104 C 
ENDBRANCH   2   9
ENDBRANCH  18  10
TORSDOF 4
ENDMDL
