MODEL 1
REMARK VINA RESULT:      -6.8      0.000      0.000
REMARK  Name = 26744106
REMARK  7 active torsions:
REMARK  status: ('A' for Active; 'I' for Inactive)
REMARK    1  A    between atoms: O_1  and  C_8
REMARK    2  A    between atoms: N_3  and  C_10
REMARK    3  A    between atoms: C_6  and  C_11
REMARK    4  A    between atoms: C_10  and  C_12
REMARK    5  A    between atoms: C_15  and  C_16
REMARK    6  A    between atoms: C_16  and  C_20
REMARK    7  A    between atoms: C_19  and  C_21
REMARK                            x       y       z     vdW  Elec       q    Type
REMARK                         _______ _______ _______ _____ _____    ______ ____
ROOT
ATOM      3  N   UNL     1      10.793   7.492   4.636  0.00  0.00    -0.285 NA
ATOM      6  C   UNL     1      10.971   7.422   3.171  0.00  0.00    +0.149 C 
ATOM      7  C   UNL     1      12.097   8.427   2.863  0.00  0.00    +0.061 C 
ATOM      8  C   UNL     1      12.456   9.042   4.209  0.00  0.00    +0.130 C 
ATOM      9  C   UNL     1      11.203   8.836   5.040  0.00  0.00    +0.116 C 
ENDROOT
BRANCH   6  11
ATOM      2  O   UNL     1      10.226   5.198   2.486  0.00  0.00    -0.336 OA
ATOM      4  N   UNL     1      12.447   5.475   2.432  0.00  0.00    -0.194 NA
ATOM      5  N   UNL     1      10.759   3.978   2.050  0.00  0.00    -0.061 NA
ATOM     11  C   UNL     1      11.286   6.022   2.688  0.00  0.00    +0.245 A 
ATOM     15  C   UNL     1      12.073   4.221   2.045  0.00  0.00    +0.176 A 
BRANCH  15  16
ATOM     16  C   UNL     1      13.050   3.201   1.647  0.00  0.00    +0.114 C 
BRANCH  16  20
ATOM     20  C   UNL     1      13.991   3.620   0.523  0.00  0.00    -0.040 A 
ATOM     22  C   UNL     1      13.497   3.801  -0.770  0.00  0.00    +0.004 A 
ATOM     23  C   UNL     1      15.345   3.824   0.786  0.00  0.00    +0.004 A 
ATOM     24  C   UNL     1      14.359   4.185  -1.798  0.00  0.00    +0.000 A 
ATOM     25  C   UNL     1      16.207   4.208  -0.243  0.00  0.00    +0.000 A 
ATOM     26  C   UNL     1      15.713   4.387  -1.534  0.00  0.00    +0.000 A 
ENDBRANCH  16  20
ENDBRANCH  15  16
ENDBRANCH   6  11
BRANCH   8   1
ATOM      1  O   UNL     1      12.770  10.414   4.066  0.00  0.00    -0.390 OA
ATOM     27  H   UNL     1      12.949  10.767   4.954  0.00  0.00    +0.210 HD
ENDBRANCH   8   1
BRANCH   3  10
ATOM     10  C   UNL     1       9.437   7.180   5.066  0.00  0.00    +0.120 C 
BRANCH  10  12
ATOM     12  C   UNL     1       9.417   6.490   6.404  0.00  0.00    -0.033 A 
ATOM     13  C   UNL     1       8.935   7.162   7.527  0.00  0.00    +0.005 A 
ATOM     14  C   UNL     1       9.883   5.180   6.520  0.00  0.00    +0.005 A 
ATOM     17  C   UNL     1       8.919   6.524   8.768  0.00  0.00    +0.003 A 
ATOM     18  C   UNL     1       9.866   4.542   7.761  0.00  0.00    +0.003 A 
ATOM     19  C   UNL     1       9.384   5.214   8.884  0.00  0.00    -0.050 A 
ATOM     21  C   UNL     1       9.367   4.533  10.211  0.00  0.00    +0.044 C 
ENDBRANCH  10  12
ENDBRANCH   3  10
TORSDOF 6
ENDMDL
MODEL 2
REMARK VINA RESULT:      -6.7     23.419     26.348
REMARK  Name = 26744106
REMARK  7 active torsions:
REMARK  status: ('A' for Active; 'I' for Inactive)
REMARK    1  A    between atoms: O_1  and  C_8
REMARK    2  A    between atoms: N_3  and  C_10
REMARK    3  A    between atoms: C_6  and  C_11
REMARK    4  A    between atoms: C_10  and  C_12
REMARK    5  A    between atoms: C_15  and  C_16
REMARK    6  A    between atoms: C_16  and  C_20
REMARK    7  A    between atoms: C_19  and  C_21
REMARK                            x       y       z     vdW  Elec       q    Type
REMARK                         _______ _______ _______ _____ _____    ______ ____
ROOT
ATOM      3  N   UNL     1      -5.976 -10.793  16.721  0.00  0.00    -0.285 NA
ATOM      6  C   UNL     1      -4.610 -10.494  17.198  0.00  0.00    +0.149 C 
ATOM      7  C   UNL     1      -4.517 -11.178  18.576  0.00  0.00    +0.061 C 
ATOM      8  C   UNL     1      -5.891 -11.795  18.804  0.00  0.00    +0.130 C 
ATOM      9  C   UNL     1      -6.803 -10.971  17.913  0.00  0.00    +0.116 C 
ENDROOT
BRANCH   6  11
ATOM      2  O   UNL     1      -2.255 -10.695  16.581  0.00  0.00    -0.336 OA
ATOM      4  N   UNL     1      -3.668 -11.604  15.101  0.00  0.00    -0.194 NA
ATOM      5  N   UNL     1      -1.459 -11.217  15.553  0.00  0.00    -0.061 NA
ATOM     11  C   UNL     1      -3.540 -10.965  16.237  0.00  0.00    +0.245 A 
ATOM     15  C   UNL     1      -2.365 -11.736  14.719  0.00  0.00    +0.176 A 
BRANCH  15  16
ATOM     16  C   UNL     1      -1.980 -12.404  13.471  0.00  0.00    +0.114 C 
BRANCH  16  20
ATOM     20  C   UNL     1      -2.554 -11.775  12.205  0.00  0.00    -0.040 A 
ATOM     22  C   UNL     1      -2.340 -10.423  11.938  0.00  0.00    +0.004 A 
ATOM     23  C   UNL     1      -3.292 -12.553  11.314  0.00  0.00    +0.004 A 
ATOM     24  C   UNL     1      -2.865  -9.849  10.780  0.00  0.00    +0.000 A 
ATOM     25  C   UNL     1      -3.817 -11.979  10.155  0.00  0.00    +0.000 A 
ATOM     26  C   UNL     1      -3.604 -10.627   9.889  0.00  0.00    +0.000 A 
ENDBRANCH  16  20
ENDBRANCH  15  16
ENDBRANCH   6  11
BRANCH   8   1
ATOM      1  O   UNL     1      -6.263 -11.701  20.165  0.00  0.00    -0.390 OA
ATOM     27  H   UNL     1      -5.632 -12.233  20.678  0.00  0.00    +0.210 HD
ENDBRANCH   8   1
BRANCH   3  10
ATOM     10  C   UNL     1      -6.510  -9.770  15.831  0.00  0.00    +0.120 C 
BRANCH  10  12
ATOM     12  C   UNL     1      -6.761 -10.306  14.447  0.00  0.00    -0.033 A 
ATOM     13  C   UNL     1      -6.169  -9.691  13.344  0.00  0.00    +0.005 A 
ATOM     14  C   UNL     1      -7.587 -11.415  14.268  0.00  0.00    +0.005 A 
ATOM     17  C   UNL     1      -6.403 -10.186  12.060  0.00  0.00    +0.003 A 
ATOM     18  C   UNL     1      -7.820 -11.910  12.984  0.00  0.00    +0.003 A 
ATOM     19  C   UNL     1      -7.229 -11.296  11.881  0.00  0.00    -0.050 A 
ATOM     21  C   UNL     1      -7.479 -11.824  10.509  0.00  0.00    +0.044 C 
ENDBRANCH  10  12
ENDBRANCH   3  10
TORSDOF 6
ENDMDL
MODEL 3
REMARK VINA RESULT:      -6.6     30.351     35.481
REMARK  Name = 26744106
REMARK  7 active torsions:
REMARK  status: ('A' for Active; 'I' for Inactive)
REMARK    1  A    between atoms: O_1  and  C_8
REMARK    2  A    between atoms: N_3  and  C_10
REMARK    3  A    between atoms: C_6  and  C_11
REMARK    4  A    between atoms: C_10  and  C_12
REMARK    5  A    between atoms: C_15  and  C_16
REMARK    6  A    between atoms: C_16  and  C_20
REMARK    7  A    between atoms: C_19  and  C_21
REMARK                            x       y       z     vdW  Elec       q    Type
REMARK                         _______ _______ _______ _____ _____    ______ ____
ROOT
ATOM      3  N   UNL     1     -16.727   4.258  23.135  0.00  0.00    -0.285 NA
ATOM      6  C   UNL     1     -17.839   3.750  23.964  0.00  0.00    +0.149 C 
ATOM      7  C   UNL     1     -18.851   3.174  22.956  0.00  0.00    +0.061 C 
ATOM      8  C   UNL     1     -18.241   3.444  21.586  0.00  0.00    +0.130 C 
ATOM      9  C   UNL     1     -17.304   4.611  21.839  0.00  0.00    +0.116 C 
ENDROOT
BRANCH   6  11
ATOM      2  O   UNL     1     -16.525   1.775  24.549  0.00  0.00    -0.336 OA
ATOM      4  N   UNL     1     -17.704   2.626  26.252  0.00  0.00    -0.194 NA
ATOM      5  N   UNL     1     -16.255   0.959  25.656  0.00  0.00    -0.061 NA
ATOM     11  C   UNL     1     -17.385   2.730  24.987  0.00  0.00    +0.245 A 
ATOM     15  C   UNL     1     -16.986   1.525  26.620  0.00  0.00    +0.176 A 
BRANCH  15  16
ATOM     16  C   UNL     1     -17.015   0.993  27.987  0.00  0.00    +0.114 C 
BRANCH  16  20
ATOM     20  C   UNL     1     -15.848   1.428  28.868  0.00  0.00    -0.040 A 
ATOM     22  C   UNL     1     -15.611   2.784  29.092  0.00  0.00    +0.004 A 
ATOM     23  C   UNL     1     -15.020   0.470  29.450  0.00  0.00    +0.004 A 
ATOM     24  C   UNL     1     -14.544   3.181  29.899  0.00  0.00    +0.000 A 
ATOM     25  C   UNL     1     -13.952   0.867  30.256  0.00  0.00    +0.000 A 
ATOM     26  C   UNL     1     -13.715   2.222  30.480  0.00  0.00    +0.000 A 
ENDBRANCH  16  20
ENDBRANCH  15  16
ENDBRANCH   6  11
BRANCH   8   1
ATOM      1  O   UNL     1     -19.245   3.772  20.646  0.00  0.00    -0.390 OA
ATOM     27  H   UNL     1     -19.988   3.161  20.787  0.00  0.00    +0.210 HD
ENDBRANCH   8   1
BRANCH   3  10
ATOM     10  C   UNL     1     -16.020   5.377  23.744  0.00  0.00    +0.120 C 
BRANCH  10  12
ATOM     12  C   UNL     1     -14.870   5.844  22.893  0.00  0.00    -0.033 A 
ATOM     13  C   UNL     1     -14.891   7.123  22.335  0.00  0.00    +0.005 A 
ATOM     14  C   UNL     1     -13.786   4.998  22.659  0.00  0.00    +0.005 A 
ATOM     17  C   UNL     1     -13.826   7.556  21.544  0.00  0.00    +0.003 A 
ATOM     18  C   UNL     1     -12.721   5.432  21.868  0.00  0.00    +0.003 A 
ATOM     19  C   UNL     1     -12.742   6.710  21.311  0.00  0.00    -0.050 A 
ATOM     21  C   UNL     1     -11.605   7.173  20.464  0.00  0.00    +0.044 C 
ENDBRANCH  10  12
ENDBRANCH   3  10
TORSDOF 6
ENDMDL
MODEL 4
REMARK VINA RESULT:      -6.6     23.659     26.409
REMARK  Name = 26744106
REMARK  7 active torsions:
REMARK  status: ('A' for Active; 'I' for Inactive)
REMARK    1  A    between atoms: O_1  and  C_8
REMARK    2  A    between atoms: N_3  and  C_10
REMARK    3  A    between atoms: C_6  and  C_11
REMARK    4  A    between atoms: C_10  and  C_12
REMARK    5  A    between atoms: C_15  and  C_16
REMARK    6  A    between atoms: C_16  and  C_20
REMARK    7  A    between atoms: C_19  and  C_21
REMARK                            x       y       z     vdW  Elec       q    Type
REMARK                         _______ _______ _______ _____ _____    ______ ____
ROOT
ATOM      3  N   UNL     1      -5.349 -11.108  16.945  0.00  0.00    -0.285 NA
ATOM      6  C   UNL     1      -6.726 -11.543  16.632  0.00  0.00    +0.149 C 
ATOM      7  C   UNL     1      -7.598 -10.914  17.735  0.00  0.00    +0.061 C 
ATOM      8  C   UNL     1      -6.618 -10.182  18.643  0.00  0.00    +0.130 C 
ATOM      9  C   UNL     1      -5.301 -10.892  18.391  0.00  0.00    +0.116 C 
ENDROOT
BRANCH   6  11
ATOM      2  O   UNL     1      -8.051 -11.962  14.623  0.00  0.00    -0.336 OA
ATOM      4  N   UNL     1      -6.804 -10.105  14.525  0.00  0.00    -0.194 NA
ATOM      5  N   UNL     1      -8.297 -11.394  13.366  0.00  0.00    -0.061 NA
ATOM     11  C   UNL     1      -7.162 -11.142  15.239  0.00  0.00    +0.245 A 
ATOM     15  C   UNL     1      -7.526 -10.303  13.384  0.00  0.00    +0.176 A 
BRANCH  15  16
ATOM     16  C   UNL     1      -7.460  -9.378  12.247  0.00  0.00    +0.114 C 
BRANCH  16  20
ATOM     20  C   UNL     1      -6.286  -9.609  11.301  0.00  0.00    -0.040 A 
ATOM     22  C   UNL     1      -5.353  -8.594  11.087  0.00  0.00    +0.004 A 
ATOM     23  C   UNL     1      -6.145 -10.835  10.652  0.00  0.00    +0.004 A 
ATOM     24  C   UNL     1      -4.279  -8.806  10.222  0.00  0.00    +0.000 A 
ATOM     25  C   UNL     1      -5.070 -11.047   9.787  0.00  0.00    +0.000 A 
ATOM     26  C   UNL     1      -4.138 -10.032   9.571  0.00  0.00    +0.000 A 
ENDBRANCH  16  20
ENDBRANCH  15  16
ENDBRANCH   6  11
BRANCH   8   1
ATOM      1  O   UNL     1      -7.017 -10.284  19.997  0.00  0.00    -0.390 OA
ATOM     27  H   UNL     1      -7.884 -10.725  20.013  0.00  0.00    +0.210 HD
ENDBRANCH   8   1
BRANCH   3  10
ATOM     10  C   UNL     1      -4.332 -12.050  16.497  0.00  0.00    +0.120 C 
BRANCH  10  12
ATOM     12  C   UNL     1      -3.552 -11.519  15.325  0.00  0.00    -0.033 A 
ATOM     13  C   UNL     1      -2.457 -10.681  15.539  0.00  0.00    +0.005 A 
ATOM     14  C   UNL     1      -3.926 -11.862  14.025  0.00  0.00    +0.005 A 
ATOM     17  C   UNL     1      -1.735 -10.187  14.452  0.00  0.00    +0.003 A 
ATOM     18  C   UNL     1      -3.203 -11.367  12.939  0.00  0.00    +0.003 A 
ATOM     19  C   UNL     1      -2.109 -10.530  13.152  0.00  0.00    -0.050 A 
ATOM     21  C   UNL     1      -1.337 -10.000  11.992  0.00  0.00    +0.044 C 
ENDBRANCH  10  12
ENDBRANCH   3  10
TORSDOF 6
ENDMDL
MODEL 5
REMARK VINA RESULT:      -6.5     23.380     27.080
REMARK  Name = 26744106
REMARK  7 active torsions:
REMARK  status: ('A' for Active; 'I' for Inactive)
REMARK    1  A    between atoms: O_1  and  C_8
REMARK    2  A    between atoms: N_3  and  C_10
REMARK    3  A    between atoms: C_6  and  C_11
REMARK    4  A    between atoms: C_10  and  C_12
REMARK    5  A    between atoms: C_15  and  C_16
REMARK    6  A    between atoms: C_16  and  C_20
REMARK    7  A    between atoms: C_19  and  C_21
REMARK                            x       y       z     vdW  Elec       q    Type
REMARK                         _______ _______ _______ _____ _____    ______ ____
ROOT
ATOM      3  N   UNL     1      -6.434 -10.570  17.473  0.00  0.00    -0.285 NA
ATOM      6  C   UNL     1      -4.958 -10.579  17.540  0.00  0.00    +0.149 C 
ATOM      7  C   UNL     1      -4.630 -11.274  18.876  0.00  0.00    +0.061 C 
ATOM      8  C   UNL     1      -5.983 -11.577  19.505  0.00  0.00    +0.130 C 
ATOM      9  C   UNL     1      -6.913 -10.570  18.854  0.00  0.00    +0.116 C 
ENDROOT
BRANCH   6  11
ATOM      2  O   UNL     1      -4.775 -12.515  16.061  0.00  0.00    -0.336 OA
ATOM      4  N   UNL     1      -3.388 -10.834  15.544  0.00  0.00    -0.194 NA
ATOM      5  N   UNL     1      -4.050 -12.940  14.940  0.00  0.00    -0.061 NA
ATOM     11  C   UNL     1      -4.324 -11.267  16.350  0.00  0.00    +0.245 A 
ATOM     15  C   UNL     1      -3.253 -11.895  14.696  0.00  0.00    +0.176 A 
BRANCH  15  16
ATOM     16  C   UNL     1      -2.295 -11.891  13.585  0.00  0.00    +0.114 C 
BRANCH  16  20
ATOM     20  C   UNL     1      -2.653 -10.958  12.433  0.00  0.00    -0.040 A 
ATOM     22  C   UNL     1      -3.963 -10.913  11.954  0.00  0.00    +0.004 A 
ATOM     23  C   UNL     1      -1.673 -10.150  11.859  0.00  0.00    +0.004 A 
ATOM     24  C   UNL     1      -4.290 -10.059  10.900  0.00  0.00    +0.000 A 
ATOM     25  C   UNL     1      -2.000  -9.296  10.805  0.00  0.00    +0.000 A 
ATOM     26  C   UNL     1      -3.308  -9.251  10.326  0.00  0.00    +0.000 A 
ENDBRANCH  16  20
ENDBRANCH  15  16
ENDBRANCH   6  11
BRANCH   8   1
ATOM      1  O   UNL     1      -5.932 -11.412  20.909  0.00  0.00    -0.390 OA
ATOM     27  H   UNL     1      -5.852 -12.296  21.305  0.00  0.00    +0.210 HD
ENDBRANCH   8   1
BRANCH   3  10
ATOM     10  C   UNL     1      -6.967  -9.450  16.707  0.00  0.00    +0.120 C 
BRANCH  10  12
ATOM     12  C   UNL     1      -8.469  -9.386  16.779  0.00  0.00    -0.033 A 
ATOM     13  C   UNL     1      -9.095  -8.233  17.253  0.00  0.00    +0.005 A 
ATOM     14  C   UNL     1      -9.234 -10.480  16.373  0.00  0.00    +0.005 A 
ATOM     17  C   UNL     1     -10.488  -8.175  17.322  0.00  0.00    +0.003 A 
ATOM     18  C   UNL     1     -10.626 -10.420  16.442  0.00  0.00    +0.003 A 
ATOM     19  C   UNL     1     -11.253  -9.269  16.916  0.00  0.00    -0.050 A 
ATOM     21  C   UNL     1     -12.741  -9.205  16.991  0.00  0.00    +0.044 C 
ENDBRANCH  10  12
ENDBRANCH   3  10
TORSDOF 6
ENDMDL
MODEL 6
REMARK VINA RESULT:      -6.5      2.992      8.075
REMARK  Name = 26744106
REMARK  7 active torsions:
REMARK  status: ('A' for Active; 'I' for Inactive)
REMARK    1  A    between atoms: O_1  and  C_8
REMARK    2  A    between atoms: N_3  and  C_10
REMARK    3  A    between atoms: C_6  and  C_11
REMARK    4  A    between atoms: C_10  and  C_12
REMARK    5  A    between atoms: C_15  and  C_16
REMARK    6  A    between atoms: C_16  and  C_20
REMARK    7  A    between atoms: C_19  and  C_21
REMARK                            x       y       z     vdW  Elec       q    Type
REMARK                         _______ _______ _______ _____ _____    ______ ____
ROOT
ATOM      3  N   UNL     1      13.332   3.927  -0.428  0.00  0.00    -0.285 NA
ATOM      6  C   UNL     1      13.552   3.505   0.970  0.00  0.00    +0.149 C 
ATOM      7  C   UNL     1      14.962   4.017   1.319  0.00  0.00    +0.061 C 
ATOM      8  C   UNL     1      15.470   4.674   0.042  0.00  0.00    +0.130 C 
ATOM      9  C   UNL     1      14.653   4.008  -1.050  0.00  0.00    +0.116 C 
ENDROOT
BRANCH   6  11
ATOM      2  O   UNL     1      11.681   3.102   2.489  0.00  0.00    -0.336 OA
ATOM      4  N   UNL     1      12.222   5.262   2.259  0.00  0.00    -0.194 NA
ATOM      5  N   UNL     1      10.791   3.815   3.303  0.00  0.00    -0.061 NA
ATOM     11  C   UNL     1      12.488   4.028   1.912  0.00  0.00    +0.245 A 
ATOM     15  C   UNL     1      11.174   5.081   3.113  0.00  0.00    +0.176 A 
BRANCH  15  16
ATOM     16  C   UNL     1      10.506   6.203   3.781  0.00  0.00    +0.114 C 
BRANCH  16  20
ATOM     20  C   UNL     1      10.521   6.142   5.305  0.00  0.00    -0.040 A 
ATOM     22  C   UNL     1      11.673   6.503   6.006  0.00  0.00    +0.004 A 
ATOM     23  C   UNL     1       9.385   5.727   5.997  0.00  0.00    +0.004 A 
ATOM     24  C   UNL     1      11.686   6.448   7.400  0.00  0.00    +0.000 A 
ATOM     25  C   UNL     1       9.399   5.671   7.392  0.00  0.00    +0.000 A 
ATOM     26  C   UNL     1      10.549   6.031   8.092  0.00  0.00    +0.000 A 
ENDBRANCH  16  20
ENDBRANCH  15  16
ENDBRANCH   6  11
BRANCH   8   1
ATOM      1  O   UNL     1      16.855   4.441  -0.125  0.00  0.00    -0.390 OA
ATOM     27  H   UNL     1      16.976   4.001  -0.983  0.00  0.00    +0.210 HD
ENDBRANCH   8   1
BRANCH   3  10
ATOM     10  C   UNL     1      12.434   3.044  -1.161  0.00  0.00    +0.120 C 
BRANCH  10  12
ATOM     12  C   UNL     1      11.262   3.790  -1.740  0.00  0.00    -0.033 A 
ATOM     13  C   UNL     1      10.672   4.829  -1.019  0.00  0.00    +0.005 A 
ATOM     14  C   UNL     1      10.764   3.442  -2.996  0.00  0.00    +0.005 A 
ATOM     17  C   UNL     1       9.584   5.519  -1.555  0.00  0.00    +0.003 A 
ATOM     18  C   UNL     1       9.677   4.133  -3.531  0.00  0.00    +0.003 A 
ATOM     19  C   UNL     1       9.087   5.171  -2.810  0.00  0.00    -0.050 A 
ATOM     21  C   UNL     1       7.923   5.909  -3.381  0.00  0.00    +0.044 C 
ENDBRANCH  10  12
ENDBRANCH   3  10
TORSDOF 6
ENDMDL
MODEL 7
REMARK VINA RESULT:      -6.4     23.076     25.658
REMARK  Name = 26744106
REMARK  7 active torsions:
REMARK  status: ('A' for Active; 'I' for Inactive)
REMARK    1  A    between atoms: O_1  and  C_8
REMARK    2  A    between atoms: N_3  and  C_10
REMARK    3  A    between atoms: C_6  and  C_11
REMARK    4  A    between atoms: C_10  and  C_12
REMARK    5  A    between atoms: C_15  and  C_16
REMARK    6  A    between atoms: C_16  and  C_20
REMARK    7  A    between atoms: C_19  and  C_21
REMARK                            x       y       z     vdW  Elec       q    Type
REMARK                         _______ _______ _______ _____ _____    ______ ____
ROOT
ATOM      3  N   UNL     1      -4.824  -9.758   9.477  0.00  0.00    -0.285 NA
ATOM      6  C   UNL     1      -5.866  -8.919  10.104  0.00  0.00    +0.149 C 
ATOM      7  C   UNL     1      -6.940  -8.746   9.014  0.00  0.00    +0.061 C 
ATOM      8  C   UNL     1      -6.393  -9.486   7.799  0.00  0.00    +0.130 C 
ATOM      9  C   UNL     1      -4.894  -9.503   8.039  0.00  0.00    +0.116 C 
ENDROOT
BRANCH   6  11
ATOM      2  O   UNL     1      -7.033 -10.728  11.259  0.00  0.00    -0.336 OA
ATOM      4  N   UNL     1      -6.386  -9.055  12.599  0.00  0.00    -0.194 NA
ATOM      5  N   UNL     1      -7.452 -11.079  12.549  0.00  0.00    -0.061 NA
ATOM     11  C   UNL     1      -6.415  -9.525  11.378  0.00  0.00    +0.245 A 
ATOM     15  C   UNL     1      -7.034 -10.043  13.282  0.00  0.00    +0.176 A 
BRANCH  15  16
ATOM     16  C   UNL     1      -7.261  -9.974  14.730  0.00  0.00    +0.114 C 
BRANCH  16  20
ATOM     20  C   UNL     1      -6.047 -10.322  15.585  0.00  0.00    -0.040 A 
ATOM     22  C   UNL     1      -6.141 -10.288  16.977  0.00  0.00    +0.004 A 
ATOM     23  C   UNL     1      -4.844 -10.676  14.976  0.00  0.00    +0.004 A 
ATOM     24  C   UNL     1      -5.030 -10.608  17.759  0.00  0.00    +0.000 A 
ATOM     25  C   UNL     1      -3.733 -10.996  15.759  0.00  0.00    +0.000 A 
ATOM     26  C   UNL     1      -3.827 -10.960  17.149  0.00  0.00    +0.000 A 
ENDBRANCH  16  20
ENDBRANCH  15  16
ENDBRANCH   6  11
BRANCH   8   1
ATOM      1  O   UNL     1      -6.725  -8.804   6.605  0.00  0.00    -0.390 OA
ATOM     27  H   UNL     1      -6.914  -9.476   5.929  0.00  0.00    +0.210 HD
ENDBRANCH   8   1
BRANCH   3  10
ATOM     10  C   UNL     1      -3.491  -9.515  10.013  0.00  0.00    +0.120 C 
BRANCH  10  12
ATOM     12  C   UNL     1      -3.052 -10.613  10.944  0.00  0.00    -0.033 A 
ATOM     13  C   UNL     1      -3.601 -11.890  10.825  0.00  0.00    +0.005 A 
ATOM     14  C   UNL     1      -2.098 -10.352  11.929  0.00  0.00    +0.005 A 
ATOM     17  C   UNL     1      -3.195 -12.907  11.690  0.00  0.00    +0.003 A 
ATOM     18  C   UNL     1      -1.693 -11.370  12.793  0.00  0.00    +0.003 A 
ATOM     19  C   UNL     1      -2.242 -12.646  12.674  0.00  0.00    -0.050 A 
ATOM     21  C   UNL     1      -1.810 -13.734  13.599  0.00  0.00    +0.044 C 
ENDBRANCH  10  12
ENDBRANCH   3  10
TORSDOF 6
ENDMDL
MODEL 8
REMARK VINA RESULT:      -6.4     24.722     27.919
REMARK  Name = 26744106
REMARK  7 active torsions:
REMARK  status: ('A' for Active; 'I' for Inactive)
REMARK    1  A    between atoms: O_1  and  C_8
REMARK    2  A    between atoms: N_3  and  C_10
REMARK    3  A    between atoms: C_6  and  C_11
REMARK    4  A    between atoms: C_10  and  C_12
REMARK    5  A    between atoms: C_15  and  C_16
REMARK    6  A    between atoms: C_16  and  C_20
REMARK    7  A    between atoms: C_19  and  C_21
REMARK                            x       y       z     vdW  Elec       q    Type
REMARK                         _______ _______ _______ _____ _____    ______ ____
ROOT
ATOM      3  N   UNL     1      -5.629 -11.204  17.856  0.00  0.00    -0.285 NA
ATOM      6  C   UNL     1      -5.878 -12.580  18.333  0.00  0.00    +0.149 C 
ATOM      7  C   UNL     1      -7.289 -12.534  18.950  0.00  0.00    +0.061 C 
ATOM      8  C   UNL     1      -7.732 -11.083  18.812  0.00  0.00    +0.130 C 
ATOM      9  C   UNL     1      -6.424 -10.320  18.707  0.00  0.00    +0.116 C 
ENDROOT
BRANCH   6  11
ATOM      2  O   UNL     1      -6.749 -13.635  16.309  0.00  0.00    -0.336 OA
ATOM      4  N   UNL     1      -4.814 -14.500  17.030  0.00  0.00    -0.194 NA
ATOM      5  N   UNL     1      -6.419 -14.655  15.407  0.00  0.00    -0.061 NA
ATOM     11  C   UNL     1      -5.753 -13.611  17.231  0.00  0.00    +0.245 A 
ATOM     15  C   UNL     1      -5.266 -15.117  15.900  0.00  0.00    +0.176 A 
BRANCH  15  16
ATOM     16  C   UNL     1      -4.536 -16.220  15.265  0.00  0.00    +0.114 C 
BRANCH  16  20
ATOM     20  C   UNL     1      -3.208 -15.824  14.627  0.00  0.00    -0.040 A 
ATOM     22  C   UNL     1      -3.092 -14.606  13.956  0.00  0.00    +0.004 A 
ATOM     23  C   UNL     1      -2.110 -16.679  14.716  0.00  0.00    +0.004 A 
ATOM     24  C   UNL     1      -1.877 -14.244  13.373  0.00  0.00    +0.000 A 
ATOM     25  C   UNL     1      -0.895 -16.317  14.133  0.00  0.00    +0.000 A 
ATOM     26  C   UNL     1      -0.779 -15.100  13.461  0.00  0.00    +0.000 A 
ENDBRANCH  16  20
ENDBRANCH  15  16
ENDBRANCH   6  11
BRANCH   8   1
ATOM      1  O   UNL     1      -8.484 -10.679  19.939  0.00  0.00    -0.390 OA
ATOM     27  H   UNL     1      -9.397 -10.986  19.806  0.00  0.00    +0.210 HD
ENDBRANCH   8   1
BRANCH   3  10
ATOM     10  C   UNL     1      -4.217 -10.842  17.856  0.00  0.00    +0.120 C 
BRANCH  10  12
ATOM     12  C   UNL     1      -3.655 -10.775  16.462  0.00  0.00    -0.033 A 
ATOM     13  C   UNL     1      -2.274 -10.743  16.268  0.00  0.00    +0.005 A 
ATOM     14  C   UNL     1      -4.515 -10.741  15.364  0.00  0.00    +0.005 A 
ATOM     17  C   UNL     1      -1.753 -10.678  14.975  0.00  0.00    +0.003 A 
ATOM     18  C   UNL     1      -3.993 -10.676  14.071  0.00  0.00    +0.003 A 
ATOM     19  C   UNL     1      -2.613 -10.645  13.877  0.00  0.00    -0.050 A 
ATOM     21  C   UNL     1      -2.055 -10.574  12.496  0.00  0.00    +0.044 C 
ENDBRANCH  10  12
ENDBRANCH   3  10
TORSDOF 6
ENDMDL
MODEL 9
REMARK VINA RESULT:      -6.4     22.966     26.417
REMARK  Name = 26744106
REMARK  7 active torsions:
REMARK  status: ('A' for Active; 'I' for Inactive)
REMARK    1  A    between atoms: O_1  and  C_8
REMARK    2  A    between atoms: N_3  and  C_10
REMARK    3  A    between atoms: C_6  and  C_11
REMARK    4  A    between atoms: C_10  and  C_12
REMARK    5  A    between atoms: C_15  and  C_16
REMARK    6  A    between atoms: C_16  and  C_20
REMARK    7  A    between atoms: C_19  and  C_21
REMARK                            x       y       z     vdW  Elec       q    Type
REMARK                         _______ _______ _______ _____ _____    ______ ____
ROOT
ATOM      3  N   UNL     1      -4.764 -11.065  11.175  0.00  0.00    -0.285 NA
ATOM      6  C   UNL     1      -3.292 -11.017  11.282  0.00  0.00    +0.149 C 
ATOM      7  C   UNL     1      -2.891  -9.695  10.600  0.00  0.00    +0.061 C 
ATOM      8  C   UNL     1      -4.200  -9.094  10.104  0.00  0.00    +0.130 C 
ATOM      9  C   UNL     1      -5.119 -10.295   9.984  0.00  0.00    +0.116 C 
ENDROOT
BRANCH   6  11
ATOM      2  O   UNL     1      -1.864 -12.049  12.975  0.00  0.00    -0.336 OA
ATOM      4  N   UNL     1      -3.168 -10.405  13.758  0.00  0.00    -0.194 NA
ATOM      5  N   UNL     1      -1.581 -11.946  14.343  0.00  0.00    -0.061 NA
ATOM     11  C   UNL     1      -2.807 -11.108  12.714  0.00  0.00    +0.245 A 
ATOM     15  C   UNL     1      -2.389 -10.956  14.733  0.00  0.00    +0.176 A 
BRANCH  15  16
ATOM     16  C   UNL     1      -2.435 -10.492  16.125  0.00  0.00    +0.114 C 
BRANCH  16  20
ATOM     20  C   UNL     1      -3.774 -10.699  16.824  0.00  0.00    -0.040 A 
ATOM     22  C   UNL     1      -3.881 -11.619  17.868  0.00  0.00    +0.004 A 
ATOM     23  C   UNL     1      -4.891  -9.967  16.423  0.00  0.00    +0.004 A 
ATOM     24  C   UNL     1      -5.107 -11.807  18.509  0.00  0.00    +0.000 A 
ATOM     25  C   UNL     1      -6.116 -10.155  17.063  0.00  0.00    +0.000 A 
ATOM     26  C   UNL     1      -6.224 -11.075  18.105  0.00  0.00    +0.000 A 
ENDBRANCH  16  20
ENDBRANCH  15  16
ENDBRANCH   6  11
BRANCH   8   1
ATOM      1  O   UNL     1      -4.015  -8.449   8.859  0.00  0.00    -0.390 OA
ATOM     27  H   UNL     1      -4.189  -9.104   8.162  0.00  0.00    +0.210 HD
ENDBRANCH   8   1
BRANCH   3  10
ATOM     10  C   UNL     1      -5.293 -12.422  11.129  0.00  0.00    +0.120 C 
BRANCH  10  12
ATOM     12  C   UNL     1      -5.376 -13.039  12.500  0.00  0.00    -0.033 A 
ATOM     13  C   UNL     1      -6.143 -12.430  13.493  0.00  0.00    +0.005 A 
ATOM     14  C   UNL     1      -4.683 -14.217  12.777  0.00  0.00    +0.005 A 
ATOM     17  C   UNL     1      -6.218 -13.000  14.764  0.00  0.00    +0.003 A 
ATOM     18  C   UNL     1      -4.759 -14.787  14.049  0.00  0.00    +0.003 A 
ATOM     19  C   UNL     1      -5.525 -14.179  15.042  0.00  0.00    -0.050 A 
ATOM     21  C   UNL     1      -5.605 -14.787  16.401  0.00  0.00    +0.044 C 
ENDBRANCH  10  12
ENDBRANCH   3  10
TORSDOF 6
ENDMDL
MODEL 10
REMARK VINA RESULT:      -6.4     28.269     32.798
REMARK  Name = 26744106
REMARK  7 active torsions:
REMARK  status: ('A' for Active; 'I' for Inactive)
REMARK    1  A    between atoms: O_1  and  C_8
REMARK    2  A    between atoms: N_3  and  C_10
REMARK    3  A    between atoms: C_6  and  C_11
REMARK    4  A    between atoms: C_10  and  C_12
REMARK    5  A    between atoms: C_15  and  C_16
REMARK    6  A    between atoms: C_16  and  C_20
REMARK    7  A    between atoms: C_19  and  C_21
REMARK                            x       y       z     vdW  Elec       q    Type
REMARK                         _______ _______ _______ _____ _____    ______ ____
ROOT
ATOM      3  N   UNL     1     -14.669   6.340  21.857  0.00  0.00    -0.285 NA
ATOM      6  C   UNL     1     -15.757   6.779  22.754  0.00  0.00    +0.149 C 
ATOM      7  C   UNL     1     -15.873   5.662  23.809  0.00  0.00    +0.061 C 
ATOM      8  C   UNL     1     -14.841   4.621  23.395  0.00  0.00    +0.130 C 
ATOM      9  C   UNL     1     -14.650   4.879  21.912  0.00  0.00    +0.116 C 
ENDROOT
BRANCH   6  11
ATOM      2  O   UNL     1     -16.560   8.765  23.930  0.00  0.00    -0.336 OA
ATOM      4  N   UNL     1     -14.376   8.815  23.436  0.00  0.00    -0.194 NA
ATOM      5  N   UNL     1     -16.078   9.986  24.419  0.00  0.00    -0.061 NA
ATOM     11  C   UNL     1     -15.495   8.139  23.367  0.00  0.00    +0.245 A 
ATOM     15  C   UNL     1     -14.784   9.941  24.089  0.00  0.00    +0.176 A 
BRANCH  15  16
ATOM     16  C   UNL     1     -13.862  11.037  24.410  0.00  0.00    +0.114 C 
BRANCH  16  20
ATOM     20  C   UNL     1     -12.886  10.740  25.544  0.00  0.00    -0.040 A 
ATOM     22  C   UNL     1     -13.368  10.411  26.811  0.00  0.00    +0.004 A 
ATOM     23  C   UNL     1     -11.512  10.797  25.314  0.00  0.00    +0.004 A 
ATOM     24  C   UNL     1     -12.474  10.139  27.848  0.00  0.00    +0.000 A 
ATOM     25  C   UNL     1     -10.619  10.525  26.351  0.00  0.00    +0.000 A 
ATOM     26  C   UNL     1     -11.100  10.197  27.617  0.00  0.00    +0.000 A 
ENDBRANCH  16  20
ENDBRANCH  15  16
ENDBRANCH   6  11
BRANCH   8   1
ATOM      1  O   UNL     1     -15.322   3.313  23.642  0.00  0.00    -0.390 OA
ATOM     27  H   UNL     1     -16.115   3.186  23.094  0.00  0.00    +0.210 HD
ENDBRANCH   8   1
BRANCH   3  10
ATOM     10  C   UNL     1     -14.811   6.836  20.494  0.00  0.00    +0.120 C 
BRANCH  10  12
ATOM     12  C   UNL     1     -13.561   7.521  20.013  0.00  0.00    -0.033 A 
ATOM     13  C   UNL     1     -13.625   8.420  18.948  0.00  0.00    +0.005 A 
ATOM     14  C   UNL     1     -12.338   7.255  20.630  0.00  0.00    +0.005 A 
ATOM     17  C   UNL     1     -12.465   9.054  18.500  0.00  0.00    +0.003 A 
ATOM     18  C   UNL     1     -11.179   7.890  20.181  0.00  0.00    +0.003 A 
ATOM     19  C   UNL     1     -11.242   8.788  19.117  0.00  0.00    -0.050 A 
ATOM     21  C   UNL     1     -10.003   9.465  18.637  0.00  0.00    +0.044 C 
ENDBRANCH  10  12
ENDBRANCH   3  10
TORSDOF 6
ENDMDL
