MODEL 1
REMARK VINA RESULT:      -6.2      0.000      0.000
REMARK  Name = 38028493
REMARK  11 active torsions:
REMARK  status: ('A' for Active; 'I' for Inactive)
REMARK    1  A    between atoms: N_3  and  C_13
REMARK    2  A    between atoms: N_4  and  C_20
REMARK    3  A    between atoms: C_6  and  C_10
REMARK    4  A    between atoms: C_7  and  C_13
REMARK    5  A    between atoms: C_9  and  C_14
REMARK    6  A    between atoms: C_10  and  C_15
REMARK    7  A    between atoms: C_10  and  C_16
REMARK    8  A    between atoms: C_11  and  C_17
REMARK    9  A    between atoms: C_14  and  C_18
REMARK   10  A    between atoms: C_19  and  C_21
REMARK   11  A    between atoms: C_20  and  C_22
REMARK                            x       y       z     vdW  Elec       q    Type
REMARK                         _______ _______ _______ _____ _____    ______ ____
ROOT
ATOM      6  C   UNL     1      -6.069 -10.546  15.440  0.00  0.00    +0.000 C 
ATOM      7  C   UNL     1      -6.759 -10.561  16.828  0.00  0.00    +0.032 C 
ATOM      8  C   UNL     1      -5.110 -11.738  15.306  0.00  0.00    +0.012 C 
ATOM      9  C   UNL     1      -4.020 -11.734  16.394  0.00  0.00    +0.023 C 
ATOM     11  C   UNL     1      -4.599 -11.484  17.771  0.00  0.00    -0.073 C 
ATOM     12  C   UNL     1      -5.830 -10.971  17.946  0.00  0.00    -0.022 C 
ATOM     17  C   UNL     1      -3.748 -11.877  18.946  0.00  0.00    +0.039 C 
ENDROOT
BRANCH   6  10
ATOM     10  C   UNL     1      -7.090 -10.570  14.298  0.00  0.00    -0.013 C 
ATOM     15  C   UNL     1      -7.489 -12.004  13.971  0.00  0.00    +0.007 C 
ATOM     16  C   UNL     1      -6.524  -9.871  13.065  0.00  0.00    +0.007 C 
ENDBRANCH   6  10
BRANCH   7  13
ATOM     13  C   UNL     1      -7.377  -9.196  17.152  0.00  0.00    +0.112 C 
BRANCH  13   3
ATOM      2  O   UNL     1      -9.988  -8.348  16.208  0.00  0.00    -0.276 OA
ATOM      3  N   UNL     1      -8.634  -9.352  17.816  0.00  0.00    -0.315 N 
ATOM     19  C   UNL     1      -9.846  -8.913  17.289  0.00  0.00    +0.210 C 
ATOM     21  C   UNL     1     -11.017  -9.225  18.183  0.00  0.00    +0.109 C 
ATOM     27  H   UNL     1      -8.649  -9.866  18.693  0.00  0.00    +0.149 HD
ENDBRANCH  13   3
ENDBRANCH   7  13
BRANCH   9  14
ATOM     14  C   UNL     1      -2.919 -10.717  16.069  0.00  0.00    +0.103 C 
BRANCH  14  18
ATOM      1  O   UNL     1      -1.411 -12.107  14.784  0.00  0.00    -0.276 OA
ATOM      4  N   UNL     1      -2.319 -10.201  13.813  0.00  0.00    -0.311 N 
ATOM     18  C   UNL     1      -2.127 -11.111  14.842  0.00  0.00    +0.214 C 
ATOM     28  H   UNL     1      -2.935  -9.406  13.954  0.00  0.00    +0.149 HD
BRANCH   4  20
ATOM     20  C   UNL     1      -1.684 -10.325  12.520  0.00  0.00    +0.141 C 
BRANCH  20  22
ATOM      5  N   UNL     1      -4.346 -11.635  10.177  0.00  0.00    -0.263 NA
ATOM     22  C   UNL     1      -2.686 -10.378  11.404  0.00  0.00    -0.012 A 
ATOM     23  C   UNL     1      -2.896  -9.280  10.577  0.00  0.00    +0.008 A 
ATOM     24  C   UNL     1      -3.430 -11.522  11.165  0.00  0.00    +0.115 A 
ATOM     25  C   UNL     1      -3.830  -9.358   9.550  0.00  0.00    +0.020 A 
ATOM     26  C   UNL     1      -4.523 -10.547   9.393  0.00  0.00    +0.111 A 
ENDBRANCH  20  22
ENDBRANCH   4  20
ENDBRANCH  14  18
ENDBRANCH   9  14
TORSDOF 7
ENDMDL
MODEL 2
REMARK VINA RESULT:      -6.1      2.810      7.263
REMARK  Name = 38028493
REMARK  11 active torsions:
REMARK  status: ('A' for Active; 'I' for Inactive)
REMARK    1  A    between atoms: N_3  and  C_13
REMARK    2  A    between atoms: N_4  and  C_20
REMARK    3  A    between atoms: C_6  and  C_10
REMARK    4  A    between atoms: C_7  and  C_13
REMARK    5  A    between atoms: C_9  and  C_14
REMARK    6  A    between atoms: C_10  and  C_15
REMARK    7  A    between atoms: C_10  and  C_16
REMARK    8  A    between atoms: C_11  and  C_17
REMARK    9  A    between atoms: C_14  and  C_18
REMARK   10  A    between atoms: C_19  and  C_21
REMARK   11  A    between atoms: C_20  and  C_22
REMARK                            x       y       z     vdW  Elec       q    Type
REMARK                         _______ _______ _______ _____ _____    ______ ____
ROOT
ATOM      6  C   UNL     1      -5.122 -10.567  10.790  0.00  0.00    +0.000 C 
ATOM      7  C   UNL     1      -4.572  -9.639   9.677  0.00  0.00    +0.032 C 
ATOM      8  C   UNL     1      -4.581 -10.138  12.162  0.00  0.00    +0.012 C 
ATOM      9  C   UNL     1      -3.042 -10.169  12.217  0.00  0.00    +0.023 C 
ATOM     11  C   UNL     1      -2.421  -9.503  11.006  0.00  0.00    -0.073 C 
ATOM     12  C   UNL     1      -3.124  -9.262   9.885  0.00  0.00    -0.022 C 
ATOM     17  C   UNL     1      -0.985  -9.078  11.129  0.00  0.00    +0.039 C 
ENDROOT
BRANCH   6  10
ATOM     10  C   UNL     1      -6.654 -10.577  10.816  0.00  0.00    -0.013 C 
ATOM     15  C   UNL     1      -7.188  -9.194  11.173  0.00  0.00    +0.007 C 
ATOM     16  C   UNL     1      -7.163 -11.624  11.802  0.00  0.00    +0.007 C 
ENDBRANCH   6  10
BRANCH   7  13
ATOM     13  C   UNL     1      -4.741 -10.277   8.293  0.00  0.00    +0.112 C 
BRANCH  13   3
ATOM      2  O   UNL     1      -5.627 -10.864   5.592  0.00  0.00    -0.276 OA
ATOM      3  N   UNL     1      -5.608  -9.490   7.474  0.00  0.00    -0.315 N 
ATOM     19  C   UNL     1      -5.985  -9.847   6.181  0.00  0.00    +0.210 C 
ATOM     21  C   UNL     1      -6.924  -8.853   5.552  0.00  0.00    +0.109 C 
ATOM     27  H   UNL     1      -6.020  -8.655   7.880  0.00  0.00    +0.149 HD
ENDBRANCH  13   3
ENDBRANCH   7  13
BRANCH   9  14
ATOM     14  C   UNL     1      -2.524 -11.603  12.379  0.00  0.00    +0.103 C 
BRANCH  14  18
ATOM      1  O   UNL     1      -2.285 -13.162  14.215  0.00  0.00    -0.276 OA
ATOM      4  N   UNL     1      -2.424 -10.885  14.657  0.00  0.00    -0.311 N 
ATOM     18  C   UNL     1      -2.396 -12.000  13.833  0.00  0.00    +0.214 C 
ATOM     28  H   UNL     1      -2.516  -9.960  14.247  0.00  0.00    +0.149 HD
BRANCH   4  20
ATOM     20  C   UNL     1      -2.322 -10.964  16.097  0.00  0.00    +0.141 C 
BRANCH  20  22
ATOM      5  N   UNL     1      -5.922  -9.983  16.707  0.00  0.00    -0.263 NA
ATOM     22  C   UNL     1      -3.661 -10.836  16.763  0.00  0.00    -0.012 A 
ATOM     23  C   UNL     1      -3.901 -11.414  18.005  0.00  0.00    +0.008 A 
ATOM     24  C   UNL     1      -4.695 -10.138  16.161  0.00  0.00    +0.115 A 
ATOM     25  C   UNL     1      -5.151 -11.277  18.598  0.00  0.00    +0.020 A 
ATOM     26  C   UNL     1      -6.119 -10.559  17.915  0.00  0.00    +0.111 A 
ENDBRANCH  20  22
ENDBRANCH   4  20
ENDBRANCH  14  18
ENDBRANCH   9  14
TORSDOF 7
ENDMDL
MODEL 3
REMARK VINA RESULT:      -6.1     19.768     23.633
REMARK  Name = 38028493
REMARK  11 active torsions:
REMARK  status: ('A' for Active; 'I' for Inactive)
REMARK    1  A    between atoms: N_3  and  C_13
REMARK    2  A    between atoms: N_4  and  C_20
REMARK    3  A    between atoms: C_6  and  C_10
REMARK    4  A    between atoms: C_7  and  C_13
REMARK    5  A    between atoms: C_9  and  C_14
REMARK    6  A    between atoms: C_10  and  C_15
REMARK    7  A    between atoms: C_10  and  C_16
REMARK    8  A    between atoms: C_11  and  C_17
REMARK    9  A    between atoms: C_14  and  C_18
REMARK   10  A    between atoms: C_19  and  C_21
REMARK   11  A    between atoms: C_20  and  C_22
REMARK                            x       y       z     vdW  Elec       q    Type
REMARK                         _______ _______ _______ _____ _____    ______ ____
ROOT
ATOM      6  C   UNL     1     -11.812  10.232  18.581  0.00  0.00    +0.000 C 
ATOM      7  C   UNL     1     -11.571   8.862  17.897  0.00  0.00    +0.032 C 
ATOM      8  C   UNL     1     -11.198  10.242  19.989  0.00  0.00    +0.012 C 
ATOM      9  C   UNL     1     -11.784   9.137  20.888  0.00  0.00    +0.023 C 
ATOM     11  C   UNL     1     -11.828   7.799  20.180  0.00  0.00    -0.073 C 
ATOM     12  C   UNL     1     -11.719   7.694  18.844  0.00  0.00    -0.022 C 
ATOM     17  C   UNL     1     -11.957   6.578  21.047  0.00  0.00    +0.039 C 
ENDROOT
BRANCH   6  10
ATOM     10  C   UNL     1     -11.238  11.387  17.756  0.00  0.00    -0.013 C 
ATOM     15  C   UNL     1      -9.813  11.072  17.317  0.00  0.00    +0.007 C 
ATOM     16  C   UNL     1     -11.283  12.685  18.556  0.00  0.00    +0.007 C 
ENDBRANCH   6  10
BRANCH   7  13
ATOM     13  C   UNL     1     -12.510   8.670  16.700  0.00  0.00    +0.112 C 
BRANCH  13   3
ATOM      2  O   UNL     1     -11.467  10.010  14.345  0.00  0.00    -0.276 OA
ATOM      3  N   UNL     1     -11.815   8.078  15.599  0.00  0.00    -0.315 N 
ATOM     19  C   UNL     1     -11.347   8.799  14.503  0.00  0.00    +0.210 C 
ATOM     21  C   UNL     1     -10.630   7.934  13.501  0.00  0.00    +0.109 C 
ATOM     27  H   UNL     1     -11.599   7.087  15.650  0.00  0.00    +0.149 HD
ENDBRANCH  13   3
ENDBRANCH   7  13
BRANCH   9  14
ATOM     14  C   UNL     1     -13.171   9.528  21.410  0.00  0.00    +0.103 C 
BRANCH  14  18
ATOM      1  O   UNL     1     -13.718  11.827  21.930  0.00  0.00    -0.276 OA
ATOM      4  N   UNL     1     -12.351  10.621  23.372  0.00  0.00    -0.311 N 
ATOM     18  C   UNL     1     -13.132  10.793  22.238  0.00  0.00    +0.214 C 
ATOM     28  H   UNL     1     -11.906   9.725  23.543  0.00  0.00    +0.149 HD
BRANCH   4  20
ATOM     20  C   UNL     1     -12.133  11.667  24.346  0.00  0.00    +0.141 C 
BRANCH  20  22
ATOM      5  N   UNL     1     -12.838  10.782  27.954  0.00  0.00    -0.263 NA
ATOM     22  C   UNL     1     -11.950  11.116  25.730  0.00  0.00    -0.012 A 
ATOM     23  C   UNL     1     -10.782  10.452  26.089  0.00  0.00    +0.008 A 
ATOM     24  C   UNL     1     -12.939  11.253  26.691  0.00  0.00    +0.115 A 
ATOM     25  C   UNL     1     -10.640   9.953  27.379  0.00  0.00    +0.020 A 
ATOM     26  C   UNL     1     -11.687  10.142  28.266  0.00  0.00    +0.111 A 
ENDBRANCH  20  22
ENDBRANCH   4  20
ENDBRANCH  14  18
ENDBRANCH   9  14
TORSDOF 7
ENDMDL
MODEL 4
REMARK VINA RESULT:      -5.8     20.098     25.255
REMARK  Name = 38028493
REMARK  11 active torsions:
REMARK  status: ('A' for Active; 'I' for Inactive)
REMARK    1  A    between atoms: N_3  and  C_13
REMARK    2  A    between atoms: N_4  and  C_20
REMARK    3  A    between atoms: C_6  and  C_10
REMARK    4  A    between atoms: C_7  and  C_13
REMARK    5  A    between atoms: C_9  and  C_14
REMARK    6  A    between atoms: C_10  and  C_15
REMARK    7  A    between atoms: C_10  and  C_16
REMARK    8  A    between atoms: C_11  and  C_17
REMARK    9  A    between atoms: C_14  and  C_18
REMARK   10  A    between atoms: C_19  and  C_21
REMARK   11  A    between atoms: C_20  and  C_22
REMARK                            x       y       z     vdW  Elec       q    Type
REMARK                         _______ _______ _______ _____ _____    ______ ____
ROOT
ATOM      6  C   UNL     1     -16.795   3.430  29.979  0.00  0.00    +0.000 C 
ATOM      7  C   UNL     1     -15.667   2.606  29.308  0.00  0.00    +0.032 C 
ATOM      8  C   UNL     1     -16.235   4.744  30.544  0.00  0.00    +0.012 C 
ATOM      9  C   UNL     1     -15.121   4.506  31.581  0.00  0.00    +0.023 C 
ATOM     11  C   UNL     1     -14.107   3.492  31.094  0.00  0.00    -0.073 C 
ATOM     12  C   UNL     1     -14.363   2.660  30.069  0.00  0.00    -0.022 C 
ATOM     17  C   UNL     1     -12.771   3.485  31.784  0.00  0.00    +0.039 C 
ENDROOT
BRANCH   6  10
ATOM     10  C   UNL     1     -17.938   3.729  29.004  0.00  0.00    -0.013 C 
ATOM     15  C   UNL     1     -17.480   4.715  27.934  0.00  0.00    +0.007 C 
ATOM     16  C   UNL     1     -19.150   4.272  29.755  0.00  0.00    +0.007 C 
ENDBRANCH   6  10
BRANCH   7  13
ATOM     13  C   UNL     1     -16.089   1.144  29.120  0.00  0.00    +0.112 C 
BRANCH  13   3
ATOM      2  O   UNL     1     -14.743  -0.609  31.002  0.00  0.00    -0.276 OA
ATOM      3  N   UNL     1     -14.951   0.315  28.873  0.00  0.00    -0.315 N 
ATOM     19  C   UNL     1     -14.365  -0.500  29.839  0.00  0.00    +0.210 C 
ATOM     21  C   UNL     1     -13.196  -1.286  29.307  0.00  0.00    +0.109 C 
ATOM     27  H   UNL     1     -14.589   0.273  27.925  0.00  0.00    +0.149 HD
ENDBRANCH  13   3
ENDBRANCH   7  13
BRANCH   9  14
ATOM     14  C   UNL     1     -15.708   4.088  32.934  0.00  0.00    +0.103 C 
BRANCH  14  18
ATOM      1  O   UNL     1     -16.301   5.342  34.917  0.00  0.00    -0.276 OA
ATOM      4  N   UNL     1     -14.361   5.883  33.758  0.00  0.00    -0.311 N 
ATOM     18  C   UNL     1     -15.520   5.156  33.988  0.00  0.00    +0.214 C 
ATOM     28  H   UNL     1     -13.774   5.653  32.963  0.00  0.00    +0.149 HD
BRANCH   4  20
ATOM     20  C   UNL     1     -13.929   6.970  34.608  0.00  0.00    +0.141 C 
BRANCH  20  22
ATOM      5  N   UNL     1     -11.341   9.673  34.063  0.00  0.00    -0.263 NA
ATOM     22  C   UNL     1     -12.935   7.860  33.921  0.00  0.00    -0.012 A 
ATOM     23  C   UNL     1     -12.676   7.729  32.561  0.00  0.00    +0.008 A 
ATOM     24  C   UNL     1     -12.248   8.838  34.621  0.00  0.00    +0.115 A 
ATOM     25  C   UNL     1     -11.750   8.568  31.951  0.00  0.00    +0.020 A 
ATOM     26  C   UNL     1     -11.116   9.516  32.738  0.00  0.00    +0.111 A 
ENDBRANCH  20  22
ENDBRANCH   4  20
ENDBRANCH  14  18
ENDBRANCH   9  14
TORSDOF 7
ENDMDL
MODEL 5
REMARK VINA RESULT:      -5.7     20.391     24.698
REMARK  Name = 38028493
REMARK  11 active torsions:
REMARK  status: ('A' for Active; 'I' for Inactive)
REMARK    1  A    between atoms: N_3  and  C_13
REMARK    2  A    between atoms: N_4  and  C_20
REMARK    3  A    between atoms: C_6  and  C_10
REMARK    4  A    between atoms: C_7  and  C_13
REMARK    5  A    between atoms: C_9  and  C_14
REMARK    6  A    between atoms: C_10  and  C_15
REMARK    7  A    between atoms: C_10  and  C_16
REMARK    8  A    between atoms: C_11  and  C_17
REMARK    9  A    between atoms: C_14  and  C_18
REMARK   10  A    between atoms: C_19  and  C_21
REMARK   11  A    between atoms: C_20  and  C_22
REMARK                            x       y       z     vdW  Elec       q    Type
REMARK                         _______ _______ _______ _____ _____    ______ ____
ROOT
ATOM      6  C   UNL     1     -15.271   1.549  30.168  0.00  0.00    +0.000 C 
ATOM      7  C   UNL     1     -16.591   1.885  29.429  0.00  0.00    +0.032 C 
ATOM      8  C   UNL     1     -15.392   1.885  31.661  0.00  0.00    +0.012 C 
ATOM      9  C   UNL     1     -15.719   3.372  31.899  0.00  0.00    +0.023 C 
ATOM     11  C   UNL     1     -16.844   3.851  31.005  0.00  0.00    -0.073 C 
ATOM     12  C   UNL     1     -17.229   3.167  29.912  0.00  0.00    -0.022 C 
ATOM     17  C   UNL     1     -17.548   5.113  31.418  0.00  0.00    +0.039 C 
ENDROOT
BRANCH   6  10
ATOM     10  C   UNL     1     -14.884   0.076  29.997  0.00  0.00    -0.013 C 
ATOM     15  C   UNL     1     -15.428  -0.754  31.155  0.00  0.00    +0.007 C 
ATOM     16  C   UNL     1     -13.368  -0.067  29.895  0.00  0.00    +0.007 C 
ENDBRANCH   6  10
BRANCH   7  13
ATOM     13  C   UNL     1     -16.371   1.963  27.914  0.00  0.00    +0.112 C 
BRANCH  13   3
ATOM      2  O   UNL     1     -16.358   0.557  25.375  0.00  0.00    -0.276 OA
ATOM      3  N   UNL     1     -17.496   1.432  27.209  0.00  0.00    -0.315 N 
ATOM     19  C   UNL     1     -17.400   0.768  25.989  0.00  0.00    +0.210 C 
ATOM     21  C   UNL     1     -18.734   0.290  25.479  0.00  0.00    +0.109 C 
ATOM     27  H   UNL     1     -18.408   1.490  27.654  0.00  0.00    +0.149 HD
ENDBRANCH  13   3
ENDBRANCH   7  13
BRANCH   9  14
ATOM     14  C   UNL     1     -14.472   4.246  31.728  0.00  0.00    +0.103 C 
BRANCH  14  18
ATOM      1  O   UNL     1     -13.922   4.567  34.063  0.00  0.00    -0.276 OA
ATOM      4  N   UNL     1     -14.228   6.420  32.694  0.00  0.00    -0.311 N 
ATOM     18  C   UNL     1     -14.174   5.060  32.967  0.00  0.00    +0.214 C 
ATOM     28  H   UNL     1     -14.442   6.734  31.752  0.00  0.00    +0.149 HD
BRANCH   4  20
ATOM     20  C   UNL     1     -13.986   7.436  33.693  0.00  0.00    +0.141 C 
BRANCH  20  22
ATOM      5  N   UNL     1     -11.070   8.928  31.804  0.00  0.00    -0.263 NA
ATOM     22  C   UNL     1     -12.744   8.227  33.401  0.00  0.00    -0.012 A 
ATOM     23  C   UNL     1     -12.118   8.970  34.396  0.00  0.00    +0.008 A 
ATOM     24  C   UNL     1     -12.186   8.239  32.133  0.00  0.00    +0.115 A 
ATOM     25  C   UNL     1     -10.968   9.692  34.096  0.00  0.00    +0.020 A 
ATOM     26  C   UNL     1     -10.489   9.639  32.797  0.00  0.00    +0.111 A 
ENDBRANCH  20  22
ENDBRANCH   4  20
ENDBRANCH  14  18
ENDBRANCH   9  14
TORSDOF 7
ENDMDL
MODEL 6
REMARK VINA RESULT:      -5.7     23.704     26.213
REMARK  Name = 38028493
REMARK  11 active torsions:
REMARK  status: ('A' for Active; 'I' for Inactive)
REMARK    1  A    between atoms: N_3  and  C_13
REMARK    2  A    between atoms: N_4  and  C_20
REMARK    3  A    between atoms: C_6  and  C_10
REMARK    4  A    between atoms: C_7  and  C_13
REMARK    5  A    between atoms: C_9  and  C_14
REMARK    6  A    between atoms: C_10  and  C_15
REMARK    7  A    between atoms: C_10  and  C_16
REMARK    8  A    between atoms: C_11  and  C_17
REMARK    9  A    between atoms: C_14  and  C_18
REMARK   10  A    between atoms: C_19  and  C_21
REMARK   11  A    between atoms: C_20  and  C_22
REMARK                            x       y       z     vdW  Elec       q    Type
REMARK                         _______ _______ _______ _____ _____    ______ ____
ROOT
ATOM      6  C   UNL     1       8.744   8.673   5.142  0.00  0.00    +0.000 C 
ATOM      7  C   UNL     1       8.667   8.296   6.644  0.00  0.00    +0.032 C 
ATOM      8  C   UNL     1       8.296   7.492   4.270  0.00  0.00    +0.012 C 
ATOM      9  C   UNL     1       9.158   6.236   4.502  0.00  0.00    +0.023 C 
ATOM     11  C   UNL     1       9.352   5.952   5.978  0.00  0.00    -0.073 C 
ATOM     12  C   UNL     1       9.116   6.880   6.921  0.00  0.00    -0.022 C 
ATOM     17  C   UNL     1       9.783   4.560   6.348  0.00  0.00    +0.039 C 
ENDROOT
BRANCH   6  10
ATOM     10  C   UNL     1       7.893   9.906   4.822  0.00  0.00    -0.013 C 
ATOM     15  C   UNL     1       6.845   9.570   3.768  0.00  0.00    +0.007 C 
ATOM     16  C   UNL     1       8.779  11.057   4.356  0.00  0.00    +0.007 C 
ENDBRANCH   6  10
BRANCH   7  13
ATOM     13  C   UNL     1       9.487   9.269   7.500  0.00  0.00    +0.112 C 
BRANCH  13   3
ATOM      2  O   UNL     1      11.721  10.662   8.722  0.00  0.00    -0.276 OA
ATOM      3  N   UNL     1      10.810   9.413   6.979  0.00  0.00    -0.315 N 
ATOM     19  C   UNL     1      11.828  10.102   7.634  0.00  0.00    +0.210 C 
ATOM     21  C   UNL     1      13.129  10.079   6.877  0.00  0.00    +0.109 C 
ATOM     27  H   UNL     1      11.036   8.933   6.112  0.00  0.00    +0.149 HD
ENDBRANCH  13   3
ENDBRANCH   7  13
BRANCH   9  14
ATOM     14  C   UNL     1      10.507   6.351   3.783  0.00  0.00    +0.103 C 
BRANCH  14  18
ATOM      1  O   UNL     1      10.048   5.412   1.601  0.00  0.00    -0.276 OA
ATOM      4  N   UNL     1      11.528   4.326   3.026  0.00  0.00    -0.311 N 
ATOM     18  C   UNL     1      10.646   5.337   2.671  0.00  0.00    +0.214 C 
ATOM     28  H   UNL     1      11.979   4.351   3.935  0.00  0.00    +0.149 HD
BRANCH   4  20
ATOM     20  C   UNL     1      11.852   3.219   2.155  0.00  0.00    +0.141 C 
BRANCH  20  22
ATOM      5  N   UNL     1      15.407   3.846   1.028  0.00  0.00    -0.263 NA
ATOM     22  C   UNL     1      13.023   3.528   1.266  0.00  0.00    -0.012 A 
ATOM     23  C   UNL     1      12.846   3.778  -0.090  0.00  0.00    +0.008 A 
ATOM     24  C   UNL     1      14.311   3.573   1.772  0.00  0.00    +0.115 A 
ATOM     25  C   UNL     1      13.949   4.062  -0.888  0.00  0.00    +0.020 A 
ATOM     26  C   UNL     1      15.197   4.084  -0.287  0.00  0.00    +0.111 A 
ENDBRANCH  20  22
ENDBRANCH   4  20
ENDBRANCH  14  18
ENDBRANCH   9  14
TORSDOF 7
ENDMDL
MODEL 7
REMARK VINA RESULT:      -5.7     23.936     26.183
REMARK  Name = 38028493
REMARK  11 active torsions:
REMARK  status: ('A' for Active; 'I' for Inactive)
REMARK    1  A    between atoms: N_3  and  C_13
REMARK    2  A    between atoms: N_4  and  C_20
REMARK    3  A    between atoms: C_6  and  C_10
REMARK    4  A    between atoms: C_7  and  C_13
REMARK    5  A    between atoms: C_9  and  C_14
REMARK    6  A    between atoms: C_10  and  C_15
REMARK    7  A    between atoms: C_10  and  C_16
REMARK    8  A    between atoms: C_11  and  C_17
REMARK    9  A    between atoms: C_14  and  C_18
REMARK   10  A    between atoms: C_19  and  C_21
REMARK   11  A    between atoms: C_20  and  C_22
REMARK                            x       y       z     vdW  Elec       q    Type
REMARK                         _______ _______ _______ _____ _____    ______ ____
ROOT
ATOM      6  C   UNL     1       8.985   8.382   3.304  0.00  0.00    +0.000 C 
ATOM      7  C   UNL     1       8.023   7.983   4.453  0.00  0.00    +0.032 C 
ATOM      8  C   UNL     1       9.443   7.137   2.532  0.00  0.00    +0.012 C 
ATOM      9  C   UNL     1      10.161   6.119   3.439  0.00  0.00    +0.023 C 
ATOM     11  C   UNL     1       9.400   5.875   4.725  0.00  0.00    -0.073 C 
ATOM     12  C   UNL     1       8.438   6.712   5.156  0.00  0.00    -0.022 C 
ATOM     17  C   UNL     1       9.736   4.622   5.484  0.00  0.00    +0.039 C 
ENDROOT
BRANCH   6  10
ATOM     10  C   UNL     1       8.335   9.381   2.342  0.00  0.00    -0.013 C 
ATOM     15  C   UNL     1       8.376   8.847   0.914  0.00  0.00    +0.007 C 
ATOM     16  C   UNL     1       9.031  10.736   2.432  0.00  0.00    +0.007 C 
ENDBRANCH   6  10
BRANCH   7  13
ATOM     13  C   UNL     1       7.889   9.114   5.479  0.00  0.00    +0.112 C 
BRANCH  13   3
ATOM      2  O   UNL     1       9.019   8.605   8.104  0.00  0.00    -0.276 OA
ATOM      3  N   UNL     1       9.173   9.514   5.964  0.00  0.00    -0.315 N 
ATOM     19  C   UNL     1       9.639   9.227   7.246  0.00  0.00    +0.210 C 
ATOM     21  C   UNL     1      11.031   9.744   7.488  0.00  0.00    +0.109 C 
ATOM     27  H   UNL     1       9.803   9.980   5.318  0.00  0.00    +0.149 HD
ENDBRANCH  13   3
ENDBRANCH   7  13
BRANCH   9  14
ATOM     14  C   UNL     1      11.601   6.560   3.729  0.00  0.00    +0.103 C 
BRANCH  14  18
ATOM      1  O   UNL     1      13.548   6.538   2.292  0.00  0.00    -0.276 OA
ATOM      4  N   UNL     1      12.265   4.613   2.509  0.00  0.00    -0.311 N 
ATOM     18  C   UNL     1      12.590   5.937   2.770  0.00  0.00    +0.214 C 
ATOM     28  H   UNL     1      11.452   4.200   2.956  0.00  0.00    +0.149 HD
BRANCH   4  20
ATOM     20  C   UNL     1      13.036   3.770   1.625  0.00  0.00    +0.141 C 
BRANCH  20  22
ATOM      5  N   UNL     1      10.514   4.006  -1.183  0.00  0.00    -0.263 NA
ATOM     22  C   UNL     1      12.438   3.702   0.250  0.00  0.00    -0.012 A 
ATOM     23  C   UNL     1      13.195   3.290  -0.842  0.00  0.00    +0.008 A 
ATOM     24  C   UNL     1      11.114   4.046   0.028  0.00  0.00    +0.115 A 
ATOM     25  C   UNL     1      12.613   3.236  -2.103  0.00  0.00    +0.020 A 
ATOM     26  C   UNL     1      11.282   3.600  -2.220  0.00  0.00    +0.111 A 
ENDBRANCH  20  22
ENDBRANCH   4  20
ENDBRANCH  14  18
ENDBRANCH   9  14
TORSDOF 7
ENDMDL
MODEL 8
REMARK VINA RESULT:      -5.4     19.523     21.217
REMARK  Name = 38028493
REMARK  11 active torsions:
REMARK  status: ('A' for Active; 'I' for Inactive)
REMARK    1  A    between atoms: N_3  and  C_13
REMARK    2  A    between atoms: N_4  and  C_20
REMARK    3  A    between atoms: C_6  and  C_10
REMARK    4  A    between atoms: C_7  and  C_13
REMARK    5  A    between atoms: C_9  and  C_14
REMARK    6  A    between atoms: C_10  and  C_15
REMARK    7  A    between atoms: C_10  and  C_16
REMARK    8  A    between atoms: C_11  and  C_17
REMARK    9  A    between atoms: C_14  and  C_18
REMARK   10  A    between atoms: C_19  and  C_21
REMARK   11  A    between atoms: C_20  and  C_22
REMARK                            x       y       z     vdW  Elec       q    Type
REMARK                         _______ _______ _______ _____ _____    ______ ____
ROOT
ATOM      6  C   UNL     1     -14.102   7.308  21.262  0.00  0.00    +0.000 C 
ATOM      7  C   UNL     1     -14.676   6.781  22.602  0.00  0.00    +0.032 C 
ATOM      8  C   UNL     1     -14.876   8.552  20.800  0.00  0.00    +0.012 C 
ATOM      9  C   UNL     1     -16.378   8.266  20.610  0.00  0.00    +0.023 C 
ATOM     11  C   UNL     1     -16.960   7.504  21.783  0.00  0.00    -0.073 C 
ATOM     12  C   UNL     1     -16.183   6.857  22.670  0.00  0.00    -0.022 C 
ATOM     17  C   UNL     1     -18.454   7.539  21.939  0.00  0.00    +0.039 C 
ENDROOT
BRANCH   6  10
ATOM     10  C   UNL     1     -12.610   7.637  21.373  0.00  0.00    -0.013 C 
ATOM     15  C   UNL     1     -12.358   9.095  21.003  0.00  0.00    +0.007 C 
ATOM     16  C   UNL     1     -11.792   6.705  20.485  0.00  0.00    +0.007 C 
ENDBRANCH   6  10
BRANCH   7  13
ATOM     13  C   UNL     1     -14.225   5.340  22.866  0.00  0.00    +0.112 C 
BRANCH  13   3
ATOM      2  O   UNL     1     -15.921   3.017  23.254  0.00  0.00    -0.276 OA
ATOM      3  N   UNL     1     -14.766   4.856  24.098  0.00  0.00    -0.315 N 
ATOM     19  C   UNL     1     -15.576   3.726  24.195  0.00  0.00    +0.210 C 
ATOM     21  C   UNL     1     -15.989   3.426  25.611  0.00  0.00    +0.109 C 
ATOM     27  H   UNL     1     -14.494   5.327  24.955  0.00  0.00    +0.149 HD
ENDBRANCH  13   3
ENDBRANCH   7  13
BRANCH   9  14
ATOM     14  C   UNL     1     -16.636   7.526  19.292  0.00  0.00    +0.103 C 
BRANCH  14  18
ATOM      1  O   UNL     1     -16.824   9.452  17.839  0.00  0.00    -0.276 OA
ATOM      4  N   UNL     1     -15.311   7.767  17.317  0.00  0.00    -0.311 N 
ATOM     18  C   UNL     1     -16.292   8.373  18.088  0.00  0.00    +0.214 C 
ATOM     28  H   UNL     1     -14.927   6.872  17.607  0.00  0.00    +0.149 HD
BRANCH   4  20
ATOM     20  C   UNL     1     -14.787   8.351  16.103  0.00  0.00    +0.141 C 
BRANCH  20  22
ATOM      5  N   UNL     1     -11.223   8.495  14.847  0.00  0.00    -0.263 NA
ATOM     22  C   UNL     1     -13.287   8.397  16.104  0.00  0.00    -0.012 A 
ATOM     23  C   UNL     1     -12.570   8.384  17.295  0.00  0.00    +0.008 A 
ATOM     24  C   UNL     1     -12.573   8.453  14.917  0.00  0.00    +0.115 A 
ATOM     25  C   UNL     1     -11.180   8.427  17.264  0.00  0.00    +0.020 A 
ATOM     26  C   UNL     1     -10.560   8.481  16.026  0.00  0.00    +0.111 A 
ENDBRANCH  20  22
ENDBRANCH   4  20
ENDBRANCH  14  18
ENDBRANCH   9  14
TORSDOF 7
ENDMDL
MODEL 9
REMARK VINA RESULT:      -5.4     24.578     27.900
REMARK  Name = 38028493
REMARK  11 active torsions:
REMARK  status: ('A' for Active; 'I' for Inactive)
REMARK    1  A    between atoms: N_3  and  C_13
REMARK    2  A    between atoms: N_4  and  C_20
REMARK    3  A    between atoms: C_6  and  C_10
REMARK    4  A    between atoms: C_7  and  C_13
REMARK    5  A    between atoms: C_9  and  C_14
REMARK    6  A    between atoms: C_10  and  C_15
REMARK    7  A    between atoms: C_10  and  C_16
REMARK    8  A    between atoms: C_11  and  C_17
REMARK    9  A    between atoms: C_14  and  C_18
REMARK   10  A    between atoms: C_19  and  C_21
REMARK   11  A    between atoms: C_20  and  C_22
REMARK                            x       y       z     vdW  Elec       q    Type
REMARK                         _______ _______ _______ _____ _____    ______ ____
ROOT
ATOM      6  C   UNL     1      17.817  -3.245  23.992  0.00  0.00    +0.000 C 
ATOM      7  C   UNL     1      19.032  -4.063  23.484  0.00  0.00    +0.032 C 
ATOM      8  C   UNL     1      18.285  -2.107  24.911  0.00  0.00    +0.012 C 
ATOM      9  C   UNL     1      19.068  -2.628  26.132  0.00  0.00    +0.023 C 
ATOM     11  C   UNL     1      20.113  -3.650  25.736  0.00  0.00    -0.073 C 
ATOM     12  C   UNL     1      20.088  -4.272  24.544  0.00  0.00    -0.022 C 
ATOM     17  C   UNL     1      21.214  -3.910  26.725  0.00  0.00    +0.039 C 
ENDROOT
BRANCH   6  10
ATOM     10  C   UNL     1      16.994  -2.672  22.834  0.00  0.00    -0.013 C 
ATOM     15  C   UNL     1      17.292  -1.188  22.653  0.00  0.00    +0.007 C 
ATOM     16  C   UNL     1      15.505  -2.899  23.077  0.00  0.00    +0.007 C 
ENDBRANCH   6  10
BRANCH   7  13
ATOM     13  C   UNL     1      18.589  -5.422  22.930  0.00  0.00    +0.112 C 
BRANCH  13   3
ATOM      2  O   UNL     1      18.962  -7.704  24.686  0.00  0.00    -0.276 OA
ATOM      3  N   UNL     1      17.616  -6.028  23.786  0.00  0.00    -0.315 N 
ATOM     19  C   UNL     1      17.881  -7.127  24.600  0.00  0.00    +0.210 C 
ATOM     21  C   UNL     1      16.689  -7.547  25.417  0.00  0.00    +0.109 C 
ATOM     27  H   UNL     1      16.700  -5.593  23.848  0.00  0.00    +0.149 HD
ENDBRANCH  13   3
ENDBRANCH   7  13
BRANCH   9  14
ATOM     14  C   UNL     1      18.119  -3.195  27.194  0.00  0.00    +0.103 C 
BRANCH  14  18
ATOM      1  O   UNL     1      19.296  -2.059  28.977  0.00  0.00    -0.276 OA
ATOM      4  N   UNL     1      16.989  -2.303  29.103  0.00  0.00    -0.311 N 
ATOM     18  C   UNL     1      18.233  -2.458  28.510  0.00  0.00    +0.214 C 
ATOM     28  H   UNL     1      16.163  -2.665  28.637  0.00  0.00    +0.149 HD
BRANCH   4  20
ATOM     20  C   UNL     1      16.796  -1.635  30.370  0.00  0.00    +0.141 C 
BRANCH  20  22
ATOM      5  N   UNL     1      16.136  -3.201  33.748  0.00  0.00    -0.263 NA
ATOM     22  C   UNL     1      16.258  -2.565  31.419  0.00  0.00    -0.012 A 
ATOM     23  C   UNL     1      15.418  -3.619  31.079  0.00  0.00    +0.008 A 
ATOM     24  C   UNL     1      16.584  -2.400  32.755  0.00  0.00    +0.115 A 
ATOM     25  C   UNL     1      14.936  -4.465  32.072  0.00  0.00    +0.020 A 
ATOM     26  C   UNL     1      15.321  -4.216  33.379  0.00  0.00    +0.111 A 
ENDBRANCH  20  22
ENDBRANCH   4  20
ENDBRANCH  14  18
ENDBRANCH   9  14
TORSDOF 7
ENDMDL
MODEL 10
REMARK VINA RESULT:      -5.3      2.229      8.849
REMARK  Name = 38028493
REMARK  11 active torsions:
REMARK  status: ('A' for Active; 'I' for Inactive)
REMARK    1  A    between atoms: N_3  and  C_13
REMARK    2  A    between atoms: N_4  and  C_20
REMARK    3  A    between atoms: C_6  and  C_10
REMARK    4  A    between atoms: C_7  and  C_13
REMARK    5  A    between atoms: C_9  and  C_14
REMARK    6  A    between atoms: C_10  and  C_15
REMARK    7  A    between atoms: C_10  and  C_16
REMARK    8  A    between atoms: C_11  and  C_17
REMARK    9  A    between atoms: C_14  and  C_18
REMARK   10  A    between atoms: C_19  and  C_21
REMARK   11  A    between atoms: C_20  and  C_22
REMARK                            x       y       z     vdW  Elec       q    Type
REMARK                         _______ _______ _______ _____ _____    ______ ____
ROOT
ATOM      6  C   UNL     1      -5.714 -10.811  17.729  0.00  0.00    +0.000 C 
ATOM      7  C   UNL     1      -5.026 -11.155  16.383  0.00  0.00    +0.032 C 
ATOM      8  C   UNL     1      -7.179 -11.271  17.715  0.00  0.00    +0.012 C 
ATOM      9  C   UNL     1      -7.984 -10.620  16.574  0.00  0.00    +0.023 C 
ATOM     11  C   UNL     1      -7.242 -10.683  15.254  0.00  0.00    -0.073 C 
ATOM     12  C   UNL     1      -5.923 -10.935  15.188  0.00  0.00    -0.022 C 
ATOM     17  C   UNL     1      -8.060 -10.492  14.008  0.00  0.00    +0.039 C 
ENDROOT
BRANCH   6  10
ATOM     10  C   UNL     1      -4.983 -11.441  18.918  0.00  0.00    -0.013 C 
ATOM     15  C   UNL     1      -4.605 -12.885  18.606  0.00  0.00    +0.007 C 
ATOM     16  C   UNL     1      -5.847 -11.368  20.173  0.00  0.00    +0.007 C 
ENDBRANCH   6  10
BRANCH   7  13
ATOM     13  C   UNL     1      -3.731 -10.353  16.205  0.00  0.00    +0.112 C 
BRANCH  13   3
ATOM      2  O   UNL     1      -1.185 -11.161  15.068  0.00  0.00    -0.276 OA
ATOM      3  N   UNL     1      -3.343 -10.315  14.829  0.00  0.00    -0.315 N 
ATOM     19  C   UNL     1      -2.094 -10.724  14.367  0.00  0.00    +0.210 C 
ATOM     21  C   UNL     1      -1.957 -10.602  12.873  0.00  0.00    +0.109 C 
ATOM     27  H   UNL     1      -4.039 -10.032  14.145  0.00  0.00    +0.149 HD
ENDBRANCH  13   3
ENDBRANCH   7  13
BRANCH   9  14
ATOM     14  C   UNL     1      -8.364  -9.176  16.921  0.00  0.00    +0.103 C 
BRANCH  14  18
ATOM      1  O   UNL     1     -10.702  -8.627  16.626  0.00  0.00    -0.276 OA
ATOM      4  N   UNL     1      -9.978  -9.494  18.656  0.00  0.00    -0.311 N 
ATOM     18  C   UNL     1      -9.809  -9.057  17.350  0.00  0.00    +0.214 C 
ATOM     28  H   UNL     1      -9.177  -9.838  19.177  0.00  0.00    +0.149 HD
BRANCH   4  20
ATOM     20  C   UNL     1     -11.257  -9.493  19.330  0.00  0.00    +0.141 C 
BRANCH  20  22
ATOM      5  N   UNL     1     -10.697 -12.938  20.786  0.00  0.00    -0.263 NA
ATOM     22  C   UNL     1     -11.516 -10.788  20.045  0.00  0.00    -0.012 A 
ATOM     23  C   UNL     1     -12.757 -11.056  20.614  0.00  0.00    +0.008 A 
ATOM     24  C   UNL     1     -10.529 -11.752  20.158  0.00  0.00    +0.115 A 
ATOM     25  C   UNL     1     -12.968 -12.264  21.269  0.00  0.00    +0.020 A 
ATOM     26  C   UNL     1     -11.916 -13.163  21.327  0.00  0.00    +0.111 A 
ENDBRANCH  20  22
ENDBRANCH   4  20
ENDBRANCH  14  18
ENDBRANCH   9  14
TORSDOF 7
ENDMDL
