MODEL 1
REMARK VINA RESULT:      -7.4      0.000      0.000
REMARK  Name = 11913341
REMARK  9 active torsions:
REMARK  status: ('A' for Active; 'I' for Inactive)
REMARK    1  A    between atoms: O_4  and  C_25
REMARK    2  A    between atoms: N_6  and  C_12
REMARK    3  A    between atoms: N_7  and  C_13
REMARK    4  A    between atoms: C_16  and  C_18
REMARK    5  A    between atoms: C_18  and  C_19
REMARK    6  A    between atoms: C_19  and  C_21
REMARK    7  A    between atoms: C_20  and  C_24
REMARK    8  A    between atoms: C_21  and  C_25
REMARK    9  A    between atoms: C_30  and  C_31
REMARK                            x       y       z     vdW  Elec       q    Type
REMARK                         _______ _______ _______ _____ _____    ______ ____
ROOT
ATOM      7  N   UNL     1      13.448  12.467  14.547  0.00  0.00    -0.306 N 
ATOM      8  N   UNL     1      12.201  12.252  12.600  0.00  0.00    -0.214 NA
ATOM      9  N   UNL     1      12.543  14.401  13.636  0.00  0.00    -0.223 NA
ATOM     17  C   UNL     1      12.698  13.066  13.552  0.00  0.00    +0.216 A 
ATOM     20  C   UNL     1      11.475  12.869  11.645  0.00  0.00    +0.076 A 
ATOM     22  C   UNL     1      11.806  14.952  12.649  0.00  0.00    +0.116 A 
ATOM     23  C   UNL     1      11.242  14.230  11.618  0.00  0.00    +0.048 A 
ATOM     38  H   UNL     1      13.781  13.066  15.294  0.00  0.00    +0.149 HD
ENDROOT
BRANCH   7  13
ATOM      1  O   UNL     1      12.903   9.050  15.712  0.00  0.00    -0.370 OA
ATOM      2  O   UNL     1      15.451  10.784  16.202  0.00  0.00    -0.370 OA
ATOM     10  C   UNL     1      14.206  10.641  16.907  0.00  0.00    +0.171 C 
ATOM     11  C   UNL     1      13.117  10.463  15.868  0.00  0.00    +0.171 C 
ATOM     12  C   UNL     1      14.189   9.345  17.684  0.00  0.00    +0.130 C 
ATOM     13  C   UNL     1      13.710  11.045  14.607  0.00  0.00    +0.130 C 
ATOM     14  C   UNL     1      13.744   8.342  16.635  0.00  0.00    +0.185 C 
ATOM     15  C   UNL     1      15.195  10.792  14.790  0.00  0.00    +0.185 C 
BRANCH  12   6
ATOM      3  O   UNL     1      14.810   9.838  20.444  0.00  0.00    -0.276 OA
ATOM      6  N   UNL     1      13.251   9.406  18.780  0.00  0.00    -0.308 N 
ATOM     16  C   UNL     1      13.651   9.651  20.087  0.00  0.00    +0.213 C 
ATOM     37  H   UNL     1      12.273   9.205  18.593  0.00  0.00    +0.149 HD
BRANCH  16  18
ATOM     18  C   UNL     1      12.473   9.634  21.047  0.00  0.00    +0.096 C 
BRANCH  18  19
ATOM     19  C   UNL     1      11.214   8.995  20.463  0.00  0.00    +0.020 C 
BRANCH  19  21
ATOM     21  C   UNL     1      10.880   7.657  21.123  0.00  0.00    +0.121 C 
BRANCH  21  25
ATOM      5  O   UNL     1      12.230   6.456  19.491  0.00  0.00    -0.251 OA
ATOM     25  C   UNL     1      11.771   6.543  20.621  0.00  0.00    +0.305 C 
BRANCH  25   4
ATOM      4  O   UNL     1      12.014   5.626  21.594  0.00  0.00    -0.481 OA
ATOM     39  H   UNL     1      12.830   5.111  21.414  0.00  0.00    +0.295 HD
ENDBRANCH  25   4
ENDBRANCH  21  25
ENDBRANCH  19  21
ENDBRANCH  18  19
ENDBRANCH  16  18
ENDBRANCH  12   6
ENDBRANCH   7  13
BRANCH  20  24
ATOM     24  C   UNL     1      10.940  12.000  10.624  0.00  0.00    +0.001 A 
ATOM     26  C   UNL     1      11.784  11.467   9.649  0.00  0.00    +0.010 A 
ATOM     27  C   UNL     1       9.580  11.692  10.613  0.00  0.00    +0.010 A 
ATOM     28  C   UNL     1      11.268  10.627   8.664  0.00  0.00    +0.009 A 
ATOM     29  C   UNL     1       9.063  10.852   9.627  0.00  0.00    +0.009 A 
ATOM     30  C   UNL     1       9.907  10.319   8.652  0.00  0.00    -0.018 A 
BRANCH  30  31
ATOM     31  C   UNL     1       9.371   9.448   7.630  0.00  0.00    -0.018 A 
ATOM     32  C   UNL     1       9.130   9.941   6.348  0.00  0.00    +0.008 A 
ATOM     33  C   UNL     1       9.095   8.112   7.926  0.00  0.00    +0.008 A 
ATOM     34  C   UNL     1       8.614   9.100   5.362  0.00  0.00    +0.001 A 
ATOM     35  C   UNL     1       8.579   7.271   6.940  0.00  0.00    +0.001 A 
ATOM     36  C   UNL     1       8.338   7.766   5.657  0.00  0.00    +0.000 A 
ENDBRANCH  30  31
ENDBRANCH  20  24
TORSDOF 9
ENDMDL
MODEL 2
REMARK VINA RESULT:      -7.2     25.389     27.948
REMARK  Name = 11913341
REMARK  9 active torsions:
REMARK  status: ('A' for Active; 'I' for Inactive)
REMARK    1  A    between atoms: O_4  and  C_25
REMARK    2  A    between atoms: N_6  and  C_12
REMARK    3  A    between atoms: N_7  and  C_13
REMARK    4  A    between atoms: C_16  and  C_18
REMARK    5  A    between atoms: C_18  and  C_19
REMARK    6  A    between atoms: C_19  and  C_21
REMARK    7  A    between atoms: C_20  and  C_24
REMARK    8  A    between atoms: C_21  and  C_25
REMARK    9  A    between atoms: C_30  and  C_31
REMARK                            x       y       z     vdW  Elec       q    Type
REMARK                         _______ _______ _______ _____ _____    ______ ____
ROOT
ATOM      7  N   UNL     1      -3.737 -11.742  16.802  0.00  0.00    -0.306 N 
ATOM      8  N   UNL     1      -3.410 -11.283  14.548  0.00  0.00    -0.214 NA
ATOM      9  N   UNL     1      -1.823 -10.565  16.214  0.00  0.00    -0.223 NA
ATOM     17  C   UNL     1      -2.957 -11.171  15.812  0.00  0.00    +0.216 A 
ATOM     20  C   UNL     1      -2.624 -10.717  13.609  0.00  0.00    +0.076 A 
ATOM     22  C   UNL     1      -1.086 -10.021  15.224  0.00  0.00    +0.116 A 
ATOM     23  C   UNL     1      -1.440 -10.066  13.890  0.00  0.00    +0.048 A 
ATOM     38  H   UNL     1      -3.428 -11.615  17.759  0.00  0.00    +0.149 HD
ENDROOT
BRANCH   7  13
ATOM      1  O   UNL     1      -7.218 -11.984  15.727  0.00  0.00    -0.370 OA
ATOM      2  O   UNL     1      -6.139 -12.458  18.616  0.00  0.00    -0.370 OA
ATOM     10  C   UNL     1      -6.573 -11.285  17.907  0.00  0.00    +0.171 C 
ATOM     11  C   UNL     1      -6.117 -11.433  16.469  0.00  0.00    +0.171 C 
ATOM     12  C   UNL     1      -8.081 -11.256  17.814  0.00  0.00    +0.130 C 
ATOM     13  C   UNL     1      -4.983 -12.429  16.542  0.00  0.00    +0.130 C 
ATOM     14  C   UNL     1      -8.349 -12.127  16.599  0.00  0.00    +0.185 C 
ATOM     15  C   UNL     1      -5.369 -13.286  17.733  0.00  0.00    +0.185 C 
BRANCH  12   6
ATOM      3  O   UNL     1     -10.776 -10.336  18.178  0.00  0.00    -0.276 OA
ATOM      6  N   UNL     1      -8.566  -9.912  17.611  0.00  0.00    -0.308 N 
ATOM     16  C   UNL     1      -9.895  -9.563  17.815  0.00  0.00    +0.213 C 
ATOM     37  H   UNL     1      -7.922  -9.213  17.252  0.00  0.00    +0.149 HD
BRANCH  16  18
ATOM     18  C   UNL     1     -10.144  -8.097  17.503  0.00  0.00    +0.096 C 
BRANCH  18  19
ATOM     19  C   UNL     1      -9.823  -7.712  16.060  0.00  0.00    +0.020 C 
BRANCH  19  21
ATOM     21  C   UNL     1     -10.496  -8.639  15.046  0.00  0.00    +0.121 C 
BRANCH  21  25
ATOM      5  O   UNL     1      -9.742  -9.824  13.057  0.00  0.00    -0.251 OA
ATOM     25  C   UNL     1      -9.489  -9.299  14.132  0.00  0.00    +0.305 C 
BRANCH  25   4
ATOM      4  O   UNL     1      -8.235  -9.241  14.652  0.00  0.00    -0.481 OA
ATOM     39  H   UNL     1      -8.212  -9.540  15.587  0.00  0.00    +0.295 HD
ENDBRANCH  25   4
ENDBRANCH  21  25
ENDBRANCH  19  21
ENDBRANCH  18  19
ENDBRANCH  16  18
ENDBRANCH  12   6
ENDBRANCH   7  13
BRANCH  20  24
ATOM     24  C   UNL     1      -3.108 -10.834  12.254  0.00  0.00    +0.001 A 
ATOM     26  C   UNL     1      -3.560 -12.065  11.779  0.00  0.00    +0.010 A 
ATOM     27  C   UNL     1      -3.124  -9.715  11.420  0.00  0.00    +0.010 A 
ATOM     28  C   UNL     1      -4.027 -12.177  10.470  0.00  0.00    +0.009 A 
ATOM     29  C   UNL     1      -3.592  -9.828  10.111  0.00  0.00    +0.009 A 
ATOM     30  C   UNL     1      -4.043 -11.059   9.636  0.00  0.00    -0.018 A 
BRANCH  30  31
ATOM     31  C   UNL     1      -4.529 -11.176   8.279  0.00  0.00    -0.018 A 
ATOM     32  C   UNL     1      -4.312 -12.350   7.559  0.00  0.00    +0.008 A 
ATOM     33  C   UNL     1      -5.215 -10.113   7.689  0.00  0.00    +0.008 A 
ATOM     34  C   UNL     1      -4.781 -12.464   6.250  0.00  0.00    +0.001 A 
ATOM     35  C   UNL     1      -5.684 -10.227   6.380  0.00  0.00    +0.001 A 
ATOM     36  C   UNL     1      -5.467 -11.402   5.660  0.00  0.00    +0.000 A 
ENDBRANCH  30  31
ENDBRANCH  20  24
TORSDOF 9
ENDMDL
MODEL 3
REMARK VINA RESULT:      -7.2     25.419     27.882
REMARK  Name = 11913341
REMARK  9 active torsions:
REMARK  status: ('A' for Active; 'I' for Inactive)
REMARK    1  A    between atoms: O_4  and  C_25
REMARK    2  A    between atoms: N_6  and  C_12
REMARK    3  A    between atoms: N_7  and  C_13
REMARK    4  A    between atoms: C_16  and  C_18
REMARK    5  A    between atoms: C_18  and  C_19
REMARK    6  A    between atoms: C_19  and  C_21
REMARK    7  A    between atoms: C_20  and  C_24
REMARK    8  A    between atoms: C_21  and  C_25
REMARK    9  A    between atoms: C_30  and  C_31
REMARK                            x       y       z     vdW  Elec       q    Type
REMARK                         _______ _______ _______ _____ _____    ______ ____
ROOT
ATOM      7  N   UNL     1      -3.723 -11.790  16.740  0.00  0.00    -0.306 N 
ATOM      8  N   UNL     1      -3.439 -11.237  14.502  0.00  0.00    -0.214 NA
ATOM      9  N   UNL     1      -1.785 -10.654  16.155  0.00  0.00    -0.223 NA
ATOM     17  C   UNL     1      -2.949 -11.201  15.757  0.00  0.00    +0.216 A 
ATOM     20  C   UNL     1      -2.658 -10.654  13.569  0.00  0.00    +0.076 A 
ATOM     22  C   UNL     1      -1.055 -10.089  15.171  0.00  0.00    +0.116 A 
ATOM     23  C   UNL     1      -1.444 -10.059  13.847  0.00  0.00    +0.048 A 
ATOM     38  H   UNL     1      -3.385 -11.720  17.693  0.00  0.00    +0.149 HD
ENDROOT
BRANCH   7  13
ATOM      1  O   UNL     1      -7.200 -11.888  15.629  0.00  0.00    -0.370 OA
ATOM      2  O   UNL     1      -6.179 -12.335  18.543  0.00  0.00    -0.370 OA
ATOM     10  C   UNL     1      -6.545 -11.162  17.797  0.00  0.00    +0.171 C 
ATOM     11  C   UNL     1      -6.081 -11.372  16.369  0.00  0.00    +0.171 C 
ATOM     12  C   UNL     1      -8.048 -11.060  17.684  0.00  0.00    +0.130 C 
ATOM     13  C   UNL     1      -4.999 -12.421  16.483  0.00  0.00    +0.130 C 
ATOM     14  C   UNL     1      -8.346 -11.950  16.490  0.00  0.00    +0.185 C 
ATOM     15  C   UNL     1      -5.441 -13.225  17.692  0.00  0.00    +0.185 C 
BRANCH  12   6
ATOM      3  O   UNL     1     -10.686  -9.983  18.044  0.00  0.00    -0.276 OA
ATOM      6  N   UNL     1      -8.463  -9.700  17.439  0.00  0.00    -0.308 N 
ATOM     16  C   UNL     1      -9.768  -9.272  17.644  0.00  0.00    +0.213 C 
ATOM     37  H   UNL     1      -7.786  -9.050  17.049  0.00  0.00    +0.149 HD
BRANCH  16  18
ATOM     18  C   UNL     1      -9.942  -7.806  17.284  0.00  0.00    +0.096 C 
BRANCH  18  19
ATOM     19  C   UNL     1     -11.325  -7.470  16.729  0.00  0.00    +0.020 C 
BRANCH  19  21
ATOM     21  C   UNL     1     -11.378  -6.076  16.100  0.00  0.00    +0.121 C 
BRANCH  21  25
ATOM      5  O   UNL     1     -11.930  -7.154  13.988  0.00  0.00    -0.251 OA
ATOM     25  C   UNL     1     -11.744  -6.133  14.635  0.00  0.00    +0.305 C 
BRANCH  25   4
ATOM      4  O   UNL     1     -11.850  -4.888  14.101  0.00  0.00    -0.481 OA
ATOM     39  H   UNL     1     -11.101  -4.312  14.366  0.00  0.00    +0.295 HD
ENDBRANCH  25   4
ENDBRANCH  21  25
ENDBRANCH  19  21
ENDBRANCH  18  19
ENDBRANCH  16  18
ENDBRANCH  12   6
ENDBRANCH   7  13
BRANCH  20  24
ATOM     24  C   UNL     1      -3.181 -10.690  12.224  0.00  0.00    +0.001 A 
ATOM     26  C   UNL     1      -3.990 -11.752  11.818  0.00  0.00    +0.010 A 
ATOM     27  C   UNL     1      -2.878  -9.663  11.330  0.00  0.00    +0.010 A 
ATOM     28  C   UNL     1      -4.495 -11.786  10.519  0.00  0.00    +0.009 A 
ATOM     29  C   UNL     1      -3.383  -9.697  10.031  0.00  0.00    +0.009 A 
ATOM     30  C   UNL     1      -4.191 -10.759   9.625  0.00  0.00    -0.018 A 
BRANCH  30  31
ATOM     31  C   UNL     1      -4.716 -10.794   8.278  0.00  0.00    -0.018 A 
ATOM     32  C   UNL     1      -4.423 -11.872   7.443  0.00  0.00    +0.008 A 
ATOM     33  C   UNL     1      -5.515  -9.749   7.812  0.00  0.00    +0.008 A 
ATOM     34  C   UNL     1      -4.929 -11.907   6.144  0.00  0.00    +0.001 A 
ATOM     35  C   UNL     1      -6.021  -9.784   6.513  0.00  0.00    +0.001 A 
ATOM     36  C   UNL     1      -5.728 -10.863   5.678  0.00  0.00    +0.000 A 
ENDBRANCH  30  31
ENDBRANCH  20  24
TORSDOF 9
ENDMDL
MODEL 4
REMARK VINA RESULT:      -7.0      7.704     11.244
REMARK  Name = 11913341
REMARK  9 active torsions:
REMARK  status: ('A' for Active; 'I' for Inactive)
REMARK    1  A    between atoms: O_4  and  C_25
REMARK    2  A    between atoms: N_6  and  C_12
REMARK    3  A    between atoms: N_7  and  C_13
REMARK    4  A    between atoms: C_16  and  C_18
REMARK    5  A    between atoms: C_18  and  C_19
REMARK    6  A    between atoms: C_19  and  C_21
REMARK    7  A    between atoms: C_20  and  C_24
REMARK    8  A    between atoms: C_21  and  C_25
REMARK    9  A    between atoms: C_30  and  C_31
REMARK                            x       y       z     vdW  Elec       q    Type
REMARK                         _______ _______ _______ _____ _____    ______ ____
ROOT
ATOM      7  N   UNL     1      12.787  10.690  19.416  0.00  0.00    -0.306 N 
ATOM      8  N   UNL     1      14.334   8.964  19.563  0.00  0.00    -0.214 NA
ATOM      9  N   UNL     1      12.093   8.571  18.769  0.00  0.00    -0.223 NA
ATOM     17  C   UNL     1      13.084   9.350  19.242  0.00  0.00    +0.216 A 
ATOM     20  C   UNL     1      14.589   7.652  19.381  0.00  0.00    +0.076 A 
ATOM     22  C   UNL     1      12.417   7.271  18.611  0.00  0.00    +0.116 A 
ATOM     23  C   UNL     1      13.661   6.749  18.904  0.00  0.00    +0.048 A 
ATOM     38  H   UNL     1      11.834  10.977  19.226  0.00  0.00    +0.149 HD
ENDROOT
BRANCH   7  13
ATOM      1  O   UNL     1      14.292  12.841  21.954  0.00  0.00    -0.370 OA
ATOM      2  O   UNL     1      12.820  13.785  19.369  0.00  0.00    -0.370 OA
ATOM     10  C   UNL     1      12.370  13.459  20.695  0.00  0.00    +0.171 C 
ATOM     11  C   UNL     1      13.209  12.293  21.183  0.00  0.00    +0.171 C 
ATOM     12  C   UNL     1      12.704  14.578  21.653  0.00  0.00    +0.130 C 
ATOM     13  C   UNL     1      13.736  11.662  19.915  0.00  0.00    +0.130 C 
ATOM     14  C   UNL     1      14.142  14.266  22.031  0.00  0.00    +0.185 C 
ATOM     15  C   UNL     1      13.826  12.844  18.967  0.00  0.00    +0.185 C 
BRANCH  12   6
ATOM      3  O   UNL     1       9.990  15.504  21.787  0.00  0.00    -0.276 OA
ATOM      6  N   UNL     1      11.842  14.552  22.810  0.00  0.00    -0.308 N 
ATOM     16  C   UNL     1      10.537  15.024  22.775  0.00  0.00    +0.213 C 
ATOM     37  H   UNL     1      12.226  14.226  23.693  0.00  0.00    +0.149 HD
BRANCH  16  18
ATOM     18  C   UNL     1       9.860  14.907  24.131  0.00  0.00    +0.096 C 
BRANCH  18  19
ATOM     19  C   UNL     1      10.803  14.475  25.252  0.00  0.00    +0.020 C 
BRANCH  19  21
ATOM     21  C   UNL     1      10.543  13.040  25.713  0.00  0.00    +0.121 C 
BRANCH  21  25
ATOM      5  O   UNL     1      10.543  11.120  24.216  0.00  0.00    -0.251 OA
ATOM     25  C   UNL     1      11.149  12.027  24.769  0.00  0.00    +0.305 C 
BRANCH  25   4
ATOM      4  O   UNL     1      12.479  12.244  24.595  0.00  0.00    -0.481 OA
ATOM     39  H   UNL     1      12.877  12.706  25.364  0.00  0.00    +0.295 HD
ENDBRANCH  25   4
ENDBRANCH  21  25
ENDBRANCH  19  21
ENDBRANCH  18  19
ENDBRANCH  16  18
ENDBRANCH  12   6
ENDBRANCH   7  13
BRANCH  20  24
ATOM     24  C   UNL     1      15.927   7.234  19.725  0.00  0.00    +0.001 A 
ATOM     26  C   UNL     1      16.604   7.856  20.775  0.00  0.00    +0.010 A 
ATOM     27  C   UNL     1      16.544   6.208  19.009  0.00  0.00    +0.010 A 
ATOM     28  C   UNL     1      17.896   7.452  21.108  0.00  0.00    +0.009 A 
ATOM     29  C   UNL     1      17.836   5.804  19.342  0.00  0.00    +0.009 A 
ATOM     30  C   UNL     1      18.513   6.427  20.391  0.00  0.00    -0.018 A 
BRANCH  30  31
ATOM     31  C   UNL     1      19.853   6.007  20.737  0.00  0.00    -0.018 A 
ATOM     32  C   UNL     1      20.730   6.905  21.344  0.00  0.00    +0.008 A 
ATOM     33  C   UNL     1      20.269   4.703  20.464  0.00  0.00    +0.008 A 
ATOM     34  C   UNL     1      22.023   6.501  21.678  0.00  0.00    +0.001 A 
ATOM     35  C   UNL     1      21.562   4.299  20.798  0.00  0.00    +0.001 A 
ATOM     36  C   UNL     1      22.439   5.198  21.405  0.00  0.00    +0.000 A 
ENDBRANCH  30  31
ENDBRANCH  20  24
TORSDOF 9
ENDMDL
MODEL 5
REMARK VINA RESULT:      -7.0      6.836     10.232
REMARK  Name = 11913341
REMARK  9 active torsions:
REMARK  status: ('A' for Active; 'I' for Inactive)
REMARK    1  A    between atoms: O_4  and  C_25
REMARK    2  A    between atoms: N_6  and  C_12
REMARK    3  A    between atoms: N_7  and  C_13
REMARK    4  A    between atoms: C_16  and  C_18
REMARK    5  A    between atoms: C_18  and  C_19
REMARK    6  A    between atoms: C_19  and  C_21
REMARK    7  A    between atoms: C_20  and  C_24
REMARK    8  A    between atoms: C_21  and  C_25
REMARK    9  A    between atoms: C_30  and  C_31
REMARK                            x       y       z     vdW  Elec       q    Type
REMARK                         _______ _______ _______ _____ _____    ______ ____
ROOT
ATOM      7  N   UNL     1      16.968   7.426  21.828  0.00  0.00    -0.306 N 
ATOM      8  N   UNL     1      15.747   8.389  20.102  0.00  0.00    -0.214 NA
ATOM      9  N   UNL     1      14.653   7.406  22.011  0.00  0.00    -0.223 NA
ATOM     17  C   UNL     1      15.736   7.754  21.290  0.00  0.00    +0.216 A 
ATOM     20  C   UNL     1      14.529   8.694  19.608  0.00  0.00    +0.076 A 
ATOM     22  C   UNL     1      13.469   7.741  21.459  0.00  0.00    +0.116 A 
ATOM     23  C   UNL     1      13.344   8.392  20.248  0.00  0.00    +0.048 A 
ATOM     38  H   UNL     1      16.964   6.903  22.696  0.00  0.00    +0.149 HD
ENDROOT
BRANCH   7  13
ATOM      1  O   UNL     1      20.133   6.597  20.208  0.00  0.00    -0.370 OA
ATOM      2  O   UNL     1      19.784   8.052  22.947  0.00  0.00    -0.370 OA
ATOM     10  C   UNL     1      19.857   6.667  22.570  0.00  0.00    +0.171 C 
ATOM     11  C   UNL     1      19.138   6.522  21.243  0.00  0.00    +0.171 C 
ATOM     12  C   UNL     1      21.284   6.281  22.259  0.00  0.00    +0.130 C 
ATOM     13  C   UNL     1      18.227   7.726  21.183  0.00  0.00    +0.130 C 
ATOM     14  C   UNL     1      21.431   6.714  20.811  0.00  0.00    +0.185 C 
ATOM     15  C   UNL     1      18.994   8.763  21.983  0.00  0.00    +0.185 C 
BRANCH  12   6
ATOM      3  O   UNL     1      23.458   4.987  23.617  0.00  0.00    -0.276 OA
ATOM      6  N   UNL     1      21.485   4.859  22.402  0.00  0.00    -0.308 N 
ATOM     16  C   UNL     1      22.573   4.327  23.081  0.00  0.00    +0.213 C 
ATOM     37  H   UNL     1      20.835   4.229  21.941  0.00  0.00    +0.149 HD
BRANCH  16  18
ATOM     18  C   UNL     1      22.560   2.807  23.059  0.00  0.00    +0.096 C 
BRANCH  18  19
ATOM     19  C   UNL     1      23.789   2.191  22.394  0.00  0.00    +0.020 C 
BRANCH  19  21
ATOM     21  C   UNL     1      23.636   2.081  20.876  0.00  0.00    +0.121 C 
BRANCH  21  25
ATOM      5  O   UNL     1      25.191   3.944  20.676  0.00  0.00    -0.251 OA
ATOM     25  C   UNL     1      24.517   3.070  20.148  0.00  0.00    +0.305 C 
BRANCH  25   4
ATOM      4  O   UNL     1      24.479   2.873  18.804  0.00  0.00    -0.481 OA
ATOM     39  H   UNL     1      25.377   2.887  18.407  0.00  0.00    +0.295 HD
ENDBRANCH  25   4
ENDBRANCH  21  25
ENDBRANCH  19  21
ENDBRANCH  18  19
ENDBRANCH  16  18
ENDBRANCH  12   6
ENDBRANCH   7  13
BRANCH  20  24
ATOM     24  C   UNL     1      14.537   9.372  18.334  0.00  0.00    +0.001 A 
ATOM     26  C   UNL     1      15.003  10.684  18.246  0.00  0.00    +0.010 A 
ATOM     27  C   UNL     1      14.080   8.716  17.191  0.00  0.00    +0.010 A 
ATOM     28  C   UNL     1      15.012  11.340  17.015  0.00  0.00    +0.009 A 
ATOM     29  C   UNL     1      14.089   9.372  15.960  0.00  0.00    +0.009 A 
ATOM     30  C   UNL     1      14.554  10.684  15.872  0.00  0.00    -0.018 A 
BRANCH  30  31
ATOM     31  C   UNL     1      14.563  11.364  14.596  0.00  0.00    -0.018 A 
ATOM     32  C   UNL     1      15.694  11.304  13.782  0.00  0.00    +0.008 A 
ATOM     33  C   UNL     1      13.440  12.079  14.177  0.00  0.00    +0.008 A 
ATOM     34  C   UNL     1      15.703  11.958  12.550  0.00  0.00    +0.001 A 
ATOM     35  C   UNL     1      13.450  12.734  12.945  0.00  0.00    +0.001 A 
ATOM     36  C   UNL     1      14.582  12.674  12.131  0.00  0.00    +0.000 A 
ENDBRANCH  30  31
ENDBRANCH  20  24
TORSDOF 9
ENDMDL
MODEL 6
REMARK VINA RESULT:      -6.9     12.867     19.441
REMARK  Name = 11913341
REMARK  9 active torsions:
REMARK  status: ('A' for Active; 'I' for Inactive)
REMARK    1  A    between atoms: O_4  and  C_25
REMARK    2  A    between atoms: N_6  and  C_12
REMARK    3  A    between atoms: N_7  and  C_13
REMARK    4  A    between atoms: C_16  and  C_18
REMARK    5  A    between atoms: C_18  and  C_19
REMARK    6  A    between atoms: C_19  and  C_21
REMARK    7  A    between atoms: C_20  and  C_24
REMARK    8  A    between atoms: C_21  and  C_25
REMARK    9  A    between atoms: C_30  and  C_31
REMARK                            x       y       z     vdW  Elec       q    Type
REMARK                         _______ _______ _______ _____ _____    ______ ____
ROOT
ATOM      7  N   UNL     1      10.103   5.369  -3.437  0.00  0.00    -0.306 N 
ATOM      8  N   UNL     1      10.410   5.182  -1.142  0.00  0.00    -0.214 NA
ATOM      9  N   UNL     1      11.727   3.886  -2.690  0.00  0.00    -0.223 NA
ATOM     17  C   UNL     1      10.775   4.787  -2.377  0.00  0.00    +0.216 A 
ATOM     20  C   UNL     1      11.086   4.595  -0.133  0.00  0.00    +0.076 A 
ATOM     22  C   UNL     1      12.362   3.339  -1.634  0.00  0.00    +0.116 A 
ATOM     23  C   UNL     1      12.082   3.657  -0.321  0.00  0.00    +0.048 A 
ATOM     38  H   UNL     1      10.337   5.038  -4.366  0.00  0.00    +0.149 HD
ENDROOT
BRANCH   7  13
ATOM      1  O   UNL     1       6.683   6.485  -2.812  0.00  0.00    -0.370 OA
ATOM      2  O   UNL     1       8.280   6.823  -5.472  0.00  0.00    -0.370 OA
ATOM     10  C   UNL     1       7.451   5.772  -4.947  0.00  0.00    +0.171 C 
ATOM     11  C   UNL     1       7.703   5.701  -3.454  0.00  0.00    +0.171 C 
ATOM     12  C   UNL     1       5.992   6.148  -5.056  0.00  0.00    +0.130 C 
ATOM     13  C   UNL     1       9.055   6.353  -3.276  0.00  0.00    +0.130 C 
ATOM     14  C   UNL     1       5.777   6.983  -3.806  0.00  0.00    +0.185 C 
ATOM     15  C   UNL     1       9.094   7.354  -4.416  0.00  0.00    +0.185 C 
BRANCH  12   6
ATOM      3  O   UNL     1       3.292   5.983  -6.020  0.00  0.00    -0.276 OA
ATOM      6  N   UNL     1       5.148   4.978  -5.055  0.00  0.00    -0.308 N 
ATOM     16  C   UNL     1       3.849   4.997  -5.546  0.00  0.00    +0.213 C 
ATOM     37  H   UNL     1       5.501   4.126  -4.628  0.00  0.00    +0.149 HD
BRANCH  16  18
ATOM     18  C   UNL     1       3.173   3.644  -5.401  0.00  0.00    +0.096 C 
BRANCH  18  19
ATOM     19  C   UNL     1       1.676   3.733  -5.111  0.00  0.00    +0.020 C 
BRANCH  19  21
ATOM     21  C   UNL     1       0.874   2.665  -5.857  0.00  0.00    +0.121 C 
BRANCH  21  25
ATOM      5  O   UNL     1       0.860   0.343  -5.122  0.00  0.00    -0.251 OA
ATOM     25  C   UNL     1       0.512   1.504  -4.958  0.00  0.00    +0.305 C 
BRANCH  25   4
ATOM      4  O   UNL     1      -0.264   1.906  -3.917  0.00  0.00    -0.481 OA
ATOM     39  H   UNL     1      -0.539   2.844  -4.008  0.00  0.00    +0.295 HD
ENDBRANCH  25   4
ENDBRANCH  21  25
ENDBRANCH  19  21
ENDBRANCH  18  19
ENDBRANCH  16  18
ENDBRANCH  12   6
ENDBRANCH   7  13
BRANCH  20  24
ATOM     24  C   UNL     1      10.697   5.014   1.191  0.00  0.00    +0.001 A 
ATOM     26  C   UNL     1      10.911   4.171   2.282  0.00  0.00    +0.010 A 
ATOM     27  C   UNL     1      10.107   6.264   1.382  0.00  0.00    +0.010 A 
ATOM     28  C   UNL     1      10.535   4.577   3.562  0.00  0.00    +0.009 A 
ATOM     29  C   UNL     1       9.731   6.671   2.662  0.00  0.00    +0.009 A 
ATOM     30  C   UNL     1       9.944   5.827   3.752  0.00  0.00    -0.018 A 
BRANCH  30  31
ATOM     31  C   UNL     1       9.555   6.248   5.079  0.00  0.00    -0.018 A 
ATOM     32  C   UNL     1      10.154   5.670   6.198  0.00  0.00    +0.008 A 
ATOM     33  C   UNL     1       8.580   7.233   5.241  0.00  0.00    +0.008 A 
ATOM     34  C   UNL     1       9.779   6.077   7.479  0.00  0.00    +0.001 A 
ATOM     35  C   UNL     1       8.205   7.640   6.522  0.00  0.00    +0.001 A 
ATOM     36  C   UNL     1       8.805   7.062   7.641  0.00  0.00    +0.000 A 
ENDBRANCH  30  31
ENDBRANCH  20  24
TORSDOF 9
ENDMDL
MODEL 7
REMARK VINA RESULT:      -6.9      9.748     13.680
REMARK  Name = 11913341
REMARK  9 active torsions:
REMARK  status: ('A' for Active; 'I' for Inactive)
REMARK    1  A    between atoms: O_4  and  C_25
REMARK    2  A    between atoms: N_6  and  C_12
REMARK    3  A    between atoms: N_7  and  C_13
REMARK    4  A    between atoms: C_16  and  C_18
REMARK    5  A    between atoms: C_18  and  C_19
REMARK    6  A    between atoms: C_19  and  C_21
REMARK    7  A    between atoms: C_20  and  C_24
REMARK    8  A    between atoms: C_21  and  C_25
REMARK    9  A    between atoms: C_30  and  C_31
REMARK                            x       y       z     vdW  Elec       q    Type
REMARK                         _______ _______ _______ _____ _____    ______ ____
ROOT
ATOM      7  N   UNL     1       4.302  13.221   5.540  0.00  0.00    -0.306 N 
ATOM      8  N   UNL     1       2.195  12.358   6.001  0.00  0.00    -0.214 NA
ATOM      9  N   UNL     1       3.296  13.856   7.534  0.00  0.00    -0.223 NA
ATOM     17  C   UNL     1       3.218  13.141   6.396  0.00  0.00    +0.216 A 
ATOM     20  C   UNL     1       1.155  12.304   6.858  0.00  0.00    +0.076 A 
ATOM     22  C   UNL     1       2.222  13.756   8.345  0.00  0.00    +0.116 A 
ATOM     23  C   UNL     1       1.113  12.989   8.056  0.00  0.00    +0.048 A 
ATOM     38  H   UNL     1       5.096  13.766   5.856  0.00  0.00    +0.149 HD
ENDROOT
BRANCH   7  13
ATOM      1  O   UNL     1       4.556  10.262   3.416  0.00  0.00    -0.370 OA
ATOM      2  O   UNL     1       6.679  12.534   3.680  0.00  0.00    -0.370 OA
ATOM     10  C   UNL     1       6.442  11.318   4.409  0.00  0.00    +0.171 C 
ATOM     11  C   UNL     1       4.940  11.129   4.496  0.00  0.00    +0.171 C 
ATOM     12  C   UNL     1       6.917  10.126   3.612  0.00  0.00    +0.130 C 
ATOM     13  C   UNL     1       4.380  12.516   4.280  0.00  0.00    +0.130 C 
ATOM     14  C   UNL     1       5.732   9.849   2.704  0.00  0.00    +0.185 C 
ATOM     15  C   UNL     1       5.422  13.159   3.382  0.00  0.00    +0.185 C 
BRANCH  12   6
ATOM      3  O   UNL     1       8.601   7.882   3.001  0.00  0.00    -0.276 OA
ATOM      6  N   UNL     1       7.194   8.999   4.470  0.00  0.00    -0.308 N 
ATOM     16  C   UNL     1       8.027   7.957   4.083  0.00  0.00    +0.213 C 
ATOM     37  H   UNL     1       6.716   8.943   5.365  0.00  0.00    +0.149 HD
BRANCH  16  18
ATOM     18  C   UNL     1       8.124   6.888   5.158  0.00  0.00    +0.096 C 
BRANCH  18  19
ATOM     19  C   UNL     1       9.460   6.883   5.899  0.00  0.00    +0.020 C 
BRANCH  19  21
ATOM     21  C   UNL     1       9.848   5.487   6.392  0.00  0.00    +0.121 C 
BRANCH  21  25
ATOM      5  O   UNL     1       9.259   5.578   8.753  0.00  0.00    -0.251 OA
ATOM     25  C   UNL     1      10.109   5.469   7.881  0.00  0.00    +0.305 C 
BRANCH  25   4
ATOM      4  O   UNL     1      11.432   5.311   8.150  0.00  0.00    -0.481 OA
ATOM     39  H   UNL     1      11.705   4.370   8.099  0.00  0.00    +0.295 HD
ENDBRANCH  25   4
ENDBRANCH  21  25
ENDBRANCH  19  21
ENDBRANCH  18  19
ENDBRANCH  16  18
ENDBRANCH  12   6
ENDBRANCH   7  13
BRANCH  20  24
ATOM     24  C   UNL     1       0.059  11.465   6.439  0.00  0.00    +0.001 A 
ATOM     26  C   UNL     1      -0.330  11.443   5.099  0.00  0.00    +0.010 A 
ATOM     27  C   UNL     1      -0.613  10.675   7.373  0.00  0.00    +0.010 A 
ATOM     28  C   UNL     1      -1.389  10.631   4.694  0.00  0.00    +0.009 A 
ATOM     29  C   UNL     1      -1.672   9.864   6.967  0.00  0.00    +0.009 A 
ATOM     30  C   UNL     1      -2.061   9.842   5.628  0.00  0.00    -0.018 A 
BRANCH  30  31
ATOM     31  C   UNL     1      -3.159   9.000   5.208  0.00  0.00    -0.018 A 
ATOM     32  C   UNL     1      -4.210   9.542   4.469  0.00  0.00    +0.008 A 
ATOM     33  C   UNL     1      -3.167   7.645   5.541  0.00  0.00    +0.008 A 
ATOM     34  C   UNL     1      -5.269   8.730   4.062  0.00  0.00    +0.001 A 
ATOM     35  C   UNL     1      -4.226   6.833   5.134  0.00  0.00    +0.001 A 
ATOM     36  C   UNL     1      -5.278   7.376   4.395  0.00  0.00    +0.000 A 
ENDBRANCH  30  31
ENDBRANCH  20  24
TORSDOF 9
ENDMDL
MODEL 8
REMARK VINA RESULT:      -6.9     25.664     29.478
REMARK  Name = 11913341
REMARK  9 active torsions:
REMARK  status: ('A' for Active; 'I' for Inactive)
REMARK    1  A    between atoms: O_4  and  C_25
REMARK    2  A    between atoms: N_6  and  C_12
REMARK    3  A    between atoms: N_7  and  C_13
REMARK    4  A    between atoms: C_16  and  C_18
REMARK    5  A    between atoms: C_18  and  C_19
REMARK    6  A    between atoms: C_19  and  C_21
REMARK    7  A    between atoms: C_20  and  C_24
REMARK    8  A    between atoms: C_21  and  C_25
REMARK    9  A    between atoms: C_30  and  C_31
REMARK                            x       y       z     vdW  Elec       q    Type
REMARK                         _______ _______ _______ _____ _____    ______ ____
ROOT
ATOM      7  N   UNL     1      -3.202 -10.527  12.319  0.00  0.00    -0.306 N 
ATOM      8  N   UNL     1      -4.300 -10.560  14.366  0.00  0.00    -0.214 NA
ATOM      9  N   UNL     1      -1.895 -10.654  14.234  0.00  0.00    -0.223 NA
ATOM     17  C   UNL     1      -3.129 -10.583  13.699  0.00  0.00    +0.216 A 
ATOM     20  C   UNL     1      -4.191 -10.615  15.710  0.00  0.00    +0.076 A 
ATOM     22  C   UNL     1      -1.860 -10.707  15.582  0.00  0.00    +0.116 A 
ATOM     23  C   UNL     1      -2.986 -10.691  16.379  0.00  0.00    +0.048 A 
ATOM     38  H   UNL     1      -2.328 -10.597  11.811  0.00  0.00    +0.149 HD
ENDROOT
BRANCH   7  13
ATOM      1  O   UNL     1      -5.831 -11.790  10.123  0.00  0.00    -0.370 OA
ATOM      2  O   UNL     1      -3.907  -9.409   9.521  0.00  0.00    -0.370 OA
ATOM     10  C   UNL     1      -3.810 -10.829   9.317  0.00  0.00    +0.171 C 
ATOM     11  C   UNL     1      -4.475 -11.501  10.502  0.00  0.00    +0.171 C 
ATOM     12  C   UNL     1      -4.654 -11.248   8.135  0.00  0.00    +0.130 C 
ATOM     13  C   UNL     1      -4.447 -10.449  11.586  0.00  0.00    +0.130 C 
ATOM     14  C   UNL     1      -6.031 -11.400   8.756  0.00  0.00    +0.185 C 
ATOM     15  C   UNL     1      -4.512  -9.155  10.797  0.00  0.00    +0.185 C 
BRANCH  12   6
ATOM      3  O   UNL     1      -3.988 -11.757   5.389  0.00  0.00    -0.276 OA
ATOM      6  N   UNL     1      -4.191 -12.497   7.579  0.00  0.00    -0.308 N 
ATOM     16  C   UNL     1      -3.892 -12.644   6.231  0.00  0.00    +0.213 C 
ATOM     37  H   UNL     1      -4.136 -13.308   8.188  0.00  0.00    +0.149 HD
BRANCH  16  18
ATOM     18  C   UNL     1      -3.455 -14.062   5.904  0.00  0.00    +0.096 C 
BRANCH  18  19
ATOM     19  C   UNL     1      -2.201 -14.134   5.036  0.00  0.00    +0.020 C 
BRANCH  19  21
ATOM     21  C   UNL     1      -2.526 -14.376   3.561  0.00  0.00    +0.121 C 
BRANCH  21  25
ATOM      5  O   UNL     1      -0.872 -13.551   1.975  0.00  0.00    -0.251 OA
ATOM     25  C   UNL     1      -1.863 -13.355   2.664  0.00  0.00    +0.305 C 
BRANCH  25   4
ATOM      4  O   UNL     1      -2.512 -12.162   2.708  0.00  0.00    -0.481 OA
ATOM     39  H   UNL     1      -2.893 -11.986   3.595  0.00  0.00    +0.295 HD
ENDBRANCH  25   4
ENDBRANCH  21  25
ENDBRANCH  19  21
ENDBRANCH  18  19
ENDBRANCH  16  18
ENDBRANCH  12   6
ENDBRANCH   7  13
BRANCH  20  24
ATOM     24  C   UNL     1      -5.443 -10.592  16.427  0.00  0.00    +0.001 A 
ATOM     26  C   UNL     1      -5.779 -11.644  17.279  0.00  0.00    +0.010 A 
ATOM     27  C   UNL     1      -6.317  -9.515  16.270  0.00  0.00    +0.010 A 
ATOM     28  C   UNL     1      -6.989 -11.621  17.972  0.00  0.00    +0.009 A 
ATOM     29  C   UNL     1      -7.527  -9.492  16.963  0.00  0.00    +0.009 A 
ATOM     30  C   UNL     1      -7.863 -10.545  17.814  0.00  0.00    -0.018 A 
BRANCH  30  31
ATOM     31  C   UNL     1      -9.117 -10.521  18.534  0.00  0.00    -0.018 A 
ATOM     32  C   UNL     1     -10.128  -9.643  18.143  0.00  0.00    +0.008 A 
ATOM     33  C   UNL     1      -9.317 -11.376  19.619  0.00  0.00    +0.008 A 
ATOM     34  C   UNL     1     -11.339  -9.619  18.837  0.00  0.00    +0.001 A 
ATOM     35  C   UNL     1     -10.527 -11.352  20.312  0.00  0.00    +0.001 A 
ATOM     36  C   UNL     1     -11.539 -10.473  19.921  0.00  0.00    +0.000 A 
ENDBRANCH  30  31
ENDBRANCH  20  24
TORSDOF 9
ENDMDL
MODEL 9
REMARK VINA RESULT:      -6.8      5.471      8.789
REMARK  Name = 11913341
REMARK  9 active torsions:
REMARK  status: ('A' for Active; 'I' for Inactive)
REMARK    1  A    between atoms: O_4  and  C_25
REMARK    2  A    between atoms: N_6  and  C_12
REMARK    3  A    between atoms: N_7  and  C_13
REMARK    4  A    between atoms: C_16  and  C_18
REMARK    5  A    between atoms: C_18  and  C_19
REMARK    6  A    between atoms: C_19  and  C_21
REMARK    7  A    between atoms: C_20  and  C_24
REMARK    8  A    between atoms: C_21  and  C_25
REMARK    9  A    between atoms: C_30  and  C_31
REMARK                            x       y       z     vdW  Elec       q    Type
REMARK                         _______ _______ _______ _____ _____    ______ ____
ROOT
ATOM      7  N   UNL     1      10.986   8.395  19.279  0.00  0.00    -0.306 N 
ATOM      8  N   UNL     1      12.466   9.479  17.854  0.00  0.00    -0.214 NA
ATOM      9  N   UNL     1      10.503   8.365  17.007  0.00  0.00    -0.223 NA
ATOM     17  C   UNL     1      11.334   8.761  17.991  0.00  0.00    +0.216 A 
ATOM     20  C   UNL     1      12.774   9.819  16.585  0.00  0.00    +0.076 A 
ATOM     22  C   UNL     1      10.872   8.740  15.765  0.00  0.00    +0.116 A 
ATOM     23  C   UNL     1      12.007   9.474  15.490  0.00  0.00    +0.048 A 
ATOM     38  H   UNL     1      10.164   7.811  19.383  0.00  0.00    +0.149 HD
ENDROOT
BRANCH   7  13
ATOM      1  O   UNL     1      14.067   9.102  21.106  0.00  0.00    -0.370 OA
ATOM      2  O   UNL     1      12.149   6.687  21.582  0.00  0.00    -0.370 OA
ATOM     10  C   UNL     1      13.267   6.898  20.704  0.00  0.00    +0.171 C 
ATOM     11  C   UNL     1      13.210   8.340  20.239  0.00  0.00    +0.171 C 
ATOM     12  C   UNL     1      14.564   6.811  21.474  0.00  0.00    +0.130 C 
ATOM     13  C   UNL     1      11.767   8.738  20.447  0.00  0.00    +0.130 C 
ATOM     14  C   UNL     1      14.703   8.214  22.037  0.00  0.00    +0.185 C 
ATOM     15  C   UNL     1      11.352   7.879  21.627  0.00  0.00    +0.185 C 
BRANCH  12   6
ATOM      3  O   UNL     1      17.267   7.750  21.712  0.00  0.00    -0.276 OA
ATOM      6  N   UNL     1      15.668   6.485  20.603  0.00  0.00    -0.308 N 
ATOM     16  C   UNL     1      16.946   6.992  20.802  0.00  0.00    +0.213 C 
ATOM     37  H   UNL     1      15.487   5.910  19.785  0.00  0.00    +0.149 HD
BRANCH  16  18
ATOM     18  C   UNL     1      17.912   6.517  19.730  0.00  0.00    +0.096 C 
BRANCH  18  19
ATOM     19  C   UNL     1      18.980   5.556  20.247  0.00  0.00    +0.020 C 
BRANCH  19  21
ATOM     21  C   UNL     1      20.192   6.289  20.827  0.00  0.00    +0.121 C 
BRANCH  21  25
ATOM      5  O   UNL     1      21.368   5.160  22.635  0.00  0.00    -0.251 OA
ATOM     25  C   UNL     1      20.460   5.887  22.259  0.00  0.00    +0.305 C 
BRANCH  25   4
ATOM      4  O   UNL     1      19.555   6.443  23.107  0.00  0.00    -0.481 OA
ATOM     39  H   UNL     1      19.648   6.095  24.020  0.00  0.00    +0.295 HD
ENDBRANCH  25   4
ENDBRANCH  21  25
ENDBRANCH  19  21
ENDBRANCH  18  19
ENDBRANCH  16  18
ENDBRANCH  12   6
ENDBRANCH   7  13
BRANCH  20  24
ATOM     24  C   UNL     1      13.987  10.586  16.435  0.00  0.00    +0.001 A 
ATOM     26  C   UNL     1      14.471  11.343  17.502  0.00  0.00    +0.010 A 
ATOM     27  C   UNL     1      14.677  10.571  15.222  0.00  0.00    +0.010 A 
ATOM     28  C   UNL     1      15.644  12.084  17.357  0.00  0.00    +0.009 A 
ATOM     29  C   UNL     1      15.849  11.312  15.077  0.00  0.00    +0.009 A 
ATOM     30  C   UNL     1      16.333  12.069  16.144  0.00  0.00    -0.018 A 
BRANCH  30  31
ATOM     31  C   UNL     1      17.549  12.837  15.993  0.00  0.00    -0.018 A 
ATOM     32  C   UNL     1      17.886  13.372  14.751  0.00  0.00    +0.008 A 
ATOM     33  C   UNL     1      18.385  13.042  17.091  0.00  0.00    +0.008 A 
ATOM     34  C   UNL     1      19.059  14.114  14.605  0.00  0.00    +0.001 A 
ATOM     35  C   UNL     1      19.558  13.784  16.945  0.00  0.00    +0.001 A 
ATOM     36  C   UNL     1      19.895  14.319  15.702  0.00  0.00    +0.000 A 
ENDBRANCH  30  31
ENDBRANCH  20  24
TORSDOF 9
ENDMDL
MODEL 10
REMARK VINA RESULT:      -6.7     18.821     23.928
REMARK  Name = 11913341
REMARK  9 active torsions:
REMARK  status: ('A' for Active; 'I' for Inactive)
REMARK    1  A    between atoms: O_4  and  C_25
REMARK    2  A    between atoms: N_6  and  C_12
REMARK    3  A    between atoms: N_7  and  C_13
REMARK    4  A    between atoms: C_16  and  C_18
REMARK    5  A    between atoms: C_18  and  C_19
REMARK    6  A    between atoms: C_19  and  C_21
REMARK    7  A    between atoms: C_20  and  C_24
REMARK    8  A    between atoms: C_21  and  C_25
REMARK    9  A    between atoms: C_30  and  C_31
REMARK                            x       y       z     vdW  Elec       q    Type
REMARK                         _______ _______ _______ _____ _____    ______ ____
ROOT
ATOM      7  N   UNL     1      23.308 -10.201  21.509  0.00  0.00    -0.306 N 
ATOM      8  N   UNL     1      22.065  -8.507  22.499  0.00  0.00    -0.214 NA
ATOM      9  N   UNL     1      23.600  -9.848  23.786  0.00  0.00    -0.223 NA
ATOM     17  C   UNL     1      22.977  -9.489  22.647  0.00  0.00    +0.216 A 
ATOM     20  C   UNL     1      21.766  -7.833  23.629  0.00  0.00    +0.076 A 
ATOM     22  C   UNL     1      23.254  -9.133  24.875  0.00  0.00    +0.116 A 
ATOM     23  C   UNL     1      22.334  -8.104  24.858  0.00  0.00    +0.048 A 
ATOM     38  H   UNL     1      23.954 -10.974  21.624  0.00  0.00    +0.149 HD
ENDROOT
BRANCH   7  13
ATOM      1  O   UNL     1      20.694 -10.346  18.964  0.00  0.00    -0.370 OA
ATOM      2  O   UNL     1      23.499 -11.705  18.811  0.00  0.00    -0.370 OA
ATOM     10  C   UNL     1      22.233 -12.117  19.353  0.00  0.00    +0.171 C 
ATOM     11  C   UNL     1      21.580 -10.890  19.957  0.00  0.00    +0.171 C 
ATOM     12  C   UNL     1      21.293 -12.525  18.242  0.00  0.00    +0.130 C 
ATOM     13  C   UNL     1      22.731  -9.944  20.208  0.00  0.00    +0.130 C 
ATOM     14  C   UNL     1      20.708 -11.194  17.806  0.00  0.00    +0.185 C 
ATOM     15  C   UNL     1      23.714 -10.319  19.114  0.00  0.00    +0.185 C 
BRANCH  12   6
ATOM      3  O   UNL     1      21.340 -15.395  18.169  0.00  0.00    -0.276 OA
ATOM      6  N   UNL     1      20.266 -13.415  18.727  0.00  0.00    -0.308 N 
ATOM     16  C   UNL     1      20.381 -14.797  18.647  0.00  0.00    +0.213 C 
ATOM     37  H   UNL     1      19.406 -13.011  19.087  0.00  0.00    +0.149 HD
BRANCH  16  18
ATOM     18  C   UNL     1      19.151 -15.496  19.201  0.00  0.00    +0.096 C 
BRANCH  18  19
ATOM     19  C   UNL     1      17.880 -14.652  19.128  0.00  0.00    +0.020 C 
BRANCH  19  21
ATOM     21  C   UNL     1      16.630 -15.499  18.882  0.00  0.00    +0.121 C 
BRANCH  21  25
ATOM      5  O   UNL     1      15.303 -14.543  20.685  0.00  0.00    -0.251 OA
ATOM     25  C   UNL     1      15.401 -14.888  19.516  0.00  0.00    +0.305 C 
BRANCH  25   4
ATOM      4  O   UNL     1      14.391 -14.760  18.616  0.00  0.00    -0.481 OA
ATOM     39  H   UNL     1      14.588 -14.077  17.941  0.00  0.00    +0.295 HD
ENDBRANCH  25   4
ENDBRANCH  21  25
ENDBRANCH  19  21
ENDBRANCH  18  19
ENDBRANCH  16  18
ENDBRANCH  12   6
ENDBRANCH   7  13
BRANCH  20  24
ATOM     24  C   UNL     1      20.789  -6.782  23.475  0.00  0.00    +0.001 A 
ATOM     26  C   UNL     1      20.851  -5.648  24.285  0.00  0.00    +0.010 A 
ATOM     27  C   UNL     1      19.784  -6.899  22.515  0.00  0.00    +0.010 A 
ATOM     28  C   UNL     1      19.907  -4.632  24.135  0.00  0.00    +0.009 A 
ATOM     29  C   UNL     1      18.840  -5.884  22.365  0.00  0.00    +0.009 A 
ATOM     30  C   UNL     1      18.901  -4.750  23.176  0.00  0.00    -0.018 A 
BRANCH  30  31
ATOM     31  C   UNL     1      17.923  -3.697  23.020  0.00  0.00    -0.018 A 
ATOM     32  C   UNL     1      18.340  -2.382  22.814  0.00  0.00    +0.008 A 
ATOM     33  C   UNL     1      16.561  -3.995  23.076  0.00  0.00    +0.008 A 
ATOM     34  C   UNL     1      17.398  -1.365  22.663  0.00  0.00    +0.001 A 
ATOM     35  C   UNL     1      15.618  -2.978  22.924  0.00  0.00    +0.001 A 
ATOM     36  C   UNL     1      16.036  -1.663  22.718  0.00  0.00    +0.000 A 
ENDBRANCH  30  31
ENDBRANCH  20  24
TORSDOF 9
ENDMDL
