MODEL 1
REMARK VINA RESULT:      -6.4      0.000      0.000
REMARK  Name = 75536656
REMARK  7 active torsions:
REMARK  status: ('A' for Active; 'I' for Inactive)
REMARK    1  A    between atoms: S_1  and  N_9
REMARK    2  A    between atoms: S_1  and  C_21
REMARK    3  A    between atoms: O_5  and  C_12
REMARK    4  A    between atoms: N_8  and  C_10
REMARK    5  A    between atoms: N_8  and  C_11
REMARK    6  A    between atoms: N_9  and  C_20
REMARK    7  A    between atoms: C_13  and  C_20
REMARK                            x       y       z     vdW  Elec       q    Type
REMARK                         _______ _______ _______ _____ _____    ______ ____
ROOT
ATOM      4  O   UNL     1      10.679   8.648  20.110  0.00  0.00    -0.371 OA
ATOM     10  C   UNL     1      12.380   7.128  19.447  0.00  0.00    +0.111 C 
ATOM     12  C   UNL     1      12.211   7.055  20.954  0.00  0.00    +0.164 C 
ATOM     13  C   UNL     1      10.812   7.633  21.119  0.00  0.00    +0.164 C 
ATOM     16  C   UNL     1      11.719   8.461  19.135  0.00  0.00    +0.181 C 
ENDROOT
BRANCH  12   5
ATOM      5  O   UNL     1      12.297   5.733  21.449  0.00  0.00    -0.388 OA
ATOM     23  H   UNL     1      11.446   5.290  21.289  0.00  0.00    +0.210 HD
ENDBRANCH  12   5
BRANCH  10   8
ATOM      8  N   UNL     1      13.766   7.068  19.013  0.00  0.00    -0.306 NA
ATOM     22  H   UNL     1      13.915   7.689  18.219  0.00  0.00    +0.123 HD
BRANCH   8  11
ATOM      2  F   UNL     1      18.184   8.235  22.190  0.00  0.00    -0.206 F 
ATOM      3  F   UNL     1      18.187   7.650  20.096  0.00  0.00    -0.206 F 
ATOM     11  C   UNL     1      14.667   7.430  20.106  0.00  0.00    +0.054 C 
ATOM     14  C   UNL     1      15.454   8.693  19.735  0.00  0.00    +0.024 C 
ATOM     15  C   UNL     1      15.607   6.259  20.415  0.00  0.00    +0.024 C 
ATOM     17  C   UNL     1      16.458   9.061  20.825  0.00  0.00    +0.077 C 
ATOM     18  C   UNL     1      16.613   6.627  21.506  0.00  0.00    +0.077 C 
ATOM     19  C   UNL     1      17.374   7.895  21.156  0.00  0.00    +0.249 C 
ENDBRANCH   8  11
ENDBRANCH  10   8
BRANCH  13  20
ATOM     20  C   UNL     1      10.571   8.239  22.490  0.00  0.00    +0.139 C 
BRANCH  20   9
ATOM      9  N   UNL     1      10.168   9.651  22.345  0.00  0.00    -0.192 NA
ATOM     24  H   UNL     1       9.156   9.800  22.455  0.00  0.00    +0.148 HD
BRANCH   9   1
ATOM      1  S   UNL     1      11.181  10.872  22.970  0.00  0.00    +0.027 S 
ATOM      6  O   UNL     1      11.122  10.869  24.419  0.00  0.00    -0.158 OA
ATOM      7  O   UNL     1      10.944  12.092  22.221  0.00  0.00    -0.158 OA
ATOM     21  C   UNL     1      12.776  10.254  22.485  0.00  0.00    +0.214 C 
ENDBRANCH   9   1
ENDBRANCH  20   9
ENDBRANCH  13  20
TORSDOF 6
ENDMDL
MODEL 2
REMARK VINA RESULT:      -5.8      5.263      7.368
REMARK  Name = 75536656
REMARK  7 active torsions:
REMARK  status: ('A' for Active; 'I' for Inactive)
REMARK    1  A    between atoms: S_1  and  N_9
REMARK    2  A    between atoms: S_1  and  C_21
REMARK    3  A    between atoms: O_5  and  C_12
REMARK    4  A    between atoms: N_8  and  C_10
REMARK    5  A    between atoms: N_8  and  C_11
REMARK    6  A    between atoms: N_9  and  C_20
REMARK    7  A    between atoms: C_13  and  C_20
REMARK                            x       y       z     vdW  Elec       q    Type
REMARK                         _______ _______ _______ _____ _____    ______ ____
ROOT
ATOM      4  O   UNL     1      17.906   5.854  18.827  0.00  0.00    -0.371 OA
ATOM     10  C   UNL     1      16.149   6.701  20.184  0.00  0.00    +0.111 C 
ATOM     12  C   UNL     1      17.365   6.439  21.054  0.00  0.00    +0.164 C 
ATOM     13  C   UNL     1      18.475   6.434  20.012  0.00  0.00    +0.164 C 
ATOM     16  C   UNL     1      16.473   5.865  18.957  0.00  0.00    +0.181 C 
ENDROOT
BRANCH  12   5
ATOM      5  O   UNL     1      17.564   7.443  22.030  0.00  0.00    -0.388 OA
ATOM     23  H   UNL     1      16.995   7.244  22.794  0.00  0.00    +0.210 HD
ENDBRANCH  12   5
BRANCH  10   8
ATOM      8  N   UNL     1      14.893   6.324  20.810  0.00  0.00    -0.306 NA
ATOM     22  H   UNL     1      15.047   6.066  21.784  0.00  0.00    +0.123 HD
BRANCH   8  11
ATOM      2  F   UNL     1      10.686   9.866  21.660  0.00  0.00    -0.206 F 
ATOM      3  F   UNL     1      11.195   8.119  22.849  0.00  0.00    -0.206 F 
ATOM     11  C   UNL     1      13.926   7.418  20.731  0.00  0.00    +0.054 C 
ATOM     14  C   UNL     1      14.011   8.280  21.996  0.00  0.00    +0.024 C 
ATOM     15  C   UNL     1      12.514   6.852  20.538  0.00  0.00    +0.024 C 
ATOM     17  C   UNL     1      12.965   9.393  21.981  0.00  0.00    +0.077 C 
ATOM     18  C   UNL     1      11.467   7.965  20.523  0.00  0.00    +0.077 C 
ATOM     19  C   UNL     1      11.567   8.840  21.760  0.00  0.00    +0.249 C 
ENDBRANCH   8  11
ENDBRANCH  10   8
BRANCH  13  20
ATOM     20  C   UNL     1      19.695   5.637  20.438  0.00  0.00    +0.139 C 
BRANCH  20   9
ATOM      9  N   UNL     1      20.713   6.548  20.996  0.00  0.00    -0.192 NA
ATOM     24  H   UNL     1      20.653   7.505  20.623  0.00  0.00    +0.148 HD
BRANCH   9   1
ATOM      1  S   UNL     1      21.141   6.406  22.641  0.00  0.00    +0.027 S 
ATOM      6  O   UNL     1      19.947   6.250  23.450  0.00  0.00    -0.158 OA
ATOM      7  O   UNL     1      22.118   7.433  22.951  0.00  0.00    -0.158 OA
ATOM     21  C   UNL     1      21.998   4.848  22.624  0.00  0.00    +0.214 C 
ENDBRANCH   9   1
ENDBRANCH  20   9
ENDBRANCH  13  20
TORSDOF 6
ENDMDL
MODEL 3
REMARK VINA RESULT:      -5.8     25.914     27.063
REMARK  Name = 75536656
REMARK  7 active torsions:
REMARK  status: ('A' for Active; 'I' for Inactive)
REMARK    1  A    between atoms: S_1  and  N_9
REMARK    2  A    between atoms: S_1  and  C_21
REMARK    3  A    between atoms: O_5  and  C_12
REMARK    4  A    between atoms: N_8  and  C_10
REMARK    5  A    between atoms: N_8  and  C_11
REMARK    6  A    between atoms: N_9  and  C_20
REMARK    7  A    between atoms: C_13  and  C_20
REMARK                            x       y       z     vdW  Elec       q    Type
REMARK                         _______ _______ _______ _____ _____    ______ ____
ROOT
ATOM      4  O   UNL     1      -1.936 -10.826  16.503  0.00  0.00    -0.371 OA
ATOM     10  C   UNL     1      -2.486 -11.189  14.220  0.00  0.00    +0.111 C 
ATOM     12  C   UNL     1      -3.707 -11.478  15.076  0.00  0.00    +0.164 C 
ATOM     13  C   UNL     1      -3.360 -10.714  16.346  0.00  0.00    +0.164 C 
ATOM     16  C   UNL     1      -1.372 -11.260  15.252  0.00  0.00    +0.181 C 
ENDROOT
BRANCH  12   5
ATOM      5  O   UNL     1      -4.906 -11.011  14.490  0.00  0.00    -0.388 OA
ATOM     23  H   UNL     1      -4.816 -11.065  13.523  0.00  0.00    +0.210 HD
ENDBRANCH  12   5
BRANCH  10   8
ATOM      8  N   UNL     1      -2.305 -12.130  13.127  0.00  0.00    -0.306 NA
ATOM     22  H   UNL     1      -2.999 -12.874  13.183  0.00  0.00    +0.123 HD
BRANCH   8  11
ATOM      2  F   UNL     1      -3.636  -8.752   8.909  0.00  0.00    -0.206 F 
ATOM      3  F   UNL     1      -4.435  -8.710  10.931  0.00  0.00    -0.206 F 
ATOM     11  C   UNL     1      -2.407 -11.450  11.837  0.00  0.00    +0.054 C 
ATOM     14  C   UNL     1      -1.995  -9.980  11.989  0.00  0.00    +0.024 C 
ATOM     15  C   UNL     1      -3.836 -11.573  11.295  0.00  0.00    +0.024 C 
ATOM     17  C   UNL     1      -2.158  -9.219  10.675  0.00  0.00    +0.077 C 
ATOM     18  C   UNL     1      -3.999 -10.812   9.980  0.00  0.00    +0.077 C 
ATOM     19  C   UNL     1      -3.564  -9.363  10.119  0.00  0.00    +0.249 C 
ENDBRANCH   8  11
ENDBRANCH  10   8
BRANCH  13  20
ATOM     20  C   UNL     1      -4.056 -11.257  17.582  0.00  0.00    +0.139 C 
BRANCH  20   9
ATOM      9  N   UNL     1      -5.456 -11.591  17.257  0.00  0.00    -0.192 NA
ATOM     24  H   UNL     1      -5.701 -12.569  17.466  0.00  0.00    +0.148 HD
BRANCH   9   1
ATOM      1  S   UNL     1      -6.674 -10.432  17.540  0.00  0.00    +0.027 S 
ATOM      6  O   UNL     1      -6.579  -9.367  16.560  0.00  0.00    -0.158 OA
ATOM      7  O   UNL     1      -6.703 -10.133  18.959  0.00  0.00    -0.158 OA
ATOM     21  C   UNL     1      -8.128 -11.387  17.170  0.00  0.00    +0.214 C 
ENDBRANCH   9   1
ENDBRANCH  20   9
ENDBRANCH  13  20
TORSDOF 6
ENDMDL
MODEL 4
REMARK VINA RESULT:      -5.7     25.333     27.393
REMARK  Name = 75536656
REMARK  7 active torsions:
REMARK  status: ('A' for Active; 'I' for Inactive)
REMARK    1  A    between atoms: S_1  and  N_9
REMARK    2  A    between atoms: S_1  and  C_21
REMARK    3  A    between atoms: O_5  and  C_12
REMARK    4  A    between atoms: N_8  and  C_10
REMARK    5  A    between atoms: N_8  and  C_11
REMARK    6  A    between atoms: N_9  and  C_20
REMARK    7  A    between atoms: C_13  and  C_20
REMARK                            x       y       z     vdW  Elec       q    Type
REMARK                         _______ _______ _______ _____ _____    ______ ____
ROOT
ATOM      4  O   UNL     1     -15.639   7.087  20.885  0.00  0.00    -0.371 OA
ATOM     10  C   UNL     1     -13.274   7.274  20.759  0.00  0.00    +0.111 C 
ATOM     12  C   UNL     1     -13.633   6.194  21.764  0.00  0.00    +0.164 C 
ATOM     13  C   UNL     1     -15.053   5.854  21.333  0.00  0.00    +0.164 C 
ATOM     16  C   UNL     1     -14.584   8.038  20.659  0.00  0.00    +0.181 C 
ENDROOT
BRANCH  12   5
ATOM      5  O   UNL     1     -12.777   5.071  21.689  0.00  0.00    -0.388 OA
ATOM     23  H   UNL     1     -13.281   4.325  21.321  0.00  0.00    +0.210 HD
ENDBRANCH  12   5
BRANCH  10   8
ATOM      8  N   UNL     1     -12.160   8.109  21.175  0.00  0.00    -0.306 NA
ATOM     22  H   UNL     1     -11.667   7.678  21.955  0.00  0.00    +0.123 HD
BRANCH   8  11
ATOM      2  F   UNL     1      -9.801   9.491  16.327  0.00  0.00    -0.206 F 
ATOM      3  F   UNL     1     -11.879   9.765  16.905  0.00  0.00    -0.206 F 
ATOM     11  C   UNL     1     -11.238   8.333  20.063  0.00  0.00    +0.054 C 
ATOM     14  C   UNL     1     -11.144   9.833  19.758  0.00  0.00    +0.024 C 
ATOM     15  C   UNL     1     -11.704   7.544  18.834  0.00  0.00    +0.024 C 
ATOM     17  C   UNL     1     -10.242  10.099  18.554  0.00  0.00    +0.077 C 
ATOM     18  C   UNL     1     -10.802   7.809  17.629  0.00  0.00    +0.077 C 
ATOM     19  C   UNL     1     -10.682   9.297  17.341  0.00  0.00    +0.249 C 
ENDBRANCH   8  11
ENDBRANCH  10   8
BRANCH  13  20
ATOM     20  C   UNL     1     -15.895   5.264  22.451  0.00  0.00    +0.139 C 
BRANCH  20   9
ATOM      9  N   UNL     1     -15.471   3.874  22.711  0.00  0.00    -0.192 NA
ATOM     24  H   UNL     1     -14.468   3.786  22.923  0.00  0.00    +0.148 HD
BRANCH   9   1
ATOM      1  S   UNL     1     -16.516   2.833  23.567  0.00  0.00    +0.027 S 
ATOM      6  O   UNL     1     -15.882   2.402  24.798  0.00  0.00    -0.158 OA
ATOM      7  O   UNL     1     -17.064   1.865  22.636  0.00  0.00    -0.158 OA
ATOM     21  C   UNL     1     -17.825   3.960  23.991  0.00  0.00    +0.214 C 
ENDBRANCH   9   1
ENDBRANCH  20   9
ENDBRANCH  13  20
TORSDOF 6
ENDMDL
MODEL 5
REMARK VINA RESULT:      -5.7     27.187     28.678
REMARK  Name = 75536656
REMARK  7 active torsions:
REMARK  status: ('A' for Active; 'I' for Inactive)
REMARK    1  A    between atoms: S_1  and  N_9
REMARK    2  A    between atoms: S_1  and  C_21
REMARK    3  A    between atoms: O_5  and  C_12
REMARK    4  A    between atoms: N_8  and  C_10
REMARK    5  A    between atoms: N_8  and  C_11
REMARK    6  A    between atoms: N_9  and  C_20
REMARK    7  A    between atoms: C_13  and  C_20
REMARK                            x       y       z     vdW  Elec       q    Type
REMARK                         _______ _______ _______ _____ _____    ______ ____
ROOT
ATOM      4  O   UNL     1     -10.217 -10.781  15.770  0.00  0.00    -0.371 OA
ATOM     10  C   UNL     1      -8.256  -9.784  16.667  0.00  0.00    +0.111 C 
ATOM     12  C   UNL     1      -9.342  -8.728  16.553  0.00  0.00    +0.164 C 
ATOM     13  C   UNL     1     -10.590  -9.597  16.494  0.00  0.00    +0.164 C 
ATOM     16  C   UNL     1      -8.781 -10.856  15.727  0.00  0.00    +0.181 C 
ENDROOT
BRANCH  12   5
ATOM      5  O   UNL     1      -9.364  -7.847  17.659  0.00  0.00    -0.388 OA
ATOM     23  H   UNL     1      -9.498  -6.943  17.328  0.00  0.00    +0.210 HD
ENDBRANCH  12   5
BRANCH  10   8
ATOM      8  N   UNL     1      -6.935  -9.303  16.298  0.00  0.00    -0.306 NA
ATOM     22  H   UNL     1      -6.932  -8.286  16.243  0.00  0.00    +0.123 HD
BRANCH   8  11
ATOM      2  F   UNL     1      -3.712 -12.278  19.724  0.00  0.00    -0.206 F 
ATOM      3  F   UNL     1      -5.338 -13.010  18.480  0.00  0.00    -0.206 F 
ATOM     11  C   UNL     1      -5.932  -9.755  17.261  0.00  0.00    +0.054 C 
ATOM     14  C   UNL     1      -4.993 -10.769  16.597  0.00  0.00    +0.024 C 
ATOM     15  C   UNL     1      -6.625 -10.359  18.489  0.00  0.00    +0.024 C 
ATOM     17  C   UNL     1      -3.974 -11.317  17.595  0.00  0.00    +0.077 C 
ATOM     18  C   UNL     1      -5.606 -10.907  19.487  0.00  0.00    +0.077 C 
ATOM     19  C   UNL     1      -4.654 -11.890  18.827  0.00  0.00    +0.249 C 
ENDBRANCH   8  11
ENDBRANCH  10   8
BRANCH  13  20
ATOM     20  C   UNL     1     -11.760  -8.921  15.802  0.00  0.00    +0.139 C 
BRANCH  20   9
ATOM      9  N   UNL     1     -11.274  -7.775  15.009  0.00  0.00    -0.192 NA
ATOM     24  H   UNL     1     -11.121  -8.002  14.017  0.00  0.00    +0.148 HD
BRANCH   9   1
ATOM      1  S   UNL     1     -11.882  -6.217  15.342  0.00  0.00    +0.027 S 
ATOM      6  O   UNL     1     -11.821  -5.399  14.146  0.00  0.00    -0.158 OA
ATOM      7  O   UNL     1     -11.300  -5.754  16.588  0.00  0.00    -0.158 OA
ATOM     21  C   UNL     1     -13.590  -6.594  15.662  0.00  0.00    +0.214 C 
ENDBRANCH   9   1
ENDBRANCH  20   9
ENDBRANCH  13  20
TORSDOF 6
ENDMDL
MODEL 6
REMARK VINA RESULT:      -5.7      3.040      3.863
REMARK  Name = 75536656
REMARK  7 active torsions:
REMARK  status: ('A' for Active; 'I' for Inactive)
REMARK    1  A    between atoms: S_1  and  N_9
REMARK    2  A    between atoms: S_1  and  C_21
REMARK    3  A    between atoms: O_5  and  C_12
REMARK    4  A    between atoms: N_8  and  C_10
REMARK    5  A    between atoms: N_8  and  C_11
REMARK    6  A    between atoms: N_9  and  C_20
REMARK    7  A    between atoms: C_13  and  C_20
REMARK                            x       y       z     vdW  Elec       q    Type
REMARK                         _______ _______ _______ _____ _____    ______ ____
ROOT
ATOM      4  O   UNL     1      10.598   8.311  20.130  0.00  0.00    -0.371 OA
ATOM     10  C   UNL     1      12.716   7.572  19.346  0.00  0.00    +0.111 C 
ATOM     12  C   UNL     1      12.769   7.713  20.857  0.00  0.00    +0.164 C 
ATOM     13  C   UNL     1      11.289   7.656  21.208  0.00  0.00    +0.164 C 
ATOM     16  C   UNL     1      11.494   8.410  19.009  0.00  0.00    +0.181 C 
ENDROOT
BRANCH  12   5
ATOM      5  O   UNL     1      13.498   6.671  21.477  0.00  0.00    -0.388 OA
ATOM     23  H   UNL     1      12.927   5.886  21.527  0.00  0.00    +0.210 HD
ENDBRANCH  12   5
BRANCH  10   8
ATOM      8  N   UNL     1      13.921   8.031  18.675  0.00  0.00    -0.306 NA
ATOM     22  H   UNL     1      14.284   7.302  18.062  0.00  0.00    +0.123 HD
BRANCH   8  11
ATOM      2  F   UNL     1      14.277  12.538  15.430  0.00  0.00    -0.206 F 
ATOM      3  F   UNL     1      15.875  11.157  15.944  0.00  0.00    -0.206 F 
ATOM     11  C   UNL     1      13.654   9.244  17.904  0.00  0.00    +0.054 C 
ATOM     14  C   UNL     1      13.936   8.989  16.419  0.00  0.00    +0.024 C 
ATOM     15  C   UNL     1      14.506  10.400  18.442  0.00  0.00    +0.024 C 
ATOM     17  C   UNL     1      13.737  10.256  15.590  0.00  0.00    +0.077 C 
ATOM     18  C   UNL     1      14.306  11.669  17.613  0.00  0.00    +0.077 C 
ATOM     19  C   UNL     1      14.556  11.414  16.136  0.00  0.00    +0.249 C 
ENDBRANCH   8  11
ENDBRANCH  10   8
BRANCH  13  20
ATOM     20  C   UNL     1      10.956   8.342  22.521  0.00  0.00    +0.139 C 
BRANCH  20   9
ATOM      9  N   UNL     1      10.425   9.693  22.254  0.00  0.00    -0.192 NA
ATOM     24  H   UNL     1       9.416   9.778  22.437  0.00  0.00    +0.148 HD
BRANCH   9   1
ATOM      1  S   UNL     1      11.378  11.053  22.645  0.00  0.00    +0.027 S 
ATOM      6  O   UNL     1      10.882  12.220  21.942  0.00  0.00    -0.158 OA
ATOM      7  O   UNL     1      12.776  10.673  22.560  0.00  0.00    -0.158 OA
ATOM     21  C   UNL     1      10.985  11.243  24.369  0.00  0.00    +0.214 C 
ENDBRANCH   9   1
ENDBRANCH  20   9
ENDBRANCH  13  20
TORSDOF 6
ENDMDL
MODEL 7
REMARK VINA RESULT:      -5.6     26.222     27.874
REMARK  Name = 75536656
REMARK  7 active torsions:
REMARK  status: ('A' for Active; 'I' for Inactive)
REMARK    1  A    between atoms: S_1  and  N_9
REMARK    2  A    between atoms: S_1  and  C_21
REMARK    3  A    between atoms: O_5  and  C_12
REMARK    4  A    between atoms: N_8  and  C_10
REMARK    5  A    between atoms: N_8  and  C_11
REMARK    6  A    between atoms: N_9  and  C_20
REMARK    7  A    between atoms: C_13  and  C_20
REMARK                            x       y       z     vdW  Elec       q    Type
REMARK                         _______ _______ _______ _____ _____    ______ ____
ROOT
ATOM      4  O   UNL     1      -1.797 -11.004  13.493  0.00  0.00    -0.371 OA
ATOM     10  C   UNL     1      -3.755 -10.853  14.830  0.00  0.00    +0.111 C 
ATOM     12  C   UNL     1      -4.098 -10.463  13.403  0.00  0.00    +0.164 C 
ATOM     13  C   UNL     1      -2.949 -11.107  12.640  0.00  0.00    +0.164 C 
ATOM     16  C   UNL     1      -2.243 -10.702  14.828  0.00  0.00    +0.181 C 
ENDROOT
BRANCH  12   5
ATOM      5  O   UNL     1      -5.353 -10.964  12.987  0.00  0.00    -0.388 OA
ATOM     23  H   UNL     1      -5.430 -10.838  12.026  0.00  0.00    +0.210 HD
ENDBRANCH  12   5
BRANCH  10   8
ATOM      8  N   UNL     1      -4.406 -10.026  15.833  0.00  0.00    -0.306 NA
ATOM     22  H   UNL     1      -5.004  -9.333  15.385  0.00  0.00    +0.123 HD
BRANCH   8  11
ATOM      2  F   UNL     1      -7.189 -12.066  20.198  0.00  0.00    -0.206 F 
ATOM      3  F   UNL     1      -6.151 -10.160  20.074  0.00  0.00    -0.206 F 
ATOM     11  C   UNL     1      -5.194 -10.847  16.749  0.00  0.00    +0.054 C 
ATOM     14  C   UNL     1      -6.475 -10.102  17.145  0.00  0.00    +0.024 C 
ATOM     15  C   UNL     1      -4.354 -11.202  17.983  0.00  0.00    +0.024 C 
ATOM     17  C   UNL     1      -7.291 -10.900  18.160  0.00  0.00    +0.077 C 
ATOM     18  C   UNL     1      -5.170 -12.001  18.998  0.00  0.00    +0.077 C 
ATOM     19  C   UNL     1      -6.455 -11.281  19.371  0.00  0.00    +0.249 C 
ENDBRANCH   8  11
ENDBRANCH  10   8
BRANCH  13  20
ATOM     20  C   UNL     1      -2.662 -10.435  11.309  0.00  0.00    +0.139 C 
BRANCH  20   9
ATOM      9  N   UNL     1      -3.531 -11.011  10.265  0.00  0.00    -0.192 NA
ATOM     24  H   UNL     1      -3.875 -11.953  10.494  0.00  0.00    +0.148 HD
BRANCH   9   1
ATOM      1  S   UNL     1      -4.620  -9.993   9.436  0.00  0.00    +0.027 S 
ATOM      6  O   UNL     1      -3.961  -8.751   9.080  0.00  0.00    -0.158 OA
ATOM      7  O   UNL     1      -5.879  -9.984  10.156  0.00  0.00    -0.158 OA
ATOM     21  C   UNL     1      -4.870 -10.927   7.944  0.00  0.00    +0.214 C 
ENDBRANCH   9   1
ENDBRANCH  20   9
ENDBRANCH  13  20
TORSDOF 6
ENDMDL
MODEL 8
REMARK VINA RESULT:      -5.6     26.553     28.297
REMARK  Name = 75536656
REMARK  7 active torsions:
REMARK  status: ('A' for Active; 'I' for Inactive)
REMARK    1  A    between atoms: S_1  and  N_9
REMARK    2  A    between atoms: S_1  and  C_21
REMARK    3  A    between atoms: O_5  and  C_12
REMARK    4  A    between atoms: N_8  and  C_10
REMARK    5  A    between atoms: N_8  and  C_11
REMARK    6  A    between atoms: N_9  and  C_20
REMARK    7  A    between atoms: C_13  and  C_20
REMARK                            x       y       z     vdW  Elec       q    Type
REMARK                         _______ _______ _______ _____ _____    ______ ____
ROOT
ATOM      4  O   UNL     1      -3.782 -10.457  13.725  0.00  0.00    -0.371 OA
ATOM     10  C   UNL     1      -3.329 -10.913  16.012  0.00  0.00    +0.111 C 
ATOM     12  C   UNL     1      -2.208 -11.484  15.161  0.00  0.00    +0.164 C 
ATOM     13  C   UNL     1      -2.370 -10.673  13.883  0.00  0.00    +0.164 C 
ATOM     16  C   UNL     1      -4.430 -10.736  14.979  0.00  0.00    +0.181 C 
ENDROOT
BRANCH  12   5
ATOM      5  O   UNL     1      -0.933 -11.299  15.743  0.00  0.00    -0.388 OA
ATOM     23  H   UNL     1      -0.282 -11.193  15.029  0.00  0.00    +0.210 HD
ENDBRANCH  12   5
BRANCH  10   8
ATOM      8  N   UNL     1      -3.720 -11.776  17.114  0.00  0.00    -0.306 NA
ATOM     22  H   UNL     1      -3.144 -11.585  17.933  0.00  0.00    +0.123 HD
BRANCH   8  11
ATOM      2  F   UNL     1      -8.693 -11.602  19.606  0.00  0.00    -0.206 F 
ATOM      3  F   UNL     1      -6.822 -12.318  20.451  0.00  0.00    -0.206 F 
ATOM     11  C   UNL     1      -5.131 -11.588  17.443  0.00  0.00    +0.054 C 
ATOM     14  C   UNL     1      -5.267 -10.612  18.618  0.00  0.00    +0.024 C 
ATOM     15  C   UNL     1      -5.774 -12.942  17.768  0.00  0.00    +0.024 C 
ATOM     17  C   UNL     1      -6.727 -10.447  19.037  0.00  0.00    +0.077 C 
ATOM     18  C   UNL     1      -7.235 -12.777  18.187  0.00  0.00    +0.077 C 
ATOM     19  C   UNL     1      -7.377 -11.788  19.331  0.00  0.00    +0.249 C 
ENDBRANCH   8  11
ENDBRANCH  10   8
BRANCH  13  20
ATOM     20  C   UNL     1      -1.820 -11.374  12.653  0.00  0.00    +0.139 C 
BRANCH  20   9
ATOM      9  N   UNL     1      -1.723 -12.824  12.910  0.00  0.00    -0.192 NA
ATOM     24  H   UNL     1      -1.495 -13.051  13.888  0.00  0.00    +0.148 HD
BRANCH   9   1
ATOM      1  S   UNL     1      -2.808 -13.881  12.126  0.00  0.00    +0.027 S 
ATOM      6  O   UNL     1      -2.147 -15.138  11.832  0.00  0.00    -0.158 OA
ATOM      7  O   UNL     1      -3.495 -13.143  11.083  0.00  0.00    -0.158 OA
ATOM     21  C   UNL     1      -3.982 -14.172  13.430  0.00  0.00    +0.214 C 
ENDBRANCH   9   1
ENDBRANCH  20   9
ENDBRANCH  13  20
TORSDOF 6
ENDMDL
MODEL 9
REMARK VINA RESULT:      -5.5     26.432     28.023
REMARK  Name = 75536656
REMARK  7 active torsions:
REMARK  status: ('A' for Active; 'I' for Inactive)
REMARK    1  A    between atoms: S_1  and  N_9
REMARK    2  A    between atoms: S_1  and  C_21
REMARK    3  A    between atoms: O_5  and  C_12
REMARK    4  A    between atoms: N_8  and  C_10
REMARK    5  A    between atoms: N_8  and  C_11
REMARK    6  A    between atoms: N_9  and  C_20
REMARK    7  A    between atoms: C_13  and  C_20
REMARK                            x       y       z     vdW  Elec       q    Type
REMARK                         _______ _______ _______ _____ _____    ______ ____
ROOT
ATOM      4  O   UNL     1      -6.855 -13.093  18.562  0.00  0.00    -0.371 OA
ATOM     10  C   UNL     1      -5.380 -11.244  18.345  0.00  0.00    +0.111 C 
ATOM     12  C   UNL     1      -6.678 -10.771  18.977  0.00  0.00    +0.164 C 
ATOM     13  C   UNL     1      -7.238 -12.083  19.510  0.00  0.00    +0.164 C 
ATOM     16  C   UNL     1      -5.810 -12.563  17.727  0.00  0.00    +0.181 C 
ENDROOT
BRANCH  12   5
ATOM      5  O   UNL     1      -6.470  -9.829  20.011  0.00  0.00    -0.388 OA
ATOM     23  H   UNL     1      -5.527  -9.838  20.249  0.00  0.00    +0.210 HD
ENDBRANCH  12   5
BRANCH  10   8
ATOM      8  N   UNL     1      -4.834 -10.313  17.372  0.00  0.00    -0.306 NA
ATOM     22  H   UNL     1      -4.200  -9.657  17.827  0.00  0.00    +0.123 HD
BRANCH   8  11
ATOM      2  F   UNL     1      -1.750 -11.738  12.964  0.00  0.00    -0.206 F 
ATOM      3  F   UNL     1      -2.093  -9.736  13.738  0.00  0.00    -0.206 F 
ATOM     11  C   UNL     1      -4.132 -11.029  16.308  0.00  0.00    +0.054 C 
ATOM     14  C   UNL     1      -2.621 -10.799  16.435  0.00  0.00    +0.024 C 
ATOM     15  C   UNL     1      -4.651 -10.569  14.941  0.00  0.00    +0.024 C 
ATOM     17  C   UNL     1      -1.859 -11.475  15.297  0.00  0.00    +0.077 C 
ATOM     18  C   UNL     1      -3.889 -11.245  13.801  0.00  0.00    +0.077 C 
ATOM     19  C   UNL     1      -2.389 -11.045  13.939  0.00  0.00    +0.249 C 
ENDBRANCH   8  11
ENDBRANCH  10   8
BRANCH  13  20
ATOM     20  C   UNL     1      -8.748 -12.072  19.665  0.00  0.00    +0.139 C 
BRANCH  20   9
ATOM      9  N   UNL     1      -9.209 -10.696  19.937  0.00  0.00    -0.192 NA
ATOM     24  H   UNL     1      -8.442 -10.012  19.989  0.00  0.00    +0.148 HD
BRANCH   9   1
ATOM      1  S   UNL     1     -10.660 -10.150  19.226  0.00  0.00    +0.027 S 
ATOM      6  O   UNL     1     -10.373  -9.109  18.258  0.00  0.00    -0.158 OA
ATOM      7  O   UNL     1     -11.634  -9.936  20.279  0.00  0.00    -0.158 OA
ATOM     21  C   UNL     1     -11.155 -11.606  18.333  0.00  0.00    +0.214 C 
ENDBRANCH   9   1
ENDBRANCH  20   9
ENDBRANCH  13  20
TORSDOF 6
ENDMDL
MODEL 10
REMARK VINA RESULT:      -5.5     25.585     27.366
REMARK  Name = 75536656
REMARK  7 active torsions:
REMARK  status: ('A' for Active; 'I' for Inactive)
REMARK    1  A    between atoms: S_1  and  N_9
REMARK    2  A    between atoms: S_1  and  C_21
REMARK    3  A    between atoms: O_5  and  C_12
REMARK    4  A    between atoms: N_8  and  C_10
REMARK    5  A    between atoms: N_8  and  C_11
REMARK    6  A    between atoms: N_9  and  C_20
REMARK    7  A    between atoms: C_13  and  C_20
REMARK                            x       y       z     vdW  Elec       q    Type
REMARK                         _______ _______ _______ _____ _____    ______ ____
ROOT
ATOM      4  O   UNL     1      -1.672 -10.412  13.273  0.00  0.00    -0.371 OA
ATOM     10  C   UNL     1      -1.775 -11.357  15.450  0.00  0.00    +0.111 C 
ATOM     12  C   UNL     1      -2.660 -12.165  14.518  0.00  0.00    +0.164 C 
ATOM     13  C   UNL     1      -2.078 -11.787  13.163  0.00  0.00    +0.164 C 
ATOM     16  C   UNL     1      -1.615 -10.064  14.668  0.00  0.00    +0.181 C 
ENDROOT
BRANCH  12   5
ATOM      5  O   UNL     1      -2.577 -13.556  14.757  0.00  0.00    -0.388 OA
ATOM     23  H   UNL     1      -1.910 -13.710  15.447  0.00  0.00    +0.210 HD
ENDBRANCH  12   5
BRANCH  10   8
ATOM      8  N   UNL     1      -2.351 -11.153  16.769  0.00  0.00    -0.306 NA
ATOM     22  H   UNL     1      -2.096 -10.234  17.128  0.00  0.00    +0.123 HD
BRANCH   8  11
ATOM      2  F   UNL     1      -7.812 -10.959  17.822  0.00  0.00    -0.206 F 
ATOM      3  F   UNL     1      -6.207 -10.151  19.045  0.00  0.00    -0.206 F 
ATOM     11  C   UNL     1      -3.806 -11.285  16.724  0.00  0.00    +0.054 C 
ATOM     14  C   UNL     1      -4.454  -9.896  16.689  0.00  0.00    +0.024 C 
ATOM     15  C   UNL     1      -4.293 -12.096  17.931  0.00  0.00    +0.024 C 
ATOM     17  C   UNL     1      -5.978  -9.993  16.714  0.00  0.00    +0.077 C 
ATOM     18  C   UNL     1      -5.818 -12.194  17.956  0.00  0.00    +0.077 C 
ATOM     19  C   UNL     1      -6.464 -10.820  17.892  0.00  0.00    +0.249 C 
ENDBRANCH   8  11
ENDBRANCH  10   8
BRANCH  13  20
ATOM     20  C   UNL     1      -3.068 -11.939  12.021  0.00  0.00    +0.139 C 
BRANCH  20   9
ATOM      9  N   UNL     1      -3.823 -10.683  11.849  0.00  0.00    -0.192 NA
ATOM     24  H   UNL     1      -3.857 -10.107  12.701  0.00  0.00    +0.148 HD
BRANCH   9   1
ATOM      1  S   UNL     1      -3.703  -9.837  10.372  0.00  0.00    +0.027 S 
ATOM      6  O   UNL     1      -4.101 -10.700   9.277  0.00  0.00    -0.158 OA
ATOM      7  O   UNL     1      -2.431  -9.140  10.345  0.00  0.00    -0.158 OA
ATOM     21  C   UNL     1      -4.974  -8.612  10.593  0.00  0.00    +0.214 C 
ENDBRANCH   9   1
ENDBRANCH  20   9
ENDBRANCH  13  20
TORSDOF 6
ENDMDL
