MODEL 1
REMARK VINA RESULT:      -7.4      0.000      0.000
REMARK  Name = 51136967
REMARK  5 active torsions:
REMARK  status: ('A' for Active; 'I' for Inactive)
REMARK    1  A    between atoms: N_2  and  C_13
REMARK    2  A    between atoms: C_9  and  C_14
REMARK    3  A    between atoms: C_13  and  C_15
REMARK    4  A    between atoms: C_16  and  C_18
REMARK    5  A    between atoms: C_23  and  C_24
REMARK                            x       y       z     vdW  Elec       q    Type
REMARK                         _______ _______ _______ _____ _____    ______ ____
ROOT
ATOM      1  O   UNL     1      14.781   8.684  20.246  0.00  0.00    -0.336 OA
ATOM      3  N   UNL     1      15.317   6.542  19.866  0.00  0.00    -0.190 NA
ATOM      6  N   UNL     1      16.149   8.569  20.525  0.00  0.00    -0.056 NA
ATOM     14  C   UNL     1      14.370   7.446  19.865  0.00  0.00    +0.245 A 
ATOM     16  C   UNL     1      16.390   7.278  20.278  0.00  0.00    +0.204 A 
ENDROOT
BRANCH  16  18
ATOM      7  N   UNL     1      19.283   4.996  19.781  0.00  0.00    -0.254 NA
ATOM     18  C   UNL     1      17.690   6.693  20.434  0.00  0.00    +0.041 A 
ATOM     20  C   UNL     1      18.604   7.210  21.346  0.00  0.00    +0.015 A 
ATOM     21  C   UNL     1      18.075   5.595  19.682  0.00  0.00    +0.123 A 
ATOM     22  C   UNL     1      19.857   6.622  21.476  0.00  0.00    +0.029 A 
ATOM     23  C   UNL     1      20.145   5.526  20.677  0.00  0.00    +0.071 A 
BRANCH  23  24
ATOM      8  N   UNL     1      23.906   3.585  20.914  0.00  0.00    -0.263 NA
ATOM     24  C   UNL     1      21.427   4.866  20.757  0.00  0.00    +0.003 A 
ATOM     25  C   UNL     1      22.591   5.560  20.451  0.00  0.00    +0.030 A 
ATOM     26  C   UNL     1      21.500   3.531  21.142  0.00  0.00    +0.030 A 
ATOM     27  C   UNL     1      23.795   4.880  20.544  0.00  0.00    +0.111 A 
ATOM     28  C   UNL     1      22.752   2.943  21.205  0.00  0.00    +0.111 A 
ENDBRANCH  23  24
ENDBRANCH  16  18
BRANCH  14   9
ATOM      2  N   UNL     1      12.070   8.373  20.080  0.00  0.00    -0.284 NA
ATOM      9  C   UNL     1      12.906   7.302  19.503  0.00  0.00    +0.146 C 
ATOM     10  C   UNL     1      12.659   7.387  17.986  0.00  0.00    +0.030 C 
ATOM     11  C   UNL     1      11.626   8.491  17.812  0.00  0.00    +0.017 C 
ATOM     12  C   UNL     1      10.944   8.558  19.164  0.00  0.00    +0.085 C 
BRANCH   2  13
ATOM     13  C   UNL     1      11.630   8.088  21.439  0.00  0.00    +0.159 C 
BRANCH  13  15
ATOM      4  N   UNL     1      12.823   9.962  22.601  0.00  0.00    -0.347 N 
ATOM      5  N   UNL     1      10.618   9.911  22.862  0.00  0.00    -0.239 NA
ATOM     15  C   UNL     1      11.652   9.320  22.306  0.00  0.00    +0.121 A 
ATOM     17  C   UNL     1      12.516  11.029  23.396  0.00  0.00    +0.104 A 
ATOM     19  C   UNL     1      11.150  10.977  23.543  0.00  0.00    +0.130 A 
ATOM     29  H   UNL     1      13.748   9.694  22.290  0.00  0.00    +0.167 HD
ENDBRANCH  13  15
ENDBRANCH   2  13
ENDBRANCH  14   9
TORSDOF 5
ENDMDL
MODEL 2
REMARK VINA RESULT:      -7.1      1.823      3.298
REMARK  Name = 51136967
REMARK  5 active torsions:
REMARK  status: ('A' for Active; 'I' for Inactive)
REMARK    1  A    between atoms: N_2  and  C_13
REMARK    2  A    between atoms: C_9  and  C_14
REMARK    3  A    between atoms: C_13  and  C_15
REMARK    4  A    between atoms: C_16  and  C_18
REMARK    5  A    between atoms: C_23  and  C_24
REMARK                            x       y       z     vdW  Elec       q    Type
REMARK                         _______ _______ _______ _____ _____    ______ ____
ROOT
ATOM      1  O   UNL     1      14.622   6.850  19.203  0.00  0.00    -0.336 OA
ATOM      3  N   UNL     1      15.848   7.467  20.974  0.00  0.00    -0.190 NA
ATOM      6  N   UNL     1      15.877   6.248  19.038  0.00  0.00    -0.056 NA
ATOM     14  C   UNL     1      14.691   7.549  20.366  0.00  0.00    +0.245 A 
ATOM     16  C   UNL     1      16.542   6.659  20.121  0.00  0.00    +0.204 A 
ENDROOT
BRANCH  16  18
ATOM      7  N   UNL     1      19.768   4.822  19.900  0.00  0.00    -0.254 NA
ATOM     18  C   UNL     1      17.901   6.281  20.380  0.00  0.00    +0.041 A 
ATOM     20  C   UNL     1      18.667   6.962  21.322  0.00  0.00    +0.015 A 
ATOM     21  C   UNL     1      18.494   5.228  19.703  0.00  0.00    +0.123 A 
ATOM     22  C   UNL     1      19.982   6.573  21.553  0.00  0.00    +0.029 A 
ATOM     23  C   UNL     1      20.480   5.506  20.822  0.00  0.00    +0.071 A 
BRANCH  23  24
ATOM      8  N   UNL     1      24.463   4.162  21.371  0.00  0.00    -0.263 NA
ATOM     24  C   UNL     1      21.837   5.049  21.008  0.00  0.00    +0.003 A 
ATOM     25  C   UNL     1      22.905   5.881  20.692  0.00  0.00    +0.030 A 
ATOM     26  C   UNL     1      22.080   3.773  21.506  0.00  0.00    +0.030 A 
ATOM     27  C   UNL     1      24.187   5.395  20.890  0.00  0.00    +0.111 A 
ATOM     28  C   UNL     1      23.399   3.381  21.668  0.00  0.00    +0.111 A 
ENDBRANCH  23  24
ENDBRANCH  16  18
BRANCH  14   9
ATOM      2  N   UNL     1      12.631   8.730  19.620  0.00  0.00    -0.284 NA
ATOM      9  C   UNL     1      13.442   8.301  20.777  0.00  0.00    +0.146 C 
ATOM     10  C   UNL     1      12.487   7.445  21.629  0.00  0.00    +0.030 C 
ATOM     11  C   UNL     1      11.149   7.502  20.905  0.00  0.00    +0.017 C 
ATOM     12  C   UNL     1      11.242   8.770  20.081  0.00  0.00    +0.085 C 
BRANCH   2  13
ATOM     13  C   UNL     1      13.059  10.004  19.059  0.00  0.00    +0.159 C 
BRANCH  13  15
ATOM      4  N   UNL     1      13.605   8.637  17.030  0.00  0.00    -0.347 N 
ATOM      5  N   UNL     1      13.869  10.833  16.817  0.00  0.00    -0.239 NA
ATOM     15  C   UNL     1      13.516   9.863  17.631  0.00  0.00    +0.121 A 
ATOM     17  C   UNL     1      14.044   8.839  15.752  0.00  0.00    +0.104 A 
ATOM     19  C   UNL     1      14.199  10.201  15.644  0.00  0.00    +0.130 A 
ATOM     29  H   UNL     1      13.390   7.745  17.454  0.00  0.00    +0.167 HD
ENDBRANCH  13  15
ENDBRANCH   2  13
ENDBRANCH  14   9
TORSDOF 5
ENDMDL
MODEL 3
REMARK VINA RESULT:      -6.9      1.715      2.362
REMARK  Name = 51136967
REMARK  5 active torsions:
REMARK  status: ('A' for Active; 'I' for Inactive)
REMARK    1  A    between atoms: N_2  and  C_13
REMARK    2  A    between atoms: C_9  and  C_14
REMARK    3  A    between atoms: C_13  and  C_15
REMARK    4  A    between atoms: C_16  and  C_18
REMARK    5  A    between atoms: C_23  and  C_24
REMARK                            x       y       z     vdW  Elec       q    Type
REMARK                         _______ _______ _______ _____ _____    ______ ____
ROOT
ATOM      1  O   UNL     1      16.108   8.312  20.067  0.00  0.00    -0.336 OA
ATOM      3  N   UNL     1      16.798   6.260  19.491  0.00  0.00    -0.190 NA
ATOM      6  N   UNL     1      17.337   8.118  20.712  0.00  0.00    -0.056 NA
ATOM     14  C   UNL     1      15.865   7.171  19.371  0.00  0.00    +0.245 A 
ATOM     16  C   UNL     1      17.680   6.887  20.324  0.00  0.00    +0.204 A 
ENDROOT
BRANCH  16  18
ATOM      7  N   UNL     1      20.690   6.101  22.360  0.00  0.00    -0.254 NA
ATOM     18  C   UNL     1      18.894   6.254  20.749  0.00  0.00    +0.041 A 
ATOM     20  C   UNL     1      19.458   5.218  20.011  0.00  0.00    +0.015 A 
ATOM     21  C   UNL     1      19.543   6.654  21.905  0.00  0.00    +0.123 A 
ATOM     22  C   UNL     1      20.637   4.623  20.447  0.00  0.00    +0.029 A 
ATOM     23  C   UNL     1      21.208   5.097  21.618  0.00  0.00    +0.071 A 
BRANCH  23  24
ATOM      8  N   UNL     1      24.798   3.424  23.127  0.00  0.00    -0.263 NA
ATOM     24  C   UNL     1      22.431   4.527  22.131  0.00  0.00    +0.003 A 
ATOM     25  C   UNL     1      23.432   4.117  21.258  0.00  0.00    +0.030 A 
ATOM     26  C   UNL     1      22.612   4.386  23.503  0.00  0.00    +0.030 A 
ATOM     27  C   UNL     1      24.586   3.577  21.801  0.00  0.00    +0.111 A 
ATOM     28  C   UNL     1      23.803   3.833  23.946  0.00  0.00    +0.111 A 
ENDBRANCH  23  24
ENDBRANCH  16  18
BRANCH  14   9
ATOM      2  N   UNL     1      13.421   7.642  19.335  0.00  0.00    -0.284 NA
ATOM      9  C   UNL     1      14.577   7.127  18.575  0.00  0.00    +0.146 C 
ATOM     10  C   UNL     1      14.633   8.000  17.308  0.00  0.00    +0.030 C 
ATOM     11  C   UNL     1      13.435   8.933  17.414  0.00  0.00    +0.017 C 
ATOM     12  C   UNL     1      12.494   8.201  18.350  0.00  0.00    +0.085 C 
BRANCH   2  13
ATOM     13  C   UNL     1      12.788   6.632  20.172  0.00  0.00    +0.159 C 
BRANCH  13  15
ATOM      4  N   UNL     1      10.589   6.736  21.370  0.00  0.00    -0.347 N 
ATOM      5  N   UNL     1      12.076   8.283  21.944  0.00  0.00    -0.239 NA
ATOM     15  C   UNL     1      11.843   7.244  21.172  0.00  0.00    +0.121 A 
ATOM     17  C   UNL     1       9.984   7.500  22.328  0.00  0.00    +0.104 A 
ATOM     19  C   UNL     1      10.921   8.447  22.666  0.00  0.00    +0.130 A 
ATOM     29  H   UNL     1      10.182   5.942  20.893  0.00  0.00    +0.167 HD
ENDBRANCH  13  15
ENDBRANCH   2  13
ENDBRANCH  14   9
TORSDOF 5
ENDMDL
MODEL 4
REMARK VINA RESULT:      -6.9     17.421     21.001
REMARK  Name = 51136967
REMARK  5 active torsions:
REMARK  status: ('A' for Active; 'I' for Inactive)
REMARK    1  A    between atoms: N_2  and  C_13
REMARK    2  A    between atoms: C_9  and  C_14
REMARK    3  A    between atoms: C_13  and  C_15
REMARK    4  A    between atoms: C_16  and  C_18
REMARK    5  A    between atoms: C_23  and  C_24
REMARK                            x       y       z     vdW  Elec       q    Type
REMARK                         _______ _______ _______ _____ _____    ______ ____
ROOT
ATOM      1  O   UNL     1      10.482   6.666  -1.094  0.00  0.00    -0.336 OA
ATOM      3  N   UNL     1      10.712   4.865   0.219  0.00  0.00    -0.190 NA
ATOM      6  N   UNL     1      10.172   7.088   0.206  0.00  0.00    -0.056 NA
ATOM     14  C   UNL     1      10.788   5.346  -0.996  0.00  0.00    +0.245 A 
ATOM     16  C   UNL     1      10.331   5.972   0.922  0.00  0.00    +0.204 A 
ENDROOT
BRANCH  16  18
ATOM      7  N   UNL     1      10.461   4.793   4.446  0.00  0.00    -0.254 NA
ATOM     18  C   UNL     1      10.116   5.926   2.339  0.00  0.00    +0.041 A 
ATOM     20  C   UNL     1       9.385   6.918   2.985  0.00  0.00    +0.015 A 
ATOM     21  C   UNL     1      10.628   4.895   3.108  0.00  0.00    +0.123 A 
ATOM     22  C   UNL     1       9.192   6.849   4.360  0.00  0.00    +0.029 A 
ATOM     23  C   UNL     1       9.746   5.774   5.038  0.00  0.00    +0.071 A 
BRANCH  23  24
ATOM      8  N   UNL     1       9.279   5.375   9.232  0.00  0.00    -0.263 NA
ATOM     24  C   UNL     1       9.587   5.637   6.467  0.00  0.00    +0.003 A 
ATOM     25  C   UNL     1       9.912   4.441   7.095  0.00  0.00    +0.030 A 
ATOM     26  C   UNL     1       9.108   6.704   7.220  0.00  0.00    +0.030 A 
ATOM     27  C   UNL     1       9.742   4.361   8.468  0.00  0.00    +0.111 A 
ATOM     28  C   UNL     1       8.974   6.523   8.587  0.00  0.00    +0.111 A 
ENDBRANCH  23  24
ENDBRANCH  16  18
BRANCH  14   9
ATOM      2  N   UNL     1      12.056   3.488  -2.062  0.00  0.00    -0.284 NA
ATOM      9  C   UNL     1      11.165   4.644  -2.285  0.00  0.00    +0.146 C 
ATOM     10  C   UNL     1       9.946   4.062  -3.023  0.00  0.00    +0.030 C 
ATOM     11  C   UNL     1      10.269   2.589  -3.225  0.00  0.00    +0.017 C 
ATOM     12  C   UNL     1      11.781   2.540  -3.143  0.00  0.00    +0.085 C 
BRANCH   2  13
ATOM     13  C   UNL     1      13.465   3.853  -1.998  0.00  0.00    +0.159 C 
BRANCH  13  15
ATOM      4  N   UNL     1      13.226   3.321   0.440  0.00  0.00    -0.347 N 
ATOM      5  N   UNL     1      15.216   4.078  -0.193  0.00  0.00    -0.239 NA
ATOM     15  C   UNL     1      14.004   3.764  -0.594  0.00  0.00    +0.121 A 
ATOM     17  C   UNL     1      13.991   3.356   1.572  0.00  0.00    +0.104 A 
ATOM     19  C   UNL     1      15.214   3.826   1.156  0.00  0.00    +0.130 A 
ATOM     29  H   UNL     1      12.260   3.025   0.380  0.00  0.00    +0.167 HD
ENDBRANCH  13  15
ENDBRANCH   2  13
ENDBRANCH  14   9
TORSDOF 5
ENDMDL
MODEL 5
REMARK VINA RESULT:      -6.8      2.952     10.356
REMARK  Name = 51136967
REMARK  5 active torsions:
REMARK  status: ('A' for Active; 'I' for Inactive)
REMARK    1  A    between atoms: N_2  and  C_13
REMARK    2  A    between atoms: C_9  and  C_14
REMARK    3  A    between atoms: C_13  and  C_15
REMARK    4  A    between atoms: C_16  and  C_18
REMARK    5  A    between atoms: C_23  and  C_24
REMARK                            x       y       z     vdW  Elec       q    Type
REMARK                         _______ _______ _______ _____ _____    ______ ____
ROOT
ATOM      1  O   UNL     1      21.972   6.136  21.478  0.00  0.00    -0.336 OA
ATOM      3  N   UNL     1      20.050   6.086  22.627  0.00  0.00    -0.190 NA
ATOM      6  N   UNL     1      20.951   6.344  20.541  0.00  0.00    -0.056 NA
ATOM     14  C   UNL     1      21.355   5.994  22.680  0.00  0.00    +0.245 A 
ATOM     16  C   UNL     1      19.849   6.301  21.295  0.00  0.00    +0.204 A 
ENDROOT
BRANCH  16  18
ATOM      7  N   UNL     1      16.339   7.467  20.914  0.00  0.00    -0.254 NA
ATOM     18  C   UNL     1      18.534   6.467  20.748  0.00  0.00    +0.041 A 
ATOM     20  C   UNL     1      18.160   5.827  19.571  0.00  0.00    +0.015 A 
ATOM     21  C   UNL     1      17.594   7.269  21.375  0.00  0.00    +0.123 A 
ATOM     22  C   UNL     1      16.878   6.007  19.065  0.00  0.00    +0.029 A 
ATOM     23  C   UNL     1      16.013   6.829  19.768  0.00  0.00    +0.071 A 
BRANCH  23  24
ATOM      8  N   UNL     1      12.061   7.516  18.396  0.00  0.00    -0.263 NA
ATOM     24  C   UNL     1      14.666   7.063  19.301  0.00  0.00    +0.003 A 
ATOM     25  C   UNL     1      13.587   6.865  20.155  0.00  0.00    +0.030 A 
ATOM     26  C   UNL     1      14.445   7.487  17.996  0.00  0.00    +0.030 A 
ATOM     27  C   UNL     1      12.315   7.103  19.658  0.00  0.00    +0.111 A 
ATOM     28  C   UNL     1      13.135   7.697  17.596  0.00  0.00    +0.111 A 
ENDBRANCH  23  24
ENDBRANCH  16  18
BRANCH  14   9
ATOM      2  N   UNL     1      23.337   4.794  23.591  0.00  0.00    -0.284 NA
ATOM      9  C   UNL     1      22.253   5.756  23.876  0.00  0.00    +0.146 C 
ATOM     10  C   UNL     1      22.976   7.034  24.339  0.00  0.00    +0.030 C 
ATOM     11  C   UNL     1      24.456   6.676  24.340  0.00  0.00    +0.017 C 
ATOM     12  C   UNL     1      24.457   5.165  24.456  0.00  0.00    +0.085 C 
BRANCH   2  13
ATOM     13  C   UNL     1      22.936   3.406  23.777  0.00  0.00    +0.159 C 
BRANCH  13  15
ATOM      4  N   UNL     1      23.527   2.876  21.399  0.00  0.00    -0.347 N 
ATOM      5  N   UNL     1      24.057   1.323  22.896  0.00  0.00    -0.239 NA
ATOM     15  C   UNL     1      23.516   2.508  22.717  0.00  0.00    +0.121 A 
ATOM     17  C   UNL     1      24.111   1.861  20.695  0.00  0.00    +0.104 A 
ATOM     19  C   UNL     1      24.430   0.915  21.640  0.00  0.00    +0.130 A 
ATOM     29  H   UNL     1      23.166   3.740  21.016  0.00  0.00    +0.167 HD
ENDBRANCH  13  15
ENDBRANCH   2  13
ENDBRANCH  14   9
TORSDOF 5
ENDMDL
MODEL 6
REMARK VINA RESULT:      -6.6      2.367     10.222
REMARK  Name = 51136967
REMARK  5 active torsions:
REMARK  status: ('A' for Active; 'I' for Inactive)
REMARK    1  A    between atoms: N_2  and  C_13
REMARK    2  A    between atoms: C_9  and  C_14
REMARK    3  A    between atoms: C_13  and  C_15
REMARK    4  A    between atoms: C_16  and  C_18
REMARK    5  A    between atoms: C_23  and  C_24
REMARK                            x       y       z     vdW  Elec       q    Type
REMARK                         _______ _______ _______ _____ _____    ______ ____
ROOT
ATOM      1  O   UNL     1      20.854   5.495  20.443  0.00  0.00    -0.336 OA
ATOM      3  N   UNL     1      19.800   7.377  21.047  0.00  0.00    -0.190 NA
ATOM      6  N   UNL     1      19.496   5.287  20.167  0.00  0.00    -0.056 NA
ATOM     14  C   UNL     1      20.945   6.749  20.958  0.00  0.00    +0.245 A 
ATOM     16  C   UNL     1      18.941   6.440  20.550  0.00  0.00    +0.204 A 
ENDROOT
BRANCH  16  18
ATOM      7  N   UNL     1      15.523   7.612  21.427  0.00  0.00    -0.254 NA
ATOM     18  C   UNL     1      17.532   6.688  20.451  0.00  0.00    +0.041 A 
ATOM     20  C   UNL     1      16.807   6.271  19.339  0.00  0.00    +0.015 A 
ATOM     21  C   UNL     1      16.848   7.348  21.458  0.00  0.00    +0.123 A 
ATOM     22  C   UNL     1      15.442   6.525  19.270  0.00  0.00    +0.029 A 
ATOM     23  C   UNL     1      14.853   7.193  20.331  0.00  0.00    +0.071 A 
BRANCH  23  24
ATOM      8  N   UNL     1      10.706   8.071  20.319  0.00  0.00    -0.263 NA
ATOM     24  C   UNL     1      13.440   7.492  20.328  0.00  0.00    +0.003 A 
ATOM     25  C   UNL     1      12.619   7.000  21.336  0.00  0.00    +0.030 A 
ATOM     26  C   UNL     1      12.895   8.274  19.315  0.00  0.00    +0.030 A 
ATOM     27  C   UNL     1      11.271   7.315  21.287  0.00  0.00    +0.111 A 
ATOM     28  C   UNL     1      11.535   8.532  19.356  0.00  0.00    +0.111 A 
ENDBRANCH  23  24
ENDBRANCH  16  18
BRANCH  14   9
ATOM      2  N   UNL     1      23.362   6.182  21.145  0.00  0.00    -0.284 NA
ATOM      9  C   UNL     1      22.332   7.221  21.342  0.00  0.00    +0.146 C 
ATOM     10  C   UNL     1      22.810   8.412  20.492  0.00  0.00    +0.030 C 
ATOM     11  C   UNL     1      24.144   7.973  19.906  0.00  0.00    +0.017 C 
ATOM     12  C   UNL     1      24.611   6.887  20.855  0.00  0.00    +0.085 C 
BRANCH   2  13
ATOM     13  C   UNL     1      23.493   5.280  22.282  0.00  0.00    +0.159 C 
BRANCH  13  15
ATOM      4  N   UNL     1      23.092   3.260  20.854  0.00  0.00    -0.347 N 
ATOM      5  N   UNL     1      24.741   3.087  22.332  0.00  0.00    -0.239 NA
ATOM     15  C   UNL     1      23.804   3.872  21.848  0.00  0.00    +0.121 A 
ATOM     17  C   UNL     1      23.607   2.005  20.694  0.00  0.00    +0.104 A 
ATOM     19  C   UNL     1      24.623   1.921  21.617  0.00  0.00    +0.130 A 
ATOM     29  H   UNL     1      22.323   3.661  20.333  0.00  0.00    +0.167 HD
ENDBRANCH  13  15
ENDBRANCH   2  13
ENDBRANCH  14   9
TORSDOF 5
ENDMDL
MODEL 7
REMARK VINA RESULT:      -6.6      2.840     10.828
REMARK  Name = 51136967
REMARK  5 active torsions:
REMARK  status: ('A' for Active; 'I' for Inactive)
REMARK    1  A    between atoms: N_2  and  C_13
REMARK    2  A    between atoms: C_9  and  C_14
REMARK    3  A    between atoms: C_13  and  C_15
REMARK    4  A    between atoms: C_16  and  C_18
REMARK    5  A    between atoms: C_23  and  C_24
REMARK                            x       y       z     vdW  Elec       q    Type
REMARK                         _______ _______ _______ _____ _____    ______ ____
ROOT
ATOM      1  O   UNL     1      22.056   6.032  21.342  0.00  0.00    -0.336 OA
ATOM      3  N   UNL     1      20.419   4.568  20.901  0.00  0.00    -0.190 NA
ATOM      6  N   UNL     1      20.918   6.796  21.050  0.00  0.00    -0.056 NA
ATOM     14  C   UNL     1      21.675   4.733  21.231  0.00  0.00    +0.245 A 
ATOM     16  C   UNL     1      19.996   5.862  20.800  0.00  0.00    +0.204 A 
ENDROOT
BRANCH  16  18
ATOM      7  N   UNL     1      16.763   5.867  18.964  0.00  0.00    -0.254 NA
ATOM     18  C   UNL     1      18.645   6.187  20.447  0.00  0.00    +0.041 A 
ATOM     20  C   UNL     1      17.908   7.099  21.196  0.00  0.00    +0.015 A 
ATOM     21  C   UNL     1      18.031   5.604  19.351  0.00  0.00    +0.123 A 
ATOM     22  C   UNL     1      16.600   7.396  20.830  0.00  0.00    +0.029 A 
ATOM     23  C   UNL     1      16.078   6.758  19.716  0.00  0.00    +0.071 A 
BRANCH  23  24
ATOM      8  N   UNL     1      12.112   7.517  18.429  0.00  0.00    -0.263 NA
ATOM     24  C   UNL     1      14.727   7.016  19.278  0.00  0.00    +0.003 A 
ATOM     25  C   UNL     1      13.675   6.953  20.184  0.00  0.00    +0.030 A 
ATOM     26  C   UNL     1      14.473   7.330  17.947  0.00  0.00    +0.030 A 
ATOM     27  C   UNL     1      12.397   7.210  19.714  0.00  0.00    +0.111 A 
ATOM     28  C   UNL     1      13.160   7.570  17.577  0.00  0.00    +0.111 A 
ENDBRANCH  23  24
ENDBRANCH  16  18
BRANCH  14   9
ATOM      2  N   UNL     1      24.090   4.142  21.108  0.00  0.00    -0.284 NA
ATOM      9  C   UNL     1      22.741   3.692  21.503  0.00  0.00    +0.146 C 
ATOM     10  C   UNL     1      22.866   3.346  22.998  0.00  0.00    +0.030 C 
ATOM     11  C   UNL     1      24.331   3.575  23.339  0.00  0.00    +0.017 C 
ATOM     12  C   UNL     1      25.031   3.462  21.999  0.00  0.00    +0.085 C 
BRANCH   2  13
ATOM     13  C   UNL     1      24.389   3.896  19.704  0.00  0.00    +0.159 C 
BRANCH  13  15
ATOM      4  N   UNL     1      26.076   5.721  19.370  0.00  0.00    -0.347 N 
ATOM      5  N   UNL     1      26.782   3.660  18.934  0.00  0.00    -0.239 NA
ATOM     15  C   UNL     1      25.762   4.390  19.328  0.00  0.00    +0.121 A 
ATOM     17  C   UNL     1      27.378   5.847  18.977  0.00  0.00    +0.104 A 
ATOM     19  C   UNL     1      27.793   4.562  18.714  0.00  0.00    +0.130 A 
ATOM     29  H   UNL     1      25.457   6.474  19.639  0.00  0.00    +0.167 HD
ENDBRANCH  13  15
ENDBRANCH   2  13
ENDBRANCH  14   9
TORSDOF 5
ENDMDL
MODEL 8
REMARK VINA RESULT:      -6.5     26.375     30.553
REMARK  Name = 51136967
REMARK  5 active torsions:
REMARK  status: ('A' for Active; 'I' for Inactive)
REMARK    1  A    between atoms: N_2  and  C_13
REMARK    2  A    between atoms: C_9  and  C_14
REMARK    3  A    between atoms: C_13  and  C_15
REMARK    4  A    between atoms: C_16  and  C_18
REMARK    5  A    between atoms: C_23  and  C_24
REMARK                            x       y       z     vdW  Elec       q    Type
REMARK                         _______ _______ _______ _____ _____    ______ ____
ROOT
ATOM      1  O   UNL     1      -4.640 -10.845  17.449  0.00  0.00    -0.336 OA
ATOM      3  N   UNL     1      -5.627 -10.147  15.563  0.00  0.00    -0.190 NA
ATOM      6  N   UNL     1      -5.909 -10.383  17.821  0.00  0.00    -0.056 NA
ATOM     14  C   UNL     1      -4.555 -10.670  16.104  0.00  0.00    +0.245 A 
ATOM     16  C   UNL     1      -6.429  -9.988  16.655  0.00  0.00    +0.204 A 
ENDROOT
BRANCH  16  18
ATOM      7  N   UNL     1      -9.696  -8.984  15.190  0.00  0.00    -0.254 NA
ATOM     18  C   UNL     1      -7.746  -9.430  16.547  0.00  0.00    +0.041 A 
ATOM     20  C   UNL     1      -8.353  -8.810  17.635  0.00  0.00    +0.015 A 
ATOM     21  C   UNL     1      -8.454  -9.490  15.358  0.00  0.00    +0.123 A 
ATOM     22  C   UNL     1      -9.630  -8.277  17.501  0.00  0.00    +0.029 A 
ATOM     23  C   UNL     1     -10.253  -8.389  16.268  0.00  0.00    +0.071 A 
BRANCH  23  24
ATOM      8  N   UNL     1     -14.147  -6.835  15.648  0.00  0.00    -0.263 NA
ATOM     24  C   UNL     1     -11.580  -7.861  16.057  0.00  0.00    +0.003 A 
ATOM     25  C   UNL     1     -12.694  -8.583  16.469  0.00  0.00    +0.030 A 
ATOM     26  C   UNL     1     -11.748  -6.625  15.440  0.00  0.00    +0.030 A 
ATOM     27  C   UNL     1     -13.945  -8.031  16.243  0.00  0.00    +0.111 A 
ATOM     28  C   UNL     1     -13.041  -6.161  15.261  0.00  0.00    +0.111 A 
ENDBRANCH  23  24
ENDBRANCH  16  18
BRANCH  14   9
ATOM      2  N   UNL     1      -3.028 -10.428  14.154  0.00  0.00    -0.284 NA
ATOM      9  C   UNL     1      -3.260 -11.101  15.448  0.00  0.00    +0.146 C 
ATOM     10  C   UNL     1      -2.022 -10.757  16.295  0.00  0.00    +0.030 C 
ATOM     11  C   UNL     1      -1.123  -9.943  15.376  0.00  0.00    +0.017 C 
ATOM     12  C   UNL     1      -1.576 -10.344  13.987  0.00  0.00    +0.085 C 
BRANCH   2  13
ATOM     13  C   UNL     1      -3.671 -11.101  13.033  0.00  0.00    +0.159 C 
BRANCH  13  15
ATOM      4  N   UNL     1      -5.678  -9.706  12.476  0.00  0.00    -0.347 N 
ATOM      5  N   UNL     1      -3.996  -9.602  11.028  0.00  0.00    -0.239 NA
ATOM     15  C   UNL     1      -4.419 -10.134  12.154  0.00  0.00    +0.121 A 
ATOM     17  C   UNL     1      -6.082  -8.847  11.493  0.00  0.00    +0.104 A 
ATOM     19  C   UNL     1      -5.028  -8.799  10.612  0.00  0.00    +0.130 A 
ATOM     29  H   UNL     1      -6.213  -9.977  13.291  0.00  0.00    +0.167 HD
ENDBRANCH  13  15
ENDBRANCH   2  13
ENDBRANCH  14   9
TORSDOF 5
ENDMDL
MODEL 9
REMARK VINA RESULT:      -6.5      1.653      3.322
REMARK  Name = 51136967
REMARK  5 active torsions:
REMARK  status: ('A' for Active; 'I' for Inactive)
REMARK    1  A    between atoms: N_2  and  C_13
REMARK    2  A    between atoms: C_9  and  C_14
REMARK    3  A    between atoms: C_13  and  C_15
REMARK    4  A    between atoms: C_16  and  C_18
REMARK    5  A    between atoms: C_23  and  C_24
REMARK                            x       y       z     vdW  Elec       q    Type
REMARK                         _______ _______ _______ _____ _____    ______ ____
ROOT
ATOM      1  O   UNL     1      14.503   9.826  22.125  0.00  0.00    -0.336 OA
ATOM      3  N   UNL     1      15.129   8.182  20.738  0.00  0.00    -0.190 NA
ATOM      6  N   UNL     1      15.881   9.656  22.318  0.00  0.00    -0.056 NA
ATOM     14  C   UNL     1      14.142   8.920  21.180  0.00  0.00    +0.245 A 
ATOM     16  C   UNL     1      16.175   8.670  21.466  0.00  0.00    +0.204 A 
ENDROOT
BRANCH  16  18
ATOM      7  N   UNL     1      18.943   6.304  20.714  0.00  0.00    -0.254 NA
ATOM     18  C   UNL     1      17.503   8.149  21.319  0.00  0.00    +0.041 A 
ATOM     20  C   UNL     1      18.616   8.928  21.619  0.00  0.00    +0.015 A 
ATOM     21  C   UNL     1      17.719   6.855  20.874  0.00  0.00    +0.123 A 
ATOM     22  C   UNL     1      19.891   8.396  21.467  0.00  0.00    +0.029 A 
ATOM     23  C   UNL     1      20.000   7.090  21.015  0.00  0.00    +0.071 A 
BRANCH  23  24
ATOM      8  N   UNL     1      23.795   5.281  20.476  0.00  0.00    -0.263 NA
ATOM     24  C   UNL     1      21.293   6.473  20.832  0.00  0.00    +0.003 A 
ATOM     25  C   UNL     1      21.415   5.089  20.852  0.00  0.00    +0.030 A 
ATOM     26  C   UNL     1      22.420   7.263  20.634  0.00  0.00    +0.030 A 
ATOM     27  C   UNL     1      22.678   4.547  20.671  0.00  0.00    +0.111 A 
ATOM     28  C   UNL     1      23.637   6.624  20.462  0.00  0.00    +0.111 A 
ENDBRANCH  23  24
ENDBRANCH  16  18
BRANCH  14   9
ATOM      2  N   UNL     1      12.087   7.551  20.860  0.00  0.00    -0.284 NA
ATOM      9  C   UNL     1      12.679   8.902  20.786  0.00  0.00    +0.146 C 
ATOM     10  C   UNL     1      11.804   9.764  21.714  0.00  0.00    +0.030 C 
ATOM     11  C   UNL     1      10.712   8.829  22.213  0.00  0.00    +0.017 C 
ATOM     12  C   UNL     1      10.667   7.739  21.162  0.00  0.00    +0.085 C 
BRANCH   2  13
ATOM     13  C   UNL     1      12.291   6.769  19.648  0.00  0.00    +0.159 C 
BRANCH  13  15
ATOM      4  N   UNL     1      13.575   7.886  17.808  0.00  0.00    -0.347 N 
ATOM      5  N   UNL     1      11.384   8.252  17.818  0.00  0.00    -0.239 NA
ATOM     15  C   UNL     1      12.379   7.642  18.425  0.00  0.00    +0.121 A 
ATOM     17  C   UNL     1      13.327   8.704  16.742  0.00  0.00    +0.104 A 
ATOM     19  C   UNL     1      11.969   8.915  16.768  0.00  0.00    +0.130 A 
ATOM     29  H   UNL     1      14.479   7.530  18.091  0.00  0.00    +0.167 HD
ENDBRANCH  13  15
ENDBRANCH   2  13
ENDBRANCH  14   9
TORSDOF 5
ENDMDL
MODEL 10
REMARK VINA RESULT:      -6.5      2.435      9.566
REMARK  Name = 51136967
REMARK  5 active torsions:
REMARK  status: ('A' for Active; 'I' for Inactive)
REMARK    1  A    between atoms: N_2  and  C_13
REMARK    2  A    between atoms: C_9  and  C_14
REMARK    3  A    between atoms: C_13  and  C_15
REMARK    4  A    between atoms: C_16  and  C_18
REMARK    5  A    between atoms: C_23  and  C_24
REMARK                            x       y       z     vdW  Elec       q    Type
REMARK                         _______ _______ _______ _____ _____    ______ ____
ROOT
ATOM      1  O   UNL     1      20.470   6.403  21.969  0.00  0.00    -0.336 OA
ATOM      3  N   UNL     1      19.341   5.652  20.185  0.00  0.00    -0.190 NA
ATOM      6  N   UNL     1      19.223   7.043  21.998  0.00  0.00    -0.056 NA
ATOM     14  C   UNL     1      20.456   5.604  20.871  0.00  0.00    +0.245 A 
ATOM     16  C   UNL     1      18.616   6.549  20.916  0.00  0.00    +0.204 A 
ENDROOT
BRANCH  16  18
ATOM      7  N   UNL     1      15.371   6.590  19.101  0.00  0.00    -0.254 NA
ATOM     18  C   UNL     1      17.287   6.929  20.536  0.00  0.00    +0.041 A 
ATOM     20  C   UNL     1      16.624   7.964  21.188  0.00  0.00    +0.015 A 
ATOM     21  C   UNL     1      16.622   6.280  19.509  0.00  0.00    +0.123 A 
ATOM     22  C   UNL     1      15.336   8.312  20.798  0.00  0.00    +0.029 A 
ATOM     23  C   UNL     1      14.758   7.600  19.758  0.00  0.00    +0.071 A 
BRANCH  23  24
ATOM      8  N   UNL     1      10.841   8.498  18.413  0.00  0.00    -0.263 NA
ATOM     24  C   UNL     1      13.423   7.906  19.300  0.00  0.00    +0.003 A 
ATOM     25  C   UNL     1      12.414   8.172  20.218  0.00  0.00    +0.030 A 
ATOM     26  C   UNL     1      13.143   7.935  17.938  0.00  0.00    +0.030 A 
ATOM     27  C   UNL     1      11.151   8.461  19.727  0.00  0.00    +0.111 A 
ATOM     28  C   UNL     1      11.847   8.234  17.550  0.00  0.00    +0.111 A 
ENDBRANCH  23  24
ENDBRANCH  16  18
BRANCH  14   9
ATOM      2  N   UNL     1      22.889   5.326  21.318  0.00  0.00    -0.284 NA
ATOM      9  C   UNL     1      21.708   4.791  20.611  0.00  0.00    +0.146 C 
ATOM     10  C   UNL     1      21.584   3.337  21.101  0.00  0.00    +0.030 C 
ATOM     11  C   UNL     1      22.772   3.127  22.029  0.00  0.00    +0.017 C 
ATOM     12  C   UNL     1      23.763   4.183  21.585  0.00  0.00    +0.085 C 
BRANCH   2  13
ATOM     13  C   UNL     1      23.573   6.379  20.578  0.00  0.00    +0.159 C 
BRANCH  13  15
ATOM      4  N   UNL     1      22.507   8.571  21.161  0.00  0.00    -0.347 N 
ATOM      5  N   UNL     1      24.448   8.146  22.153  0.00  0.00    -0.239 NA
ATOM     15  C   UNL     1      23.543   7.692  21.315  0.00  0.00    +0.121 A 
ATOM     17  C   UNL     1      22.769   9.655  21.951  0.00  0.00    +0.104 A 
ATOM     19  C   UNL     1      23.971   9.369  22.553  0.00  0.00    +0.130 A 
ATOM     29  H   UNL     1      21.696   8.445  20.569  0.00  0.00    +0.167 HD
ENDBRANCH  13  15
ENDBRANCH   2  13
ENDBRANCH  14   9
TORSDOF 5
ENDMDL
