MODEL 1
REMARK VINA RESULT:      -8.0      0.000      0.000
REMARK  Name = 7134533
REMARK  11 active torsions:
REMARK  status: ('A' for Active; 'I' for Inactive)
REMARK    1  A    between atoms: O_1  and  C_12
REMARK    2  A    between atoms: O_2  and  C_15
REMARK    3  A    between atoms: O_3  and  C_17
REMARK    4  A    between atoms: O_7  and  C_34
REMARK    5  A    between atoms: N_8  and  C_13
REMARK    6  A    between atoms: N_9  and  C_19
REMARK    7  A    between atoms: N_10  and  C_26
REMARK    8  A    between atoms: C_12  and  C_18
REMARK    9  A    between atoms: C_26  and  C_27
REMARK   10  A    between atoms: C_26  and  C_28
REMARK   11  A    between atoms: C_27  and  C_29
REMARK                            x       y       z     vdW  Elec       q    Type
REMARK                         _______ _______ _______ _____ _____    ______ ____
ROOT
ATOM     12  C   UNL     1      13.413   7.988  20.000  0.00  0.00    +0.146 C 
ATOM     13  C   UNL     1      11.466   8.929  21.335  0.00  0.00    +0.109 C 
ATOM     14  C   UNL     1      12.941   9.087  20.953  0.00  0.00    +0.069 C 
ATOM     15  C   UNL     1      11.166   7.529  21.886  0.00  0.00    +0.163 C 
ATOM     16  C   UNL     1      13.127   6.600  20.569  0.00  0.00    +0.078 C 
ATOM     17  C   UNL     1      11.654   6.424  20.946  0.00  0.00    +0.148 C 
ENDROOT
BRANCH  13   8
ATOM      5  O   UNL     1      11.688  11.776  21.001  0.00  0.00    -0.253 OA
ATOM      8  N   UNL     1      11.098   9.945  22.298  0.00  0.00    -0.294 N 
ATOM      9  N   UNL     1      10.815  12.064  23.133  0.00  0.00    -0.297 N 
ATOM     25  C   UNL     1      11.242  11.305  22.046  0.00  0.00    +0.300 C 
ATOM     35  H   UNL     1      10.791   9.653  23.220  0.00  0.00    +0.151 HD
ATOM     39  H   UNL     1      10.532  11.572  23.974  0.00  0.00    +0.151 HD
BRANCH   9  19
ATOM     19  C   UNL     1      10.850  13.509  23.151  0.00  0.00    +0.074 C 
ATOM     20  C   UNL     1       9.928  14.069  24.240  0.00  0.00    +0.022 C 
ATOM     21  C   UNL     1      12.284  14.024  23.319  0.00  0.00    +0.022 C 
ATOM     22  C   UNL     1      10.477  13.835  25.648  0.00  0.00    +0.002 C 
ATOM     23  C   UNL     1      12.828  13.789  24.727  0.00  0.00    +0.002 C 
ATOM     24  C   UNL     1      11.900  14.364  25.793  0.00  0.00    +0.000 C 
ENDBRANCH   9  19
ENDBRANCH  13   8
BRANCH  12  18
ATOM      4  O   UNL     1      15.332   9.144  19.174  0.00  0.00    -0.273 OA
ATOM     10  N   UNL     1      15.602   7.016  20.080  0.00  0.00    -0.301 N 
ATOM     18  C   UNL     1      14.876   8.135  19.706  0.00  0.00    +0.246 C 
ATOM     40  H   UNL     1      15.119   6.195  20.429  0.00  0.00    +0.150 HD
BRANCH  10  26
ATOM     26  C   UNL     1      17.028   6.898  19.884  0.00  0.00    +0.163 C 
BRANCH  26  28
ATOM      6  O   UNL     1      16.485   5.566  17.925  0.00  0.00    -0.274 OA
ATOM     11  N   UNL     1      18.426   5.104  19.063  0.00  0.00    -0.328 N 
ATOM     28  C   UNL     1      17.249   5.793  18.860  0.00  0.00    +0.231 C 
ATOM     41  H   UNL     1      18.702   4.352  18.441  0.00  0.00    +0.145 HD
ATOM     42  H   UNL     1      19.049   5.305  19.838  0.00  0.00    +0.145 HD
ENDBRANCH  26  28
BRANCH  26  27
ATOM     27  C   UNL     1      17.770   6.576  21.188  0.00  0.00    +0.067 C 
BRANCH  27  29
ATOM     29  C   UNL     1      18.574   7.732  21.708  0.00  0.00    -0.045 A 
ATOM     30  C   UNL     1      19.790   7.495  22.338  0.00  0.00    +0.007 A 
ATOM     31  C   UNL     1      18.094   9.027  21.555  0.00  0.00    +0.007 A 
ATOM     32  C   UNL     1      20.537   8.568  22.822  0.00  0.00    +0.045 A 
ATOM     33  C   UNL     1      18.841  10.101  22.039  0.00  0.00    +0.045 A 
ATOM     34  C   UNL     1      20.063   9.872  22.672  0.00  0.00    +0.117 A 
BRANCH  34   7
ATOM      7  O   UNL     1      20.793  10.919  23.144  0.00  0.00    -0.507 OA
ATOM     43  H   UNL     1      21.094  11.457  22.391  0.00  0.00    +0.292 HD
ENDBRANCH  34   7
ENDBRANCH  27  29
ENDBRANCH  26  27
ENDBRANCH  10  26
ENDBRANCH  12  18
BRANCH  12   1
ATOM      1  O   UNL     1      12.769   8.115  18.737  0.00  0.00    -0.379 OA
ATOM     36  H   UNL     1      11.878   7.731  18.809  0.00  0.00    +0.211 HD
ENDBRANCH  12   1
BRANCH  15   2
ATOM      2  O   UNL     1       9.751   7.378  22.033  0.00  0.00    -0.387 OA
ATOM     37  H   UNL     1       9.588   6.522  22.465  0.00  0.00    +0.210 HD
ENDBRANCH  15   2
BRANCH  17   3
ATOM      3  O   UNL     1      11.493   5.167  21.602  0.00  0.00    -0.389 OA
ATOM     38  H   UNL     1      10.590   4.853  21.423  0.00  0.00    +0.210 HD
ENDBRANCH  17   3
TORSDOF 11
ENDMDL
MODEL 2
REMARK VINA RESULT:      -7.7      3.257      9.222
REMARK  Name = 7134533
REMARK  11 active torsions:
REMARK  status: ('A' for Active; 'I' for Inactive)
REMARK    1  A    between atoms: O_1  and  C_12
REMARK    2  A    between atoms: O_2  and  C_15
REMARK    3  A    between atoms: O_3  and  C_17
REMARK    4  A    between atoms: O_7  and  C_34
REMARK    5  A    between atoms: N_8  and  C_13
REMARK    6  A    between atoms: N_9  and  C_19
REMARK    7  A    between atoms: N_10  and  C_26
REMARK    8  A    between atoms: C_12  and  C_18
REMARK    9  A    between atoms: C_26  and  C_27
REMARK   10  A    between atoms: C_26  and  C_28
REMARK   11  A    between atoms: C_27  and  C_29
REMARK                            x       y       z     vdW  Elec       q    Type
REMARK                         _______ _______ _______ _____ _____    ______ ____
ROOT
ATOM     12  C   UNL     1      16.070   7.274  21.372  0.00  0.00    +0.146 C 
ATOM     13  C   UNL     1      18.538   6.726  21.114  0.00  0.00    +0.109 C 
ATOM     14  C   UNL     1      17.506   7.769  21.556  0.00  0.00    +0.069 C 
ATOM     15  C   UNL     1      18.281   6.239  19.682  0.00  0.00    +0.163 C 
ATOM     16  C   UNL     1      15.822   6.812  19.938  0.00  0.00    +0.078 C 
ATOM     17  C   UNL     1      16.840   5.762  19.487  0.00  0.00    +0.148 C 
ENDROOT
BRANCH  13   8
ATOM      5  O   UNL     1      20.653   5.755  22.802  0.00  0.00    -0.253 OA
ATOM      8  N   UNL     1      19.872   7.275  21.233  0.00  0.00    -0.294 N 
ATOM      9  N   UNL     1      22.025   7.450  22.006  0.00  0.00    -0.297 N 
ATOM     25  C   UNL     1      20.833   6.735  22.081  0.00  0.00    +0.300 C 
ATOM     35  H   UNL     1      20.091   8.132  20.735  0.00  0.00    +0.151 HD
ATOM     39  H   UNL     1      22.043   8.287  21.433  0.00  0.00    +0.151 HD
BRANCH   9  19
ATOM     19  C   UNL     1      23.200   7.112  22.780  0.00  0.00    +0.074 C 
ATOM     20  C   UNL     1      24.020   6.019  22.087  0.00  0.00    +0.022 C 
ATOM     21  C   UNL     1      24.054   8.355  23.058  0.00  0.00    +0.022 C 
ATOM     22  C   UNL     1      24.740   6.530  20.839  0.00  0.00    +0.002 C 
ATOM     23  C   UNL     1      24.772   8.862  21.808  0.00  0.00    +0.002 C 
ATOM     24  C   UNL     1      25.590   7.759  21.143  0.00  0.00    +0.000 C 
ENDBRANCH   9  19
ENDBRANCH  13   8
BRANCH  12  18
ATOM      4  O   UNL     1      15.451   9.404  22.258  0.00  0.00    -0.273 OA
ATOM     10  N   UNL     1      13.784   7.985  21.468  0.00  0.00    -0.301 N 
ATOM     18  C   UNL     1      15.090   8.347  21.747  0.00  0.00    +0.246 C 
ATOM     40  H   UNL     1      13.581   7.050  21.129  0.00  0.00    +0.150 HD
BRANCH  10  26
ATOM     26  C   UNL     1      12.650   8.833  21.756  0.00  0.00    +0.163 C 
BRANCH  26  28
ATOM      6  O   UNL     1      11.450   6.725  21.601  0.00  0.00    -0.274 OA
ATOM     11  N   UNL     1      10.257   8.639  22.038  0.00  0.00    -0.328 N 
ATOM     28  C   UNL     1      11.415   7.942  21.768  0.00  0.00    +0.231 C 
ATOM     41  H   UNL     1       9.364   8.162  22.091  0.00  0.00    +0.145 HD
ATOM     42  H   UNL     1      10.244   9.644  22.177  0.00  0.00    +0.145 HD
ENDBRANCH  26  28
BRANCH  26  27
ATOM     27  C   UNL     1      12.490   9.958  20.725  0.00  0.00    +0.067 C 
BRANCH  27  29
ATOM     29  C   UNL     1      12.805   9.521  19.323  0.00  0.00    -0.045 A 
ATOM     30  C   UNL     1      13.993   9.927  18.728  0.00  0.00    +0.007 A 
ATOM     31  C   UNL     1      11.904   8.715  18.636  0.00  0.00    +0.007 A 
ATOM     32  C   UNL     1      14.286   9.521  17.426  0.00  0.00    +0.045 A 
ATOM     33  C   UNL     1      12.197   8.310  17.334  0.00  0.00    +0.045 A 
ATOM     34  C   UNL     1      13.387   8.713  16.728  0.00  0.00    +0.117 A 
BRANCH  34   7
ATOM      7  O   UNL     1      13.674   8.317  15.458  0.00  0.00    -0.507 OA
ATOM     43  H   UNL     1      14.455   8.805  15.145  0.00  0.00    +0.292 HD
ENDBRANCH  34   7
ENDBRANCH  27  29
ENDBRANCH  26  27
ENDBRANCH  10  26
ENDBRANCH  12  18
BRANCH  12   1
ATOM      1  O   UNL     1      15.797   6.199  22.262  0.00  0.00    -0.379 OA
ATOM     36  H   UNL     1      16.237   5.401  21.921  0.00  0.00    +0.211 HD
ENDBRANCH  12   1
BRANCH  15   2
ATOM      2  O   UNL     1      19.143   5.133  19.403  0.00  0.00    -0.387 OA
ATOM     37  H   UNL     1      19.048   4.914  18.461  0.00  0.00    +0.210 HD
ENDBRANCH  15   2
BRANCH  17   3
ATOM      3  O   UNL     1      16.636   5.490  18.100  0.00  0.00    -0.389 OA
ATOM     38  H   UNL     1      17.233   4.762  17.852  0.00  0.00    +0.210 HD
ENDBRANCH  17   3
TORSDOF 11
ENDMDL
MODEL 3
REMARK VINA RESULT:      -7.6      3.829      8.837
REMARK  Name = 7134533
REMARK  11 active torsions:
REMARK  status: ('A' for Active; 'I' for Inactive)
REMARK    1  A    between atoms: O_1  and  C_12
REMARK    2  A    between atoms: O_2  and  C_15
REMARK    3  A    between atoms: O_3  and  C_17
REMARK    4  A    between atoms: O_7  and  C_34
REMARK    5  A    between atoms: N_8  and  C_13
REMARK    6  A    between atoms: N_9  and  C_19
REMARK    7  A    between atoms: N_10  and  C_26
REMARK    8  A    between atoms: C_12  and  C_18
REMARK    9  A    between atoms: C_26  and  C_27
REMARK   10  A    between atoms: C_26  and  C_28
REMARK   11  A    between atoms: C_27  and  C_29
REMARK                            x       y       z     vdW  Elec       q    Type
REMARK                         _______ _______ _______ _____ _____    ______ ____
ROOT
ATOM     12  C   UNL     1      16.040   7.080  20.997  0.00  0.00    +0.146 C 
ATOM     13  C   UNL     1      18.545   6.928  21.392  0.00  0.00    +0.109 C 
ATOM     14  C   UNL     1      17.293   7.804  21.492  0.00  0.00    +0.069 C 
ATOM     15  C   UNL     1      18.735   6.362  19.979  0.00  0.00    +0.163 C 
ATOM     16  C   UNL     1      16.235   6.540  19.582  0.00  0.00    +0.078 C 
ATOM     17  C   UNL     1      17.478   5.654  19.470  0.00  0.00    +0.148 C 
ENDROOT
BRANCH  13   8
ATOM      5  O   UNL     1      20.730   5.997  23.013  0.00  0.00    -0.253 OA
ATOM      8  N   UNL     1      19.708   7.688  21.796  0.00  0.00    -0.294 N 
ATOM      9  N   UNL     1      21.719   8.089  22.829  0.00  0.00    -0.297 N 
ATOM     25  C   UNL     1      20.720   7.150  22.586  0.00  0.00    +0.300 C 
ATOM     35  H   UNL     1      19.753   8.673  21.557  0.00  0.00    +0.151 HD
ATOM     39  H   UNL     1      21.575   9.035  22.489  0.00  0.00    +0.151 HD
BRANCH   9  19
ATOM     19  C   UNL     1      22.894   7.806  23.622  0.00  0.00    +0.074 C 
ATOM     20  C   UNL     1      23.969   7.105  22.784  0.00  0.00    +0.022 C 
ATOM     21  C   UNL     1      23.442   9.082  24.272  0.00  0.00    +0.022 C 
ATOM     22  C   UNL     1      24.627   8.045  21.773  0.00  0.00    +0.002 C 
ATOM     23  C   UNL     1      24.100  10.017  23.259  0.00  0.00    +0.002 C 
ATOM     24  C   UNL     1      25.173   9.301  22.445  0.00  0.00    +0.000 C 
ENDBRANCH   9  19
ENDBRANCH  13   8
BRANCH  12  18
ATOM      4  O   UNL     1      14.951   9.174  21.358  0.00  0.00    -0.273 OA
ATOM     10  N   UNL     1      13.674   7.337  20.717  0.00  0.00    -0.301 N 
ATOM     18  C   UNL     1      14.849   7.992  21.042  0.00  0.00    +0.246 C 
ATOM     40  H   UNL     1      13.681   6.335  20.559  0.00  0.00    +0.150 HD
BRANCH  10  26
ATOM     26  C   UNL     1      12.384   7.988  20.709  0.00  0.00    +0.163 C 
BRANCH  26  28
ATOM      6  O   UNL     1      10.511   7.611  22.211  0.00  0.00    -0.274 OA
ATOM     11  N   UNL     1      11.752   5.803  21.529  0.00  0.00    -0.328 N 
ATOM     28  C   UNL     1      11.454   7.148  21.574  0.00  0.00    +0.231 C 
ATOM     41  H   UNL     1      11.198   5.130  22.049  0.00  0.00    +0.145 HD
ATOM     42  H   UNL     1      12.532   5.434  20.995  0.00  0.00    +0.145 HD
ENDBRANCH  26  28
BRANCH  26  27
ATOM     27  C   UNL     1      11.813   8.130  19.292  0.00  0.00    +0.067 C 
BRANCH  27  29
ATOM     29  C   UNL     1      12.732   8.866  18.359  0.00  0.00    -0.045 A 
ATOM     30  C   UNL     1      13.279   8.202  17.268  0.00  0.00    +0.007 A 
ATOM     31  C   UNL     1      13.024  10.204  18.596  0.00  0.00    +0.007 A 
ATOM     32  C   UNL     1      14.133   8.885  16.402  0.00  0.00    +0.045 A 
ATOM     33  C   UNL     1      13.877  10.887  17.730  0.00  0.00    +0.045 A 
ATOM     34  C   UNL     1      14.432  10.228  16.633  0.00  0.00    +0.117 A 
BRANCH  34   7
ATOM      7  O   UNL     1      15.264  10.894  15.786  0.00  0.00    -0.507 OA
ATOM     43  H   UNL     1      14.733  11.482  15.221  0.00  0.00    +0.292 HD
ENDBRANCH  34   7
ENDBRANCH  27  29
ENDBRANCH  26  27
ENDBRANCH  10  26
ENDBRANCH  12  18
BRANCH  12   1
ATOM      1  O   UNL     1      15.712   6.002  21.866  0.00  0.00    -0.379 OA
ATOM     36  H   UNL     1      16.385   5.308  21.759  0.00  0.00    +0.211 HD
ENDBRANCH  12   1
BRANCH  15   2
ATOM      2  O   UNL     1      19.794   5.401  19.998  0.00  0.00    -0.387 OA
ATOM     37  H   UNL     1      20.450   5.670  19.334  0.00  0.00    +0.210 HD
ENDBRANCH  15   2
BRANCH  17   3
ATOM      3  O   UNL     1      17.675   5.309  18.098  0.00  0.00    -0.389 OA
ATOM     38  H   UNL     1      17.977   6.108  17.634  0.00  0.00    +0.210 HD
ENDBRANCH  17   3
TORSDOF 11
ENDMDL
MODEL 4
REMARK VINA RESULT:      -7.3     28.177     30.927
REMARK  Name = 7134533
REMARK  11 active torsions:
REMARK  status: ('A' for Active; 'I' for Inactive)
REMARK    1  A    between atoms: O_1  and  C_12
REMARK    2  A    between atoms: O_2  and  C_15
REMARK    3  A    between atoms: O_3  and  C_17
REMARK    4  A    between atoms: O_7  and  C_34
REMARK    5  A    between atoms: N_8  and  C_13
REMARK    6  A    between atoms: N_9  and  C_19
REMARK    7  A    between atoms: N_10  and  C_26
REMARK    8  A    between atoms: C_12  and  C_18
REMARK    9  A    between atoms: C_26  and  C_27
REMARK   10  A    between atoms: C_26  and  C_28
REMARK   11  A    between atoms: C_27  and  C_29
REMARK                            x       y       z     vdW  Elec       q    Type
REMARK                         _______ _______ _______ _____ _____    ______ ____
ROOT
ATOM     12  C   UNL     1      -6.827 -10.956  18.737  0.00  0.00    +0.146 C 
ATOM     13  C   UNL     1      -5.096 -10.319  16.989  0.00  0.00    +0.109 C 
ATOM     14  C   UNL     1      -6.587 -10.409  17.329  0.00  0.00    +0.069 C 
ATOM     15  C   UNL     1      -4.378 -11.657  17.211  0.00  0.00    +0.163 C 
ATOM     16  C   UNL     1      -6.125 -12.297  18.938  0.00  0.00    +0.078 C 
ATOM     17  C   UNL     1      -4.631 -12.219  18.612  0.00  0.00    +0.148 C 
ENDROOT
BRANCH  13   8
ATOM      5  O   UNL     1      -5.665 -11.827  14.609  0.00  0.00    -0.253 OA
ATOM      8  N   UNL     1      -4.930  -9.874  15.622  0.00  0.00    -0.294 N 
ATOM      9  N   UNL     1      -4.985 -10.011  13.332  0.00  0.00    -0.297 N 
ATOM     25  C   UNL     1      -5.234 -10.678  14.528  0.00  0.00    +0.300 C 
ATOM     35  H   UNL     1      -4.507  -8.967  15.454  0.00  0.00    +0.151 HD
ATOM     39  H   UNL     1      -4.560  -9.090  13.380  0.00  0.00    +0.151 HD
BRANCH   9  19
ATOM     19  C   UNL     1      -5.210 -10.607  12.033  0.00  0.00    +0.074 C 
ATOM     20  C   UNL     1      -5.886  -9.613  11.082  0.00  0.00    +0.022 C 
ATOM     21  C   UNL     1      -3.903 -11.144  11.439  0.00  0.00    +0.022 C 
ATOM     22  C   UNL     1      -4.941  -8.498  10.633  0.00  0.00    +0.002 C 
ATOM     23  C   UNL     1      -2.962 -10.026  10.991  0.00  0.00    +0.002 C 
ATOM     24  C   UNL     1      -3.653  -9.058  10.036  0.00  0.00    +0.000 C 
ENDBRANCH   9  19
ENDBRANCH  13   8
BRANCH  12  18
ATOM      4  O   UNL     1      -8.790 -10.779  20.085  0.00  0.00    -0.273 OA
ATOM     10  N   UNL     1      -8.979 -11.629  17.927  0.00  0.00    -0.301 N 
ATOM     18  C   UNL     1      -8.296 -11.096  19.006  0.00  0.00    +0.246 C 
ATOM     40  H   UNL     1      -8.465 -11.944  17.110  0.00  0.00    +0.150 HD
BRANCH  10  26
ATOM     26  C   UNL     1     -10.401 -11.886  17.939  0.00  0.00    +0.163 C 
BRANCH  26  28
ATOM      6  O   UNL     1     -10.478 -14.175  17.127  0.00  0.00    -0.274 OA
ATOM     11  N   UNL     1     -10.830 -13.791  19.364  0.00  0.00    -0.328 N 
ATOM     28  C   UNL     1     -10.583 -13.392  18.068  0.00  0.00    +0.231 C 
ATOM     41  H   UNL     1     -10.955 -14.772  19.591  0.00  0.00    +0.145 HD
ATOM     42  H   UNL     1     -10.910 -13.133  20.132  0.00  0.00    +0.145 HD
ENDBRANCH  26  28
BRANCH  26  27
ATOM     27  C   UNL     1     -11.096 -11.367  16.674  0.00  0.00    +0.067 C 
BRANCH  27  29
ATOM     29  C   UNL     1     -10.776  -9.931  16.373  0.00  0.00    -0.045 A 
ATOM     30  C   UNL     1     -10.201  -9.597  15.153  0.00  0.00    +0.007 A 
ATOM     31  C   UNL     1     -11.060  -8.952  17.317  0.00  0.00    +0.007 A 
ATOM     32  C   UNL     1      -9.903  -8.263  14.874  0.00  0.00    +0.045 A 
ATOM     33  C   UNL     1     -10.763  -7.618  17.038  0.00  0.00    +0.045 A 
ATOM     34  C   UNL     1     -10.184  -7.273  15.816  0.00  0.00    +0.117 A 
BRANCH  34   7
ATOM      7  O   UNL     1      -9.895  -5.972  15.542  0.00  0.00    -0.507 OA
ATOM     43  H   UNL     1     -10.416  -5.689  14.771  0.00  0.00    +0.292 HD
ENDBRANCH  34   7
ENDBRANCH  27  29
ENDBRANCH  26  27
ENDBRANCH  10  26
ENDBRANCH  12  18
BRANCH  12   1
ATOM      1  O   UNL     1      -6.359 -10.034  19.715  0.00  0.00    -0.379 OA
ATOM     36  H   UNL     1      -6.159 -10.528  20.529  0.00  0.00    +0.211 HD
ENDBRANCH  12   1
BRANCH  15   2
ATOM      2  O   UNL     1      -2.968 -11.460  17.074  0.00  0.00    -0.387 OA
ATOM     37  H   UNL     1      -2.633 -11.122  17.921  0.00  0.00    +0.210 HD
ENDBRANCH  15   2
BRANCH  17   3
ATOM      3  O   UNL     1      -4.077 -13.533  18.680  0.00  0.00    -0.389 OA
ATOM     38  H   UNL     1      -3.115 -13.442  18.792  0.00  0.00    +0.210 HD
ENDBRANCH  17   3
TORSDOF 11
ENDMDL
MODEL 5
REMARK VINA RESULT:      -7.2      1.730      2.144
REMARK  Name = 7134533
REMARK  11 active torsions:
REMARK  status: ('A' for Active; 'I' for Inactive)
REMARK    1  A    between atoms: O_1  and  C_12
REMARK    2  A    between atoms: O_2  and  C_15
REMARK    3  A    between atoms: O_3  and  C_17
REMARK    4  A    between atoms: O_7  and  C_34
REMARK    5  A    between atoms: N_8  and  C_13
REMARK    6  A    between atoms: N_9  and  C_19
REMARK    7  A    between atoms: N_10  and  C_26
REMARK    8  A    between atoms: C_12  and  C_18
REMARK    9  A    between atoms: C_26  and  C_27
REMARK   10  A    between atoms: C_26  and  C_28
REMARK   11  A    between atoms: C_27  and  C_29
REMARK                            x       y       z     vdW  Elec       q    Type
REMARK                         _______ _______ _______ _____ _____    ______ ____
ROOT
ATOM     12  C   UNL     1      13.181   7.989  20.013  0.00  0.00    +0.146 C 
ATOM     13  C   UNL     1      11.290   8.930  21.426  0.00  0.00    +0.109 C 
ATOM     14  C   UNL     1      12.750   9.085  20.989  0.00  0.00    +0.069 C 
ATOM     15  C   UNL     1      11.005   7.529  21.981  0.00  0.00    +0.163 C 
ATOM     16  C   UNL     1      12.911   6.600  20.586  0.00  0.00    +0.078 C 
ATOM     17  C   UNL     1      11.453   6.427  21.017  0.00  0.00    +0.148 C 
ENDROOT
BRANCH  13   8
ATOM      5  O   UNL     1      11.556  11.776  21.116  0.00  0.00    -0.253 OA
ATOM      8  N   UNL     1      10.962   9.942  22.407  0.00  0.00    -0.294 N 
ATOM      9  N   UNL     1      10.737  12.057  23.269  0.00  0.00    -0.297 N 
ATOM     25  C   UNL     1      11.125  11.303  22.166  0.00  0.00    +0.300 C 
ATOM     35  H   UNL     1      10.671   9.646  23.333  0.00  0.00    +0.151 HD
ATOM     39  H   UNL     1      10.464  11.562  24.112  0.00  0.00    +0.151 HD
BRANCH   9  19
ATOM     19  C   UNL     1      10.799  13.502  23.301  0.00  0.00    +0.074 C 
ATOM     20  C   UNL     1       9.912  14.067  24.416  0.00  0.00    +0.022 C 
ATOM     21  C   UNL     1      12.246  13.989  23.442  0.00  0.00    +0.022 C 
ATOM     22  C   UNL     1      10.487  13.808  25.809  0.00  0.00    +0.002 C 
ATOM     23  C   UNL     1      12.816  13.729  24.836  0.00  0.00    +0.002 C 
ATOM     24  C   UNL     1      11.923  14.310  25.928  0.00  0.00    +0.000 C 
ENDBRANCH   9  19
ENDBRANCH  13   8
BRANCH  12  18
ATOM      4  O   UNL     1      15.014   8.236  18.502  0.00  0.00    -0.273 OA
ATOM     10  N   UNL     1      15.446   8.108  20.786  0.00  0.00    -0.301 N 
ATOM     18  C   UNL     1      14.633   8.132  19.665  0.00  0.00    +0.246 C 
ATOM     40  H   UNL     1      15.042   7.926  21.699  0.00  0.00    +0.150 HD
BRANCH  10  26
ATOM     26  C   UNL     1      16.886   8.206  20.720  0.00  0.00    +0.163 C 
BRANCH  26  28
ATOM      6  O   UNL     1      18.573   6.461  20.860  0.00  0.00    -0.274 OA
ATOM     11  N   UNL     1      16.573   6.145  21.944  0.00  0.00    -0.328 N 
ATOM     28  C   UNL     1      17.446   6.857  21.150  0.00  0.00    +0.231 C 
ATOM     41  H   UNL     1      16.829   5.235  22.313  0.00  0.00    +0.145 HD
ATOM     42  H   UNL     1      15.646   6.486  22.179  0.00  0.00    +0.145 HD
ENDBRANCH  26  28
BRANCH  26  27
ATOM     27  C   UNL     1      17.435   9.325  21.614  0.00  0.00    +0.067 C 
BRANCH  27  29
ATOM     29  C   UNL     1      17.999  10.478  20.835  0.00  0.00    -0.045 A 
ATOM     30  C   UNL     1      19.373  10.679  20.804  0.00  0.00    +0.007 A 
ATOM     31  C   UNL     1      17.140  11.331  20.153  0.00  0.00    +0.007 A 
ATOM     32  C   UNL     1      19.897  11.750  20.081  0.00  0.00    +0.045 A 
ATOM     33  C   UNL     1      17.664  12.403  19.430  0.00  0.00    +0.045 A 
ATOM     34  C   UNL     1      19.043  12.613  19.394  0.00  0.00    +0.117 A 
BRANCH  34   7
ATOM      7  O   UNL     1      19.555  13.657  18.687  0.00  0.00    -0.507 OA
ATOM     43  H   UNL     1      18.927  13.900  17.985  0.00  0.00    +0.292 HD
ENDBRANCH  34   7
ENDBRANCH  27  29
ENDBRANCH  26  27
ENDBRANCH  10  26
ENDBRANCH  12  18
BRANCH  12   1
ATOM      1  O   UNL     1      12.490   8.125  18.777  0.00  0.00    -0.379 OA
ATOM     36  H   UNL     1      11.535   8.069  18.952  0.00  0.00    +0.211 HD
ENDBRANCH  12   1
BRANCH  15   2
ATOM      2  O   UNL     1       9.597   7.382  22.180  0.00  0.00    -0.387 OA
ATOM     37  H   UNL     1       9.148   8.020  21.600  0.00  0.00    +0.210 HD
ENDBRANCH  15   2
BRANCH  17   3
ATOM      3  O   UNL     1      11.312   5.167  21.673  0.00  0.00    -0.389 OA
ATOM     38  H   UNL     1      12.205   4.818  21.835  0.00  0.00    +0.210 HD
ENDBRANCH  17   3
TORSDOF 11
ENDMDL
MODEL 6
REMARK VINA RESULT:      -7.0     14.658     18.352
REMARK  Name = 7134533
REMARK  11 active torsions:
REMARK  status: ('A' for Active; 'I' for Inactive)
REMARK    1  A    between atoms: O_1  and  C_12
REMARK    2  A    between atoms: O_2  and  C_15
REMARK    3  A    between atoms: O_3  and  C_17
REMARK    4  A    between atoms: O_7  and  C_34
REMARK    5  A    between atoms: N_8  and  C_13
REMARK    6  A    between atoms: N_9  and  C_19
REMARK    7  A    between atoms: N_10  and  C_26
REMARK    8  A    between atoms: C_12  and  C_18
REMARK    9  A    between atoms: C_26  and  C_27
REMARK   10  A    between atoms: C_26  and  C_28
REMARK   11  A    between atoms: C_27  and  C_29
REMARK                            x       y       z     vdW  Elec       q    Type
REMARK                         _______ _______ _______ _____ _____    ______ ____
ROOT
ATOM     12  C   UNL     1      13.579   8.084   5.551  0.00  0.00    +0.146 C 
ATOM     13  C   UNL     1      15.998   8.654   5.020  0.00  0.00    +0.109 C 
ATOM     14  C   UNL     1      14.984   7.538   5.290  0.00  0.00    +0.069 C 
ATOM     15  C   UNL     1      15.993   9.711   6.133  0.00  0.00    +0.163 C 
ATOM     16  C   UNL     1      13.586   9.119   6.674  0.00  0.00    +0.078 C 
ATOM     17  C   UNL     1      14.587  10.246   6.412  0.00  0.00    +0.148 C 
ENDROOT
BRANCH  13   8
ATOM      5  O   UNL     1      17.993   9.454   3.111  0.00  0.00    -0.253 OA
ATOM      8  N   UNL     1      17.319   8.088   4.861  0.00  0.00    -0.294 N 
ATOM      9  N   UNL     1      19.416   7.829   3.963  0.00  0.00    -0.297 N 
ATOM     25  C   UNL     1      18.221   8.542   3.904  0.00  0.00    +0.300 C 
ATOM     35  H   UNL     1      17.573   7.278   5.419  0.00  0.00    +0.151 HD
ATOM     39  H   UNL     1      19.472   7.047   4.608  0.00  0.00    +0.151 HD
BRANCH   9  19
ATOM     19  C   UNL     1      20.534   8.087   3.083  0.00  0.00    +0.074 C 
ATOM     20  C   UNL     1      21.349   9.292   3.567  0.00  0.00    +0.022 C 
ATOM     21  C   UNL     1      21.418   6.843   2.935  0.00  0.00    +0.022 C 
ATOM     22  C   UNL     1      22.151   8.985   4.833  0.00  0.00    +0.002 C 
ATOM     23  C   UNL     1      22.219   6.541   4.200  0.00  0.00    +0.002 C 
ATOM     24  C   UNL     1      23.029   7.750   4.656  0.00  0.00    +0.000 C 
ENDBRANCH   9  19
ENDBRANCH  13   8
BRANCH  12  18
ATOM      4  O   UNL     1      12.582   6.472   7.004  0.00  0.00    -0.273 OA
ATOM     10  N   UNL     1      11.874   6.582   4.789  0.00  0.00    -0.301 N 
ATOM     18  C   UNL     1      12.631   6.969   5.881  0.00  0.00    +0.246 C 
ATOM     40  H   UNL     1      12.054   6.994   3.879  0.00  0.00    +0.150 HD
BRANCH  10  26
ATOM     26  C   UNL     1      10.903   5.513   4.839  0.00  0.00    +0.163 C 
BRANCH  26  28
ATOM      6  O   UNL     1      10.899   3.918   3.005  0.00  0.00    -0.274 OA
ATOM     11  N   UNL     1      10.115   6.041   2.616  0.00  0.00    -0.328 N 
ATOM     28  C   UNL     1      10.667   5.056   3.406  0.00  0.00    +0.231 C 
ATOM     41  H   UNL     1       9.892   5.863   1.642  0.00  0.00    +0.145 HD
ATOM     42  H   UNL     1       9.924   6.976   2.961  0.00  0.00    +0.145 HD
ENDBRANCH  26  28
BRANCH  26  27
ATOM     27  C   UNL     1       9.584   5.956   5.486  0.00  0.00    +0.067 C 
BRANCH  27  29
ATOM     29  C   UNL     1       9.484   5.580   6.936  0.00  0.00    -0.045 A 
ATOM     30  C   UNL     1       9.759   4.275   7.327  0.00  0.00    +0.007 A 
ATOM     31  C   UNL     1       9.117   6.540   7.871  0.00  0.00    +0.007 A 
ATOM     32  C   UNL     1       9.665   3.925   8.674  0.00  0.00    +0.045 A 
ATOM     33  C   UNL     1       9.023   6.190   9.217  0.00  0.00    +0.045 A 
ATOM     34  C   UNL     1       9.297   4.883   9.620  0.00  0.00    +0.117 A 
BRANCH  34   7
ATOM      7  O   UNL     1       9.207   4.541  10.934  0.00  0.00    -0.507 OA
ATOM     43  H   UNL     1       9.306   3.577  11.016  0.00  0.00    +0.292 HD
ENDBRANCH  34   7
ENDBRANCH  27  29
ENDBRANCH  26  27
ENDBRANCH  10  26
ENDBRANCH  12  18
BRANCH  12   1
ATOM      1  O   UNL     1      13.050   8.680   4.372  0.00  0.00    -0.379 OA
ATOM     36  H   UNL     1      13.467   9.551   4.257  0.00  0.00    +0.211 HD
ENDBRANCH  12   1
BRANCH  15   2
ATOM      2  O   UNL     1      16.805  10.818   5.729  0.00  0.00    -0.387 OA
ATOM     37  H   UNL     1      17.646  10.759   6.212  0.00  0.00    +0.210 HD
ENDBRANCH  15   2
BRANCH  17   3
ATOM      3  O   UNL     1      14.643  11.088   7.564  0.00  0.00    -0.389 OA
ATOM     38  H   UNL     1      13.911  11.725   7.499  0.00  0.00    +0.210 HD
ENDBRANCH  17   3
TORSDOF 11
ENDMDL
MODEL 7
REMARK VINA RESULT:      -7.0     28.403     29.527
REMARK  Name = 7134533
REMARK  11 active torsions:
REMARK  status: ('A' for Active; 'I' for Inactive)
REMARK    1  A    between atoms: O_1  and  C_12
REMARK    2  A    between atoms: O_2  and  C_15
REMARK    3  A    between atoms: O_3  and  C_17
REMARK    4  A    between atoms: O_7  and  C_34
REMARK    5  A    between atoms: N_8  and  C_13
REMARK    6  A    between atoms: N_9  and  C_19
REMARK    7  A    between atoms: N_10  and  C_26
REMARK    8  A    between atoms: C_12  and  C_18
REMARK    9  A    between atoms: C_26  and  C_27
REMARK   10  A    between atoms: C_26  and  C_28
REMARK   11  A    between atoms: C_27  and  C_29
REMARK                            x       y       z     vdW  Elec       q    Type
REMARK                         _______ _______ _______ _____ _____    ______ ____
ROOT
ATOM     12  C   UNL     1      -5.034 -11.815  16.439  0.00  0.00    +0.146 C 
ATOM     13  C   UNL     1      -7.018 -10.467  17.277  0.00  0.00    +0.109 C 
ATOM     14  C   UNL     1      -5.943 -10.610  16.194  0.00  0.00    +0.069 C 
ATOM     15  C   UNL     1      -6.411 -10.447  18.685  0.00  0.00    +0.163 C 
ATOM     16  C   UNL     1      -4.420 -11.772  17.836  0.00  0.00    +0.078 C 
ATOM     17  C   UNL     1      -5.483 -11.640  18.928  0.00  0.00    +0.148 C 
ENDROOT
BRANCH  13   8
ATOM      5  O   UNL     1      -9.861 -10.173  17.591  0.00  0.00    -0.253 OA
ATOM      8  N   UNL     1      -7.796  -9.270  17.040  0.00  0.00    -0.294 N 
ATOM      9  N   UNL     1      -9.675  -7.957  16.925  0.00  0.00    -0.297 N 
ATOM     25  C   UNL     1      -9.175  -9.222  17.220  0.00  0.00    +0.300 C 
ATOM     35  H   UNL     1      -7.329  -8.454  16.658  0.00  0.00    +0.151 HD
ATOM     39  H   UNL     1      -9.030  -7.264  16.557  0.00  0.00    +0.151 HD
BRANCH   9  19
ATOM     19  C   UNL     1     -11.077  -7.619  17.023  0.00  0.00    +0.074 C 
ATOM     20  C   UNL     1     -11.320  -6.157  16.630  0.00  0.00    +0.022 C 
ATOM     21  C   UNL     1     -11.935  -8.570  16.182  0.00  0.00    +0.022 C 
ATOM     22  C   UNL     1     -11.159  -5.922  15.127  0.00  0.00    +0.002 C 
ATOM     23  C   UNL     1     -11.773  -8.330  14.681  0.00  0.00    +0.002 C 
ATOM     24  C   UNL     1     -12.030  -6.873  14.312  0.00  0.00    +0.000 C 
ENDBRANCH   9  19
ENDBRANCH  13   8
BRANCH  12  18
ATOM      4  O   UNL     1      -2.780 -11.629  15.670  0.00  0.00    -0.273 OA
ATOM     10  N   UNL     1      -4.442 -12.223  14.152  0.00  0.00    -0.301 N 
ATOM     18  C   UNL     1      -3.952 -11.880  15.401  0.00  0.00    +0.246 C 
ATOM     40  H   UNL     1      -5.443 -12.321  14.013  0.00  0.00    +0.150 HD
BRANCH  10  26
ATOM     26  C   UNL     1      -3.608 -12.330  12.978  0.00  0.00    +0.163 C 
BRANCH  26  28
ATOM      6  O   UNL     1      -2.922 -14.618  13.429  0.00  0.00    -0.274 OA
ATOM     11  N   UNL     1      -1.299 -13.010  13.196  0.00  0.00    -0.328 N 
ATOM     28  C   UNL     1      -2.606 -13.446  13.241  0.00  0.00    +0.231 C 
ATOM     41  H   UNL     1      -0.530 -13.657  13.339  0.00  0.00    +0.145 HD
ATOM     42  H   UNL     1      -1.052 -12.039  13.036  0.00  0.00    +0.145 HD
ENDBRANCH  26  28
BRANCH  26  27
ATOM     27  C   UNL     1      -2.879 -11.018  12.660  0.00  0.00    +0.067 C 
BRANCH  27  29
ATOM     29  C   UNL     1      -3.630 -10.145  11.697  0.00  0.00    -0.045 A 
ATOM     30  C   UNL     1      -3.050  -9.806  10.481  0.00  0.00    +0.007 A 
ATOM     31  C   UNL     1      -4.899  -9.686  12.032  0.00  0.00    +0.007 A 
ATOM     32  C   UNL     1      -3.748  -8.994   9.587  0.00  0.00    +0.045 A 
ATOM     33  C   UNL     1      -5.596  -8.875  11.138  0.00  0.00    +0.045 A 
ATOM     34  C   UNL     1      -5.021  -8.529   9.915  0.00  0.00    +0.117 A 
BRANCH  34   7
ATOM      7  O   UNL     1      -5.702  -7.738   9.041  0.00  0.00    -0.507 OA
ATOM     43  H   UNL     1      -5.133  -6.993   8.781  0.00  0.00    +0.292 HD
ENDBRANCH  34   7
ENDBRANCH  27  29
ENDBRANCH  26  27
ENDBRANCH  10  26
ENDBRANCH  12  18
BRANCH  12   1
ATOM      1  O   UNL     1      -5.762 -13.027  16.287  0.00  0.00    -0.379 OA
ATOM     36  H   UNL     1      -5.922 -13.400  17.172  0.00  0.00    +0.211 HD
ENDBRANCH  12   1
BRANCH  15   2
ATOM      2  O   UNL     1      -7.465 -10.516  19.650  0.00  0.00    -0.387 OA
ATOM     37  H   UNL     1      -7.270 -11.257  20.248  0.00  0.00    +0.210 HD
ENDBRANCH  15   2
BRANCH  17   3
ATOM      3  O   UNL     1      -4.832 -11.458  20.186  0.00  0.00    -0.389 OA
ATOM     38  H   UNL     1      -4.906 -10.518  20.424  0.00  0.00    +0.210 HD
ENDBRANCH  17   3
TORSDOF 11
ENDMDL
MODEL 8
REMARK VINA RESULT:      -6.9     28.001     31.516
REMARK  Name = 7134533
REMARK  11 active torsions:
REMARK  status: ('A' for Active; 'I' for Inactive)
REMARK    1  A    between atoms: O_1  and  C_12
REMARK    2  A    between atoms: O_2  and  C_15
REMARK    3  A    between atoms: O_3  and  C_17
REMARK    4  A    between atoms: O_7  and  C_34
REMARK    5  A    between atoms: N_8  and  C_13
REMARK    6  A    between atoms: N_9  and  C_19
REMARK    7  A    between atoms: N_10  and  C_26
REMARK    8  A    between atoms: C_12  and  C_18
REMARK    9  A    between atoms: C_26  and  C_27
REMARK   10  A    between atoms: C_26  and  C_28
REMARK   11  A    between atoms: C_27  and  C_29
REMARK                            x       y       z     vdW  Elec       q    Type
REMARK                         _______ _______ _______ _____ _____    ______ ____
ROOT
ATOM     12  C   UNL     1      -6.751 -10.848  18.683  0.00  0.00    +0.146 C 
ATOM     13  C   UNL     1      -4.935 -10.293  16.994  0.00  0.00    +0.109 C 
ATOM     14  C   UNL     1      -6.441 -10.360  17.266  0.00  0.00    +0.069 C 
ATOM     15  C   UNL     1      -4.240 -11.625  17.303  0.00  0.00    +0.163 C 
ATOM     16  C   UNL     1      -6.069 -12.183  18.970  0.00  0.00    +0.078 C 
ATOM     17  C   UNL     1      -4.562 -12.128  18.712  0.00  0.00    +0.148 C 
ENDROOT
BRANCH  13   8
ATOM      5  O   UNL     1      -5.368 -11.908  14.654  0.00  0.00    -0.253 OA
ATOM      8  N   UNL     1      -4.703  -9.905  15.619  0.00  0.00    -0.294 N 
ATOM      9  N   UNL     1      -4.637 -10.141  13.337  0.00  0.00    -0.297 N 
ATOM     25  C   UNL     1      -4.942 -10.759  14.547  0.00  0.00    +0.300 C 
ATOM     35  H   UNL     1      -4.279  -9.002  15.434  0.00  0.00    +0.151 HD
ATOM     39  H   UNL     1      -4.224  -9.215  13.367  0.00  0.00    +0.151 HD
BRANCH   9  19
ATOM     19  C   UNL     1      -4.789 -10.794  12.056  0.00  0.00    +0.074 C 
ATOM     20  C   UNL     1      -5.587  -9.919  11.083  0.00  0.00    +0.022 C 
ATOM     21  C   UNL     1      -3.427 -11.179  11.467  0.00  0.00    +0.022 C 
ATOM     22  C   UNL     1      -4.791  -8.706  10.600  0.00  0.00    +0.002 C 
ATOM     23  C   UNL     1      -2.635  -9.964  10.985  0.00  0.00    +0.002 C 
ATOM     24  C   UNL     1      -3.445  -9.115  10.010  0.00  0.00    +0.000 C 
ENDBRANCH   9  19
ENDBRANCH  13   8
BRANCH  12  18
ATOM      4  O   UNL     1      -8.716 -11.206  19.992  0.00  0.00    -0.273 OA
ATOM     10  N   UNL     1      -8.941 -10.804  17.710  0.00  0.00    -0.301 N 
ATOM     18  C   UNL     1      -8.232 -10.968  18.888  0.00  0.00    +0.246 C 
ATOM     40  H   UNL     1      -8.442 -10.702  16.832  0.00  0.00    +0.150 HD
BRANCH  10  26
ATOM     26  C   UNL     1     -10.380 -10.896  17.634  0.00  0.00    +0.163 C 
BRANCH  26  28
ATOM      6  O   UNL     1     -10.206 -11.030  15.214  0.00  0.00    -0.274 OA
ATOM     11  N   UNL     1     -11.638 -12.466  16.293  0.00  0.00    -0.328 N 
ATOM     28  C   UNL     1     -10.723 -11.436  16.252  0.00  0.00    +0.231 C 
ATOM     41  H   UNL     1     -11.941 -12.926  15.442  0.00  0.00    +0.145 HD
ATOM     42  H   UNL     1     -12.054 -12.793  17.159  0.00  0.00    +0.145 HD
ENDBRANCH  26  28
BRANCH  26  27
ATOM     27  C   UNL     1     -11.062  -9.542  17.865  0.00  0.00    +0.067 C 
BRANCH  27  29
ATOM     29  C   UNL     1     -12.283  -9.637  18.733  0.00  0.00    -0.045 A 
ATOM     30  C   UNL     1     -13.543  -9.475  18.168  0.00  0.00    +0.007 A 
ATOM     31  C   UNL     1     -12.141  -9.888  20.093  0.00  0.00    +0.007 A 
ATOM     32  C   UNL     1     -14.677  -9.563  18.975  0.00  0.00    +0.045 A 
ATOM     33  C   UNL     1     -13.276  -9.977  20.900  0.00  0.00    +0.045 A 
ATOM     34  C   UNL     1     -14.544  -9.814  20.341  0.00  0.00    +0.117 A 
BRANCH  34   7
ATOM      7  O   UNL     1     -15.651  -9.902  21.127  0.00  0.00    -0.507 OA
ATOM     43  H   UNL     1     -16.275 -10.530  20.724  0.00  0.00    +0.292 HD
ENDBRANCH  34   7
ENDBRANCH  27  29
ENDBRANCH  26  27
ENDBRANCH  10  26
ENDBRANCH  12  18
BRANCH  12   1
ATOM      1  O   UNL     1      -6.322  -9.890  19.644  0.00  0.00    -0.379 OA
ATOM     36  H   UNL     1      -6.458  -9.002  19.271  0.00  0.00    +0.211 HD
ENDBRANCH  12   1
BRANCH  15   2
ATOM      2  O   UNL     1      -2.823 -11.442  17.224  0.00  0.00    -0.387 OA
ATOM     37  H   UNL     1      -2.402 -12.278  17.486  0.00  0.00    +0.210 HD
ENDBRANCH  15   2
BRANCH  17   3
ATOM      3  O   UNL     1      -4.022 -13.442  18.859  0.00  0.00    -0.389 OA
ATOM     38  H   UNL     1      -3.879 -13.597  19.808  0.00  0.00    +0.210 HD
ENDBRANCH  17   3
TORSDOF 11
ENDMDL
MODEL 9
REMARK VINA RESULT:      -6.8     27.600     30.376
REMARK  Name = 7134533
REMARK  11 active torsions:
REMARK  status: ('A' for Active; 'I' for Inactive)
REMARK    1  A    between atoms: O_1  and  C_12
REMARK    2  A    between atoms: O_2  and  C_15
REMARK    3  A    between atoms: O_3  and  C_17
REMARK    4  A    between atoms: O_7  and  C_34
REMARK    5  A    between atoms: N_8  and  C_13
REMARK    6  A    between atoms: N_9  and  C_19
REMARK    7  A    between atoms: N_10  and  C_26
REMARK    8  A    between atoms: C_12  and  C_18
REMARK    9  A    between atoms: C_26  and  C_27
REMARK   10  A    between atoms: C_26  and  C_28
REMARK   11  A    between atoms: C_27  and  C_29
REMARK                            x       y       z     vdW  Elec       q    Type
REMARK                         _______ _______ _______ _____ _____    ______ ____
ROOT
ATOM     12  C   UNL     1      -8.605 -11.424  17.344  0.00  0.00    +0.146 C 
ATOM     13  C   UNL     1     -10.450  -9.764  16.797  0.00  0.00    +0.109 C 
ATOM     14  C   UNL     1      -9.039 -10.255  16.457  0.00  0.00    +0.069 C 
ATOM     15  C   UNL     1     -10.595  -9.434  18.288  0.00  0.00    +0.163 C 
ATOM     16  C   UNL     1      -8.735 -11.074  18.825  0.00  0.00    +0.078 C 
ATOM     17  C   UNL     1     -10.143 -10.592  19.180  0.00  0.00    +0.148 C 
ENDROOT
BRANCH  13   8
ATOM      5  O   UNL     1     -13.009  -9.140  15.645  0.00  0.00    -0.253 OA
ATOM      8  N   UNL     1     -10.776  -8.611  15.986  0.00  0.00    -0.294 N 
ATOM      9  N   UNL     1     -12.092  -7.214  14.728  0.00  0.00    -0.297 N 
ATOM     25  C   UNL     1     -12.049  -8.392  15.469  0.00  0.00    +0.300 C 
ATOM     35  H   UNL     1     -10.030  -7.975  15.722  0.00  0.00    +0.151 HD
ATOM     39  H   UNL     1     -11.223  -6.709  14.585  0.00  0.00    +0.151 HD
BRANCH   9  19
ATOM     19  C   UNL     1     -13.290  -6.736  14.072  0.00  0.00    +0.074 C 
ATOM     20  C   UNL     1     -13.312  -5.205  14.015  0.00  0.00    +0.022 C 
ATOM     21  C   UNL     1     -13.435  -7.347  12.674  0.00  0.00    +0.022 C 
ATOM     22  C   UNL     1     -12.297  -4.642  13.019  0.00  0.00    +0.002 C 
ATOM     23  C   UNL     1     -12.420  -6.781  11.681  0.00  0.00    +0.002 C 
ATOM     24  C   UNL     1     -12.469  -5.257  11.634  0.00  0.00    +0.000 C 
ENDBRANCH   9  19
ENDBRANCH  13   8
BRANCH  12  18
ATOM      4  O   UNL     1      -6.930 -12.590  16.103  0.00  0.00    -0.273 OA
ATOM     10  N   UNL     1      -6.281 -11.270  17.907  0.00  0.00    -0.301 N 
ATOM     18  C   UNL     1      -7.195 -11.829  17.031  0.00  0.00    +0.246 C 
ATOM     40  H   UNL     1      -6.608 -10.726  18.699  0.00  0.00    +0.150 HD
BRANCH  10  26
ATOM     26  C   UNL     1      -4.860 -11.521  17.835  0.00  0.00    +0.163 C 
BRANCH  26  28
ATOM      6  O   UNL     1      -3.217 -12.061  19.543  0.00  0.00    -0.274 OA
ATOM     11  N   UNL     1      -5.364 -11.575  20.198  0.00  0.00    -0.328 N 
ATOM     28  C   UNL     1      -4.375 -11.767  19.257  0.00  0.00    +0.231 C 
ATOM     41  H   UNL     1      -5.169 -11.691  21.187  0.00  0.00    +0.145 HD
ATOM     42  H   UNL     1      -6.315 -11.329  19.948  0.00  0.00    +0.145 HD
ENDBRANCH  26  28
BRANCH  26  27
ATOM     27  C   UNL     1      -4.094 -10.353  17.201  0.00  0.00    +0.067 C 
BRANCH  27  29
ATOM     29  C   UNL     1      -3.434 -10.716  15.903  0.00  0.00    -0.045 A 
ATOM     30  C   UNL     1      -4.180 -10.720  14.730  0.00  0.00    +0.007 A 
ATOM     31  C   UNL     1      -2.084 -11.045  15.888  0.00  0.00    +0.007 A 
ATOM     32  C   UNL     1      -3.566 -11.059  13.524  0.00  0.00    +0.045 A 
ATOM     33  C   UNL     1      -1.470 -11.383  14.682  0.00  0.00    +0.045 A 
ATOM     34  C   UNL     1      -2.211 -11.390  13.500  0.00  0.00    +0.117 A 
BRANCH  34   7
ATOM      7  O   UNL     1      -1.613 -11.719  12.322  0.00  0.00    -0.507 OA
ATOM     43  H   UNL     1      -2.034 -12.522  11.969  0.00  0.00    +0.292 HD
ENDBRANCH  34   7
ENDBRANCH  27  29
ENDBRANCH  26  27
ENDBRANCH  10  26
ENDBRANCH  12  18
BRANCH  12   1
ATOM      1  O   UNL     1      -9.390 -12.577  17.066  0.00  0.00    -0.379 OA
ATOM     36  H   UNL     1     -10.080 -12.648  17.748  0.00  0.00    +0.211 HD
ENDBRANCH  12   1
BRANCH  15   2
ATOM      2  O   UNL     1     -11.973  -9.178  18.578  0.00  0.00    -0.387 OA
ATOM     37  H   UNL     1     -12.064  -9.106  19.543  0.00  0.00    +0.210 HD
ENDBRANCH  15   2
BRANCH  17   3
ATOM      3  O   UNL     1     -10.149 -10.148  20.537  0.00  0.00    -0.389 OA
ATOM     38  H   UNL     1     -10.616  -9.295  20.567  0.00  0.00    +0.210 HD
ENDBRANCH  17   3
TORSDOF 11
ENDMDL
MODEL 10
REMARK VINA RESULT:      -6.7     15.516     18.715
REMARK  Name = 7134533
REMARK  11 active torsions:
REMARK  status: ('A' for Active; 'I' for Inactive)
REMARK    1  A    between atoms: O_1  and  C_12
REMARK    2  A    between atoms: O_2  and  C_15
REMARK    3  A    between atoms: O_3  and  C_17
REMARK    4  A    between atoms: O_7  and  C_34
REMARK    5  A    between atoms: N_8  and  C_13
REMARK    6  A    between atoms: N_9  and  C_19
REMARK    7  A    between atoms: N_10  and  C_26
REMARK    8  A    between atoms: C_12  and  C_18
REMARK    9  A    between atoms: C_26  and  C_27
REMARK   10  A    between atoms: C_26  and  C_28
REMARK   11  A    between atoms: C_27  and  C_29
REMARK                            x       y       z     vdW  Elec       q    Type
REMARK                         _______ _______ _______ _____ _____    ______ ____
ROOT
ATOM     12  C   UNL     1      12.516   8.611   4.986  0.00  0.00    +0.146 C 
ATOM     13  C   UNL     1      15.049   8.463   5.120  0.00  0.00    +0.109 C 
ATOM     14  C   UNL     1      13.826   8.526   4.200  0.00  0.00    +0.069 C 
ATOM     15  C   UNL     1      14.929   7.334   6.152  0.00  0.00    +0.163 C 
ATOM     16  C   UNL     1      12.400   7.470   5.994  0.00  0.00    +0.078 C 
ATOM     17  C   UNL     1      13.612   7.401   6.927  0.00  0.00    +0.148 C 
ENDROOT
BRANCH  13   8
ATOM      5  O   UNL     1      17.645   9.558   5.693  0.00  0.00    -0.253 OA
ATOM      8  N   UNL     1      16.250   8.303   4.328  0.00  0.00    -0.294 N 
ATOM      9  N   UNL     1      18.457   8.568   3.757  0.00  0.00    -0.297 N 
ATOM     25  C   UNL     1      17.467   8.874   4.687  0.00  0.00    +0.300 C 
ATOM     35  H   UNL     1      16.186   7.819   3.439  0.00  0.00    +0.151 HD
ATOM     39  H   UNL     1      18.185   8.055   2.923  0.00  0.00    +0.151 HD
BRANCH   9  19
ATOM     19  C   UNL     1      19.823   9.029   3.875  0.00  0.00    +0.074 C 
ATOM     20  C   UNL     1      20.583   8.231   4.940  0.00  0.00    +0.022 C 
ATOM     21  C   UNL     1      20.542   8.976   2.522  0.00  0.00    +0.022 C 
ATOM     22  C   UNL     1      20.890   6.802   4.491  0.00  0.00    +0.002 C 
ATOM     23  C   UNL     1      20.847   7.546   2.079  0.00  0.00    +0.002 C 
ATOM     24  C   UNL     1      21.614   6.776   3.149  0.00  0.00    +0.000 C 
ENDBRANCH   9  19
ENDBRANCH  13   8
BRANCH  12  18
ATOM      4  O   UNL     1      11.476   8.694   2.837  0.00  0.00    -0.273 OA
ATOM     10  N   UNL     1      10.136   8.493   4.730  0.00  0.00    -0.301 N 
ATOM     18  C   UNL     1      11.340   8.599   4.054  0.00  0.00    +0.246 C 
ATOM     40  H   UNL     1      10.124   8.511   5.744  0.00  0.00    +0.150 HD
BRANCH  10  26
ATOM     26  C   UNL     1       8.854   8.482   4.064  0.00  0.00    +0.163 C 
BRANCH  26  28
ATOM      6  O   UNL     1       8.783  10.904   4.260  0.00  0.00    -0.274 OA
ATOM     11  N   UNL     1       6.854   9.714   4.635  0.00  0.00    -0.328 N 
ATOM     28  C   UNL     1       8.196   9.827   4.338  0.00  0.00    +0.231 C 
ATOM     41  H   UNL     1       6.292  10.537   4.823  0.00  0.00    +0.145 HD
ATOM     42  H   UNL     1       6.382   8.818   4.692  0.00  0.00    +0.145 HD
ENDBRANCH  26  28
BRANCH  26  27
ATOM     27  C   UNL     1       7.957   7.336   4.549  0.00  0.00    +0.067 C 
BRANCH  27  29
ATOM     29  C   UNL     1       8.629   6.446   5.553  0.00  0.00    -0.045 A 
ATOM     30  C   UNL     1       9.228   5.265   5.132  0.00  0.00    +0.007 A 
ATOM     31  C   UNL     1       8.647   6.813   6.893  0.00  0.00    +0.007 A 
ATOM     32  C   UNL     1       9.852   4.437   6.065  0.00  0.00    +0.045 A 
ATOM     33  C   UNL     1       9.271   5.986   7.826  0.00  0.00    +0.045 A 
ATOM     34  C   UNL     1       9.874   4.798   7.412  0.00  0.00    +0.117 A 
BRANCH  34   7
ATOM      7  O   UNL     1      10.485   3.990   8.322  0.00  0.00    -0.507 OA
ATOM     43  H   UNL     1      10.283   4.314   9.217  0.00  0.00    +0.292 HD
ENDBRANCH  34   7
ENDBRANCH  27  29
ENDBRANCH  26  27
ENDBRANCH  10  26
ENDBRANCH  12  18
BRANCH  12   1
ATOM      1  O   UNL     1      12.428   9.852   5.675  0.00  0.00    -0.379 OA
ATOM     36  H   UNL     1      11.636   9.833   6.239  0.00  0.00    +0.211 HD
ENDBRANCH  12   1
BRANCH  15   2
ATOM      2  O   UNL     1      15.994   7.452   7.100  0.00  0.00    -0.387 OA
ATOM     37  H   UNL     1      16.765   6.982   6.740  0.00  0.00    +0.210 HD
ENDBRANCH  15   2
BRANCH  17   3
ATOM      3  O   UNL     1      13.502   6.231   7.738  0.00  0.00    -0.389 OA
ATOM     38  H   UNL     1      14.146   5.581   7.407  0.00  0.00    +0.210 HD
ENDBRANCH  17   3
TORSDOF 11
ENDMDL
