MODEL 1
REMARK VINA RESULT:      -6.1      0.000      0.000
REMARK  Name = 75536984
REMARK  5 active torsions:
REMARK  status: ('A' for Active; 'I' for Inactive)
REMARK    1  A    between atoms: N_4  and  C_14
REMARK    2  A    between atoms: N_6  and  C_17
REMARK    3  A    between atoms: C_14  and  C_16
REMARK    4  A    between atoms: C_17  and  C_19
REMARK    5  A    between atoms: C_17  and  C_20
REMARK                            x       y       z     vdW  Elec       q    Type
REMARK                         _______ _______ _______ _____ _____    ______ ____
ROOT
ATOM      1  O   UNL     1     -17.207   1.900  22.627  0.00  0.00    -0.252 OA
ATOM      2  O   UNL     1     -16.390   0.401  29.327  0.00  0.00    -0.253 OA
ATOM      3  N   UNL     1     -16.624   2.178  24.885  0.00  0.00    -0.278 N 
ATOM      4  N   UNL     1     -16.529   3.969  23.531  0.00  0.00    -0.278 N 
ATOM      5  N   UNL     1     -16.826   1.939  27.649  0.00  0.00    -0.282 N 
ATOM      6  N   UNL     1     -15.697   2.566  29.629  0.00  0.00    -0.297 N 
ATOM      8  C   UNL     1     -16.064   3.235  25.713  0.00  0.00    +0.112 C 
ATOM      9  C   UNL     1     -16.214   4.486  24.852  0.00  0.00    +0.133 C 
ATOM     10  C   UNL     1     -16.787   3.291  27.055  0.00  0.00    +0.133 C 
ATOM     11  C   UNL     1     -16.807   0.847  25.438  0.00  0.00    +0.128 C 
ATOM     12  C   UNL     1     -17.490   0.935  26.802  0.00  0.00    +0.128 C 
ATOM     13  C   UNL     1     -16.831   2.593  23.563  0.00  0.00    +0.306 C 
ATOM     15  C   UNL     1     -16.312   1.558  28.898  0.00  0.00    +0.303 C 
ATOM     24  H   UNL     1     -15.512   3.469  29.216  0.00  0.00    +0.150 HD
ENDROOT
BRANCH   6  17
ATOM     17  C   UNL     1     -15.114   2.327  30.931  0.00  0.00    +0.068 C 
ATOM     19  C   UNL     1     -15.606   3.365  31.930  0.00  0.00    +0.027 C 
ATOM     20  C   UNL     1     -13.592   2.323  30.843  0.00  0.00    +0.027 C 
ENDBRANCH   6  17
BRANCH   4  14
ATOM     14  C   UNL     1     -16.647   4.834  22.379  0.00  0.00    +0.164 C 
BRANCH  14  16
ATOM      7  N   UNL     1     -14.229   4.692  22.191  0.00  0.00    -0.258 NA
ATOM     16  C   UNL     1     -15.331   5.454  22.004  0.00  0.00    +0.059 A 
ATOM     18  C   UNL     1     -15.307   6.742  21.497  0.00  0.00    +0.025 A 
ATOM     21  C   UNL     1     -14.072   7.286  21.160  0.00  0.00    +0.003 A 
ATOM     22  C   UNL     1     -13.047   5.253  21.851  0.00  0.00    +0.111 A 
ATOM     23  C   UNL     1     -12.916   6.533  21.337  0.00  0.00    +0.020 A 
ENDBRANCH  14  16
ENDBRANCH   4  14
TORSDOF 3
ENDMDL
MODEL 2
REMARK VINA RESULT:      -6.0     19.292     21.677
REMARK  Name = 75536984
REMARK  5 active torsions:
REMARK  status: ('A' for Active; 'I' for Inactive)
REMARK    1  A    between atoms: N_4  and  C_14
REMARK    2  A    between atoms: N_6  and  C_17
REMARK    3  A    between atoms: C_14  and  C_16
REMARK    4  A    between atoms: C_17  and  C_19
REMARK    5  A    between atoms: C_17  and  C_20
REMARK                            x       y       z     vdW  Elec       q    Type
REMARK                         _______ _______ _______ _____ _____    ______ ____
ROOT
ATOM      1  O   UNL     1      -6.345 -13.412  17.547  0.00  0.00    -0.252 OA
ATOM      2  O   UNL     1      -2.537 -12.524  11.844  0.00  0.00    -0.253 OA
ATOM      3  N   UNL     1      -5.113 -12.311  15.877  0.00  0.00    -0.278 N 
ATOM      4  N   UNL     1      -5.757 -11.132  17.678  0.00  0.00    -0.278 N 
ATOM      5  N   UNL     1      -3.095 -11.904  14.007  0.00  0.00    -0.282 N 
ATOM      6  N   UNL     1      -2.361 -10.312  12.422  0.00  0.00    -0.297 N 
ATOM      8  C   UNL     1      -4.704 -10.946  15.588  0.00  0.00    +0.112 C 
ATOM      9  C   UNL     1      -4.946 -10.210  16.902  0.00  0.00    +0.133 C 
ATOM     10  C   UNL     1      -3.260 -10.922  15.097  0.00  0.00    +0.133 C 
ATOM     11  C   UNL     1      -4.874 -13.360  14.901  0.00  0.00    +0.128 C 
ATOM     12  C   UNL     1      -3.435 -13.284  14.392  0.00  0.00    +0.128 C 
ATOM     13  C   UNL     1      -5.809 -12.411  17.090  0.00  0.00    +0.306 C 
ATOM     15  C   UNL     1      -2.654 -11.640  12.701  0.00  0.00    +0.303 C 
ATOM     24  H   UNL     1      -2.592  -9.579  13.078  0.00  0.00    +0.150 HD
ENDROOT
BRANCH   6  17
ATOM     17  C   UNL     1      -1.902  -9.883  11.119  0.00  0.00    +0.068 C 
ATOM     19  C   UNL     1      -0.737  -8.912  11.262  0.00  0.00    +0.027 C 
ATOM     20  C   UNL     1      -3.046  -9.260  10.328  0.00  0.00    +0.027 C 
ENDBRANCH   6  17
BRANCH   4  14
ATOM     14  C   UNL     1      -6.304 -10.773  18.968  0.00  0.00    +0.164 C 
BRANCH  14  16
ATOM      7  N   UNL     1      -8.526 -11.090  19.897  0.00  0.00    -0.258 NA
ATOM     16  C   UNL     1      -7.787 -10.544  18.905  0.00  0.00    +0.059 A 
ATOM     18  C   UNL     1      -8.316  -9.802  17.862  0.00  0.00    +0.025 A 
ATOM     21  C   UNL     1      -9.693  -9.607  17.834  0.00  0.00    +0.003 A 
ATOM     22  C   UNL     1      -9.860 -10.879  19.838  0.00  0.00    +0.111 A 
ATOM     23  C   UNL     1     -10.486 -10.154  18.838  0.00  0.00    +0.020 A 
ENDBRANCH  14  16
ENDBRANCH   4  14
TORSDOF 3
ENDMDL
MODEL 3
REMARK VINA RESULT:      -6.0     19.620     21.200
REMARK  Name = 75536984
REMARK  5 active torsions:
REMARK  status: ('A' for Active; 'I' for Inactive)
REMARK    1  A    between atoms: N_4  and  C_14
REMARK    2  A    between atoms: N_6  and  C_17
REMARK    3  A    between atoms: C_14  and  C_16
REMARK    4  A    between atoms: C_17  and  C_19
REMARK    5  A    between atoms: C_17  and  C_20
REMARK                            x       y       z     vdW  Elec       q    Type
REMARK                         _______ _______ _______ _____ _____    ______ ____
ROOT
ATOM      1  O   UNL     1      -1.335 -11.536  15.066  0.00  0.00    -0.252 OA
ATOM      2  O   UNL     1      -7.028 -10.568  18.869  0.00  0.00    -0.253 OA
ATOM      3  N   UNL     1      -3.547 -10.956  15.601  0.00  0.00    -0.278 N 
ATOM      4  N   UNL     1      -2.949 -10.992  13.436  0.00  0.00    -0.278 N 
ATOM      5  N   UNL     1      -6.026 -11.120  16.853  0.00  0.00    -0.282 N 
ATOM      6  N   UNL     1      -8.117 -10.020  16.927  0.00  0.00    -0.297 N 
ATOM      8  C   UNL     1      -4.715 -10.462  14.889  0.00  0.00    +0.112 C 
ATOM      9  C   UNL     1      -4.372 -10.703  13.422  0.00  0.00    +0.133 C 
ATOM     10  C   UNL     1      -5.971 -11.177  15.378  0.00  0.00    +0.133 C 
ATOM     11  C   UNL     1      -3.568 -11.044  17.051  0.00  0.00    +0.128 C 
ATOM     12  C   UNL     1      -4.857 -11.722  17.516  0.00  0.00    +0.128 C 
ATOM     13  C   UNL     1      -2.467 -11.200  14.742  0.00  0.00    +0.306 C 
ATOM     15  C   UNL     1      -7.055 -10.572  17.633  0.00  0.00    +0.303 C 
ATOM     24  H   UNL     1      -8.068  -9.900  15.925  0.00  0.00    +0.150 HD
ENDROOT
BRANCH   6  17
ATOM     17  C   UNL     1      -9.249  -9.412  17.590  0.00  0.00    +0.068 C 
ATOM     19  C   UNL     1     -10.448 -10.352  17.558  0.00  0.00    +0.027 C 
ATOM     20  C   UNL     1      -9.584  -8.069  16.953  0.00  0.00    +0.027 C 
ENDBRANCH   6  17
BRANCH   4  14
ATOM     14  C   UNL     1      -2.193 -11.177  12.216  0.00  0.00    +0.164 C 
BRANCH  14  16
ATOM      7  N   UNL     1      -3.622 -11.798  10.352  0.00  0.00    -0.258 NA
ATOM     16  C   UNL     1      -2.988 -10.795  11.000  0.00  0.00    +0.059 A 
ATOM     18  C   UNL     1      -3.034  -9.467  10.609  0.00  0.00    +0.025 A 
ATOM     21  C   UNL     1      -3.779  -9.147   9.479  0.00  0.00    +0.003 A 
ATOM     22  C   UNL     1      -4.338 -11.449   9.259  0.00  0.00    +0.111 A 
ATOM     23  C   UNL     1      -4.446 -10.152   8.786  0.00  0.00    +0.020 A 
ENDBRANCH  14  16
ENDBRANCH   4  14
TORSDOF 3
ENDMDL
MODEL 4
REMARK VINA RESULT:      -5.9     31.115     33.856
REMARK  Name = 75536984
REMARK  5 active torsions:
REMARK  status: ('A' for Active; 'I' for Inactive)
REMARK    1  A    between atoms: N_4  and  C_14
REMARK    2  A    between atoms: N_6  and  C_17
REMARK    3  A    between atoms: C_14  and  C_16
REMARK    4  A    between atoms: C_17  and  C_19
REMARK    5  A    between atoms: C_17  and  C_20
REMARK                            x       y       z     vdW  Elec       q    Type
REMARK                         _______ _______ _______ _____ _____    ______ ____
ROOT
ATOM      1  O   UNL     1      15.468   9.636  20.456  0.00  0.00    -0.252 OA
ATOM      2  O   UNL     1      21.601   7.506  22.837  0.00  0.00    -0.253 OA
ATOM      3  N   UNL     1      17.265   8.195  20.920  0.00  0.00    -0.278 N 
ATOM      4  N   UNL     1      15.628   7.456  19.571  0.00  0.00    -0.278 N 
ATOM      5  N   UNL     1      19.908   7.395  21.257  0.00  0.00    -0.282 N 
ATOM      6  N   UNL     1      21.185   5.490  21.826  0.00  0.00    -0.297 N 
ATOM      8  C   UNL     1      17.605   6.807  20.658  0.00  0.00    +0.112 C 
ATOM      9  C   UNL     1      16.615   6.391  19.573  0.00  0.00    +0.133 C 
ATOM     10  C   UNL     1      19.074   6.689  20.263  0.00  0.00    +0.133 C 
ATOM     11  C   UNL     1      18.108   8.994  21.794  0.00  0.00    +0.128 C 
ATOM     12  C   UNL     1      19.576   8.822  21.407  0.00  0.00    +0.128 C 
ATOM     13  C   UNL     1      16.046   8.564  20.334  0.00  0.00    +0.306 C 
ATOM     15  C   UNL     1      20.943   6.842  22.026  0.00  0.00    +0.303 C 
ATOM     24  H   UNL     1      20.558   4.925  21.271  0.00  0.00    +0.150 HD
ENDROOT
BRANCH   6  17
ATOM     17  C   UNL     1      22.216   4.777  22.549  0.00  0.00    +0.068 C 
ATOM     19  C   UNL     1      23.593   5.172  22.033  0.00  0.00    +0.027 C 
ATOM     20  C   UNL     1      21.999   3.272  22.445  0.00  0.00    +0.027 C 
ENDBRANCH   6  17
BRANCH   4  14
ATOM     14  C   UNL     1      14.440   7.397  18.748  0.00  0.00    +0.164 C 
BRANCH  14  16
ATOM      7  N   UNL     1      13.080   6.655  20.618  0.00  0.00    -0.258 NA
ATOM     16  C   UNL     1      13.185   7.497  19.566  0.00  0.00    +0.059 A 
ATOM     18  C   UNL     1      12.218   8.425  19.214  0.00  0.00    +0.025 A 
ATOM     21  C   UNL     1      11.068   8.493  19.993  0.00  0.00    +0.003 A 
ATOM     22  C   UNL     1      11.948   6.750  21.353  0.00  0.00    +0.111 A 
ATOM     23  C   UNL     1      10.923   7.643  21.085  0.00  0.00    +0.020 A 
ENDBRANCH  14  16
ENDBRANCH   4  14
TORSDOF 3
ENDMDL
MODEL 5
REMARK VINA RESULT:      -5.9     33.013     37.066
REMARK  Name = 75536984
REMARK  5 active torsions:
REMARK  status: ('A' for Active; 'I' for Inactive)
REMARK    1  A    between atoms: N_4  and  C_14
REMARK    2  A    between atoms: N_6  and  C_17
REMARK    3  A    between atoms: C_14  and  C_16
REMARK    4  A    between atoms: C_17  and  C_19
REMARK    5  A    between atoms: C_17  and  C_20
REMARK                            x       y       z     vdW  Elec       q    Type
REMARK                         _______ _______ _______ _____ _____    ______ ____
ROOT
ATOM      1  O   UNL     1      16.062  10.892   4.637  0.00  0.00    -0.252 OA
ATOM      2  O   UNL     1      10.420   8.018   7.417  0.00  0.00    -0.253 OA
ATOM      3  N   UNL     1      14.497   9.238   5.219  0.00  0.00    -0.278 N 
ATOM      4  N   UNL     1      16.425   8.592   4.262  0.00  0.00    -0.278 N 
ATOM      5  N   UNL     1      12.646   7.877   6.786  0.00  0.00    -0.282 N 
ATOM      6  N   UNL     1      11.227   5.988   6.720  0.00  0.00    -0.297 N 
ATOM      8  C   UNL     1      14.348   7.805   5.025  0.00  0.00    +0.112 C 
ATOM      9  C   UNL     1      15.738   7.354   4.585  0.00  0.00    +0.133 C 
ATOM     10  C   UNL     1      13.838   7.150   6.304  0.00  0.00    +0.133 C 
ATOM     11  C   UNL     1      13.411  10.006   5.802  0.00  0.00    +0.128 C 
ATOM     12  C   UNL     1      12.887   9.305   7.055  0.00  0.00    +0.128 C 
ATOM     13  C   UNL     1      15.704   9.722   4.696  0.00  0.00    +0.306 C 
ATOM     15  C   UNL     1      11.368   7.340   7.004  0.00  0.00    +0.303 C 
ATOM     24  H   UNL     1      11.961   5.476   6.253  0.00  0.00    +0.150 HD
ENDROOT
BRANCH   6  17
ATOM     17  C   UNL     1       9.970   5.294   6.888  0.00  0.00    +0.068 C 
ATOM     19  C   UNL     1       9.954   4.542   8.213  0.00  0.00    +0.027 C 
ATOM     20  C   UNL     1       9.718   4.352   5.716  0.00  0.00    +0.027 C 
ENDBRANCH   6  17
BRANCH   4  14
ATOM     14  C   UNL     1      17.755   8.605   3.695  0.00  0.00    +0.164 C 
BRANCH  14  16
ATOM      7  N   UNL     1      18.615   8.889   5.949  0.00  0.00    -0.258 NA
ATOM     16  C   UNL     1      18.810   8.336   4.731  0.00  0.00    +0.059 A 
ATOM     18  C   UNL     1      19.904   7.555   4.399  0.00  0.00    +0.025 A 
ATOM     21  C   UNL     1      20.861   7.325   5.381  0.00  0.00    +0.003 A 
ATOM     22  C   UNL     1      19.566   8.643   6.879  0.00  0.00    +0.111 A 
ATOM     23  C   UNL     1      20.696   7.876   6.647  0.00  0.00    +0.020 A 
ENDBRANCH  14  16
ENDBRANCH   4  14
TORSDOF 3
ENDMDL
MODEL 6
REMARK VINA RESULT:      -5.9     18.024     19.680
REMARK  Name = 75536984
REMARK  5 active torsions:
REMARK  status: ('A' for Active; 'I' for Inactive)
REMARK    1  A    between atoms: N_4  and  C_14
REMARK    2  A    between atoms: N_6  and  C_17
REMARK    3  A    between atoms: C_14  and  C_16
REMARK    4  A    between atoms: C_17  and  C_19
REMARK    5  A    between atoms: C_17  and  C_20
REMARK                            x       y       z     vdW  Elec       q    Type
REMARK                         _______ _______ _______ _____ _____    ______ ____
ROOT
ATOM      1  O   UNL     1      -4.016 -11.769  18.819  0.00  0.00    -0.252 OA
ATOM      2  O   UNL     1     -10.529  -9.460  18.567  0.00  0.00    -0.253 OA
ATOM      3  N   UNL     1      -5.900 -10.585  18.064  0.00  0.00    -0.278 N 
ATOM      4  N   UNL     1      -4.060 -10.593  16.775  0.00  0.00    -0.278 N 
ATOM      5  N   UNL     1      -8.577 -10.095  17.490  0.00  0.00    -0.282 N 
ATOM      6  N   UNL     1      -9.981  -8.413  16.602  0.00  0.00    -0.297 N 
ATOM      8  C   UNL     1      -6.218  -9.687  16.967  0.00  0.00    +0.112 C 
ATOM      9  C   UNL     1      -5.055  -9.876  15.997  0.00  0.00    +0.133 C 
ATOM     10  C   UNL     1      -7.591 -10.021  16.392  0.00  0.00    +0.133 C 
ATOM     11  C   UNL     1      -6.871 -10.806  19.123  0.00  0.00    +0.128 C 
ATOM     12  C   UNL     1      -8.246 -11.092  18.522  0.00  0.00    +0.128 C 
ATOM     13  C   UNL     1      -4.586 -11.068  17.992  0.00  0.00    +0.306 C 
ATOM     15  C   UNL     1      -9.749  -9.333  17.616  0.00  0.00    +0.303 C 
ATOM     24  H   UNL     1      -9.275  -8.216  15.907  0.00  0.00    +0.150 HD
ENDROOT
BRANCH   6  17
ATOM     17  C   UNL     1     -11.143  -7.552  16.595  0.00  0.00    +0.068 C 
ATOM     19  C   UNL     1     -12.313  -8.247  15.911  0.00  0.00    +0.027 C 
ATOM     20  C   UNL     1     -10.820  -6.224  15.922  0.00  0.00    +0.027 C 
ENDBRANCH   6  17
BRANCH   4  14
ATOM     14  C   UNL     1      -2.743 -10.882  16.254  0.00  0.00    +0.164 C 
BRANCH  14  16
ATOM      7  N   UNL     1      -3.363 -12.481  14.533  0.00  0.00    -0.258 NA
ATOM     16  C   UNL     1      -2.788 -11.289  14.808  0.00  0.00    +0.059 A 
ATOM     18  C   UNL     1      -2.254 -10.445  13.849  0.00  0.00    +0.025 A 
ATOM     21  C   UNL     1      -2.313 -10.851  12.520  0.00  0.00    +0.003 A 
ATOM     22  C   UNL     1      -3.403 -12.842  13.231  0.00  0.00    +0.111 A 
ATOM     23  C   UNL     1      -2.897 -12.071  12.197  0.00  0.00    +0.020 A 
ENDBRANCH  14  16
ENDBRANCH   4  14
TORSDOF 3
ENDMDL
MODEL 7
REMARK VINA RESULT:      -5.8     14.850     15.949
REMARK  Name = 75536984
REMARK  5 active torsions:
REMARK  status: ('A' for Active; 'I' for Inactive)
REMARK    1  A    between atoms: N_4  and  C_14
REMARK    2  A    between atoms: N_6  and  C_17
REMARK    3  A    between atoms: C_14  and  C_16
REMARK    4  A    between atoms: C_17  and  C_19
REMARK    5  A    between atoms: C_17  and  C_20
REMARK                            x       y       z     vdW  Elec       q    Type
REMARK                         _______ _______ _______ _____ _____    ______ ____
ROOT
ATOM      1  O   UNL     1     -14.262  -7.155  15.068  0.00  0.00    -0.252 OA
ATOM      2  O   UNL     1      -9.661 -11.054  18.452  0.00  0.00    -0.253 OA
ATOM      3  N   UNL     1     -12.184  -7.913  15.861  0.00  0.00    -0.278 N 
ATOM      4  N   UNL     1     -12.259  -5.945  14.780  0.00  0.00    -0.278 N 
ATOM      5  N   UNL     1     -10.342  -8.991  17.645  0.00  0.00    -0.282 N 
ATOM      6  N   UNL     1      -8.052  -9.560  17.792  0.00  0.00    -0.297 N 
ATOM      8  C   UNL     1     -10.794  -7.501  15.752  0.00  0.00    +0.112 C 
ATOM      9  C   UNL     1     -10.880  -6.073  15.220  0.00  0.00    +0.133 C 
ATOM     10  C   UNL     1     -10.095  -7.640  17.101  0.00  0.00    +0.133 C 
ATOM     11  C   UNL     1     -12.516  -9.177  16.495  0.00  0.00    +0.128 C 
ATOM     12  C   UNL     1     -11.768  -9.311  17.821  0.00  0.00    +0.128 C 
ATOM     13  C   UNL     1     -13.053  -7.023  15.215  0.00  0.00    +0.306 C 
ATOM     15  C   UNL     1      -9.372  -9.942  17.996  0.00  0.00    +0.303 C 
ATOM     24  H   UNL     1      -7.828  -8.712  17.291  0.00  0.00    +0.150 HD
ENDROOT
BRANCH   6  17
ATOM     17  C   UNL     1      -6.942 -10.433  18.100  0.00  0.00    +0.068 C 
ATOM     19  C   UNL     1      -6.485 -10.222  19.538  0.00  0.00    +0.027 C 
ATOM     20  C   UNL     1      -5.798 -10.210  17.119  0.00  0.00    +0.027 C 
ENDBRANCH   6  17
BRANCH   4  14
ATOM     14  C   UNL     1     -12.739  -4.760  14.103  0.00  0.00    +0.164 C 
BRANCH  14  16
ATOM      7  N   UNL     1     -12.438  -5.986  12.027  0.00  0.00    -0.258 NA
ATOM     16  C   UNL     1     -12.411  -4.779  12.637  0.00  0.00    +0.059 A 
ATOM     18  C   UNL     1     -12.104  -3.591  11.995  0.00  0.00    +0.025 A 
ATOM     21  C   UNL     1     -11.806  -3.643  10.637  0.00  0.00    +0.003 A 
ATOM     22  C   UNL     1     -12.144  -5.997  10.707  0.00  0.00    +0.111 A 
ATOM     23  C   UNL     1     -11.824  -4.866   9.974  0.00  0.00    +0.020 A 
ENDBRANCH  14  16
ENDBRANCH   4  14
TORSDOF 3
ENDMDL
MODEL 8
REMARK VINA RESULT:      -5.7     21.765     24.594
REMARK  Name = 75536984
REMARK  5 active torsions:
REMARK  status: ('A' for Active; 'I' for Inactive)
REMARK    1  A    between atoms: N_4  and  C_14
REMARK    2  A    between atoms: N_6  and  C_17
REMARK    3  A    between atoms: C_14  and  C_16
REMARK    4  A    between atoms: C_17  and  C_19
REMARK    5  A    between atoms: C_17  and  C_20
REMARK                            x       y       z     vdW  Elec       q    Type
REMARK                         _______ _______ _______ _____ _____    ______ ____
ROOT
ATOM      1  O   UNL     1      -3.082 -13.104  11.255  0.00  0.00    -0.252 OA
ATOM      2  O   UNL     1      -7.279 -11.061   6.153  0.00  0.00    -0.253 OA
ATOM      3  N   UNL     1      -4.321 -11.664   9.872  0.00  0.00    -0.278 N 
ATOM      4  N   UNL     1      -2.898 -10.755  11.354  0.00  0.00    -0.278 N 
ATOM      5  N   UNL     1      -5.454 -10.680   7.530  0.00  0.00    -0.282 N 
ATOM      6  N   UNL     1      -6.804  -8.901   6.756  0.00  0.00    -0.297 N 
ATOM      8  C   UNL     1      -4.540 -10.231   9.760  0.00  0.00    +0.112 C 
ATOM      9  C   UNL     1      -3.420  -9.627  10.602  0.00  0.00    +0.133 C 
ATOM     10  C   UNL     1      -4.535  -9.811   8.293  0.00  0.00    +0.133 C 
ATOM     11  C   UNL     1      -5.105 -12.581   9.063  0.00  0.00    +0.128 C 
ATOM     12  C   UNL     1      -5.122 -12.112   7.608  0.00  0.00    +0.128 C 
ATOM     13  C   UNL     1      -3.397 -11.982  10.877  0.00  0.00    +0.306 C 
ATOM     15  C   UNL     1      -6.559 -10.268   6.770  0.00  0.00    +0.303 C 
ATOM     24  H   UNL     1      -6.301  -8.276   7.371  0.00  0.00    +0.150 HD
ENDROOT
BRANCH   6  17
ATOM     17  C   UNL     1      -7.909  -8.324   6.023  0.00  0.00    +0.068 C 
ATOM     19  C   UNL     1      -7.517  -8.095   4.569  0.00  0.00    +0.027 C 
ATOM     20  C   UNL     1      -8.370  -7.029   6.680  0.00  0.00    +0.027 C 
ENDBRANCH   6  17
BRANCH   4  14
ATOM     14  C   UNL     1      -1.878 -10.593  12.367  0.00  0.00    +0.164 C 
BRANCH  14  16
ATOM      7  N   UNL     1      -3.804 -10.674  13.847  0.00  0.00    -0.258 NA
ATOM     16  C   UNL     1      -2.456 -10.616  13.754  0.00  0.00    +0.059 A 
ATOM     18  C   UNL     1      -1.604 -10.577  14.844  0.00  0.00    +0.025 A 
ATOM     21  C   UNL     1      -2.170 -10.600  16.114  0.00  0.00    +0.003 A 
ATOM     22  C   UNL     1      -4.319 -10.696  15.097  0.00  0.00    +0.111 A 
ATOM     23  C   UNL     1      -3.553 -10.661  16.251  0.00  0.00    +0.020 A 
ENDBRANCH  14  16
ENDBRANCH   4  14
TORSDOF 3
ENDMDL
MODEL 9
REMARK VINA RESULT:      -5.6     31.741     35.770
REMARK  Name = 75536984
REMARK  5 active torsions:
REMARK  status: ('A' for Active; 'I' for Inactive)
REMARK    1  A    between atoms: N_4  and  C_14
REMARK    2  A    between atoms: N_6  and  C_17
REMARK    3  A    between atoms: C_14  and  C_16
REMARK    4  A    between atoms: C_17  and  C_19
REMARK    5  A    between atoms: C_17  and  C_20
REMARK                            x       y       z     vdW  Elec       q    Type
REMARK                         _______ _______ _______ _____ _____    ______ ____
ROOT
ATOM      1  O   UNL     1      11.668   7.881  -0.306  0.00  0.00    -0.252 OA
ATOM      2  O   UNL     1      12.038   7.317   6.576  0.00  0.00    -0.253 OA
ATOM      3  N   UNL     1      11.208   7.105   1.863  0.00  0.00    -0.278 N 
ATOM      4  N   UNL     1      10.320   5.995   0.123  0.00  0.00    -0.278 N 
ATOM      5  N   UNL     1      11.709   6.353   4.494  0.00  0.00    -0.282 N 
ATOM      6  N   UNL     1      10.590   5.546   6.413  0.00  0.00    -0.297 N 
ATOM      8  C   UNL     1      10.353   6.096   2.468  0.00  0.00    +0.112 C 
ATOM      9  C   UNL     1       9.939   5.219   1.290  0.00  0.00    +0.133 C 
ATOM     10  C   UNL     1      11.104   5.365   3.577  0.00  0.00    +0.133 C 
ATOM     11  C   UNL     1      11.934   8.038   2.707  0.00  0.00    +0.128 C 
ATOM     12  C   UNL     1      12.639   7.286   3.835  0.00  0.00    +0.128 C 
ATOM     13  C   UNL     1      11.131   7.095   0.464  0.00  0.00    +0.306 C 
ATOM     15  C   UNL     1      11.485   6.462   5.875  0.00  0.00    +0.303 C 
ATOM     24  H   UNL     1      10.038   4.946   5.817  0.00  0.00    +0.150 HD
ENDROOT
BRANCH   6  17
ATOM     17  C   UNL     1      10.252   5.536   7.819  0.00  0.00    +0.068 C 
ATOM     19  C   UNL     1       9.832   4.138   8.252  0.00  0.00    +0.027 C 
ATOM     20  C   UNL     1       9.159   6.556   8.114  0.00  0.00    +0.027 C 
ENDBRANCH   6  17
BRANCH   4  14
ATOM     14  C   UNL     1      10.002   5.563  -1.220  0.00  0.00    +0.164 C 
BRANCH  14  16
ATOM      7  N   UNL     1      10.136   3.371  -2.258  0.00  0.00    -0.258 NA
ATOM     16  C   UNL     1      10.806   4.363  -1.630  0.00  0.00    +0.059 A 
ATOM     18  C   UNL     1      12.163   4.329  -1.355  0.00  0.00    +0.025 A 
ATOM     21  C   UNL     1      12.879   3.204  -1.748  0.00  0.00    +0.003 A 
ATOM     22  C   UNL     1      10.865   2.293  -2.626  0.00  0.00    +0.111 A 
ATOM     23  C   UNL     1      12.224   2.162  -2.397  0.00  0.00    +0.020 A 
ENDBRANCH  14  16
ENDBRANCH   4  14
TORSDOF 3
ENDMDL
MODEL 10
REMARK VINA RESULT:      -5.5     30.318     33.061
REMARK  Name = 75536984
REMARK  5 active torsions:
REMARK  status: ('A' for Active; 'I' for Inactive)
REMARK    1  A    between atoms: N_4  and  C_14
REMARK    2  A    between atoms: N_6  and  C_17
REMARK    3  A    between atoms: C_14  and  C_16
REMARK    4  A    between atoms: C_17  and  C_19
REMARK    5  A    between atoms: C_17  and  C_20
REMARK                            x       y       z     vdW  Elec       q    Type
REMARK                         _______ _______ _______ _____ _____    ______ ____
ROOT
ATOM      1  O   UNL     1      12.594  11.762  13.640  0.00  0.00    -0.252 OA
ATOM      2  O   UNL     1      13.010   7.007  18.643  0.00  0.00    -0.253 OA
ATOM      3  N   UNL     1      13.517  10.468  15.370  0.00  0.00    -0.278 N 
ATOM      4  N   UNL     1      14.705  12.208  14.592  0.00  0.00    -0.278 N 
ATOM      5  N   UNL     1      13.616   9.068  17.772  0.00  0.00    -0.282 N 
ATOM      6  N   UNL     1      15.113   7.804  19.094  0.00  0.00    -0.297 N 
ATOM      8  C   UNL     1      14.788  10.387  16.071  0.00  0.00    +0.112 C 
ATOM      9  C   UNL     1      15.489  11.691  15.699  0.00  0.00    +0.133 C 
ATOM     10  C   UNL     1      14.554  10.190  17.566  0.00  0.00    +0.133 C 
ATOM     11  C   UNL     1      12.493   9.466  15.612  0.00  0.00    +0.128 C 
ATOM     12  C   UNL     1      12.311   9.254  17.115  0.00  0.00    +0.128 C 
ATOM     13  C   UNL     1      13.493  11.509  14.432  0.00  0.00    +0.306 C 
ATOM     15  C   UNL     1      13.855   7.901  18.513  0.00  0.00    +0.303 C 
ATOM     24  H   UNL     1      15.842   8.466  18.870  0.00  0.00    +0.150 HD
ENDROOT
BRANCH   6  17
ATOM     17  C   UNL     1      15.510   6.659  19.883  0.00  0.00    +0.068 C 
ATOM     19  C   UNL     1      15.633   7.045  21.352  0.00  0.00    +0.027 C 
ATOM     20  C   UNL     1      16.813   6.072  19.356  0.00  0.00    +0.027 C 
ENDBRANCH   6  17
BRANCH   4  14
ATOM     14  C   UNL     1      15.098  13.395  13.865  0.00  0.00    +0.164 C 
BRANCH  14  16
ATOM      7  N   UNL     1      17.426  13.321  13.172  0.00  0.00    -0.258 NA
ATOM     16  C   UNL     1      16.138  13.097  12.823  0.00  0.00    +0.059 A 
ATOM     18  C   UNL     1      15.742  12.617  11.586  0.00  0.00    +0.025 A 
ATOM     21  C   UNL     1      16.730  12.350  10.644  0.00  0.00    +0.003 A 
ATOM     22  C   UNL     1      18.359  13.049  12.232  0.00  0.00    +0.111 A 
ATOM     23  C   UNL     1      18.066  12.568  10.966  0.00  0.00    +0.020 A 
ENDBRANCH  14  16
ENDBRANCH   4  14
TORSDOF 3
ENDMDL
