MODEL 1
REMARK VINA RESULT:      -8.0      0.000      0.000
REMARK  Name = 11886038
REMARK  8 active torsions:
REMARK  status: ('A' for Active; 'I' for Inactive)
REMARK    1  A    between atoms: S_1  and  C_18
REMARK    2  A    between atoms: S_1  and  C_19
REMARK    3  A    between atoms: O_4  and  C_15
REMARK    4  A    between atoms: O_4  and  C_24
REMARK    5  A    between atoms: O_6  and  C_30
REMARK    6  A    between atoms: O_6  and  C_31
REMARK    7  A    between atoms: N_7  and  C_14
REMARK    8  A    between atoms: N_11  and  C_25
REMARK                            x       y       z     vdW  Elec       q    Type
REMARK                         _______ _______ _______ _____ _____    ______ ____
ROOT
ATOM      2  O   UNL     1      -5.263 -10.242  17.751  0.00  0.00    -0.368 OA
ATOM      3  O   UNL     1      -6.365 -12.065  15.510  0.00  0.00    -0.368 OA
ATOM     12  C   UNL     1      -5.353 -11.033  15.512  0.00  0.00    +0.177 C 
ATOM     13  C   UNL     1      -5.830  -9.954  16.462  0.00  0.00    +0.192 C 
ATOM     14  C   UNL     1      -4.085 -11.568  16.148  0.00  0.00    +0.168 C 
ATOM     15  C   UNL     1      -7.329 -10.144  16.457  0.00  0.00    +0.235 C 
ATOM     16  C   UNL     1      -4.325 -11.323  17.634  0.00  0.00    +0.190 C 
ATOM     17  C   UNL     1      -7.457 -11.646  16.339  0.00  0.00    +0.207 C 
ENDROOT
BRANCH  14   7
ATOM      7  N   UNL     1      -2.877 -10.949  15.597  0.00  0.00    -0.212 N 
ATOM      8  N   UNL     1      -1.804 -10.749  16.376  0.00  0.00    -0.043 NA
ATOM      9  N   UNL     1      -1.402 -10.020  14.307  0.00  0.00    -0.101 NA
ATOM     10  N   UNL     1      -0.905 -10.182  15.581  0.00  0.00    -0.022 NA
ATOM     19  C   UNL     1      -2.623 -10.503  14.340  0.00  0.00    +0.210 A 
BRANCH  19   1
ATOM      1  S   UNL     1      -3.753 -10.584  13.046  0.00  0.00    -0.081 S 
BRANCH   1  18
ATOM     18  C   UNL     1      -2.657 -10.908  11.623  0.00  0.00    +0.054 C 
ATOM     20  C   UNL     1      -2.234  -9.613  10.937  0.00  0.00    +0.014 C 
ATOM     21  C   UNL     1      -3.388 -11.649  10.507  0.00  0.00    +0.014 C 
ATOM     22  C   UNL     1      -3.387  -9.259   9.998  0.00  0.00    +0.001 C 
ATOM     23  C   UNL     1      -4.131 -10.566   9.726  0.00  0.00    +0.001 C 
ENDBRANCH   1  18
ENDBRANCH  19   1
ENDBRANCH  14   7
BRANCH  15   4
ATOM      4  O   UNL     1      -7.964  -9.646  17.613  0.00  0.00    -0.442 OA
BRANCH   4  24
ATOM      5  O   UNL     1     -10.129  -9.297  18.260  0.00  0.00    -0.226 OA
ATOM     11  N   UNL     1      -9.278  -8.393  16.275  0.00  0.00    -0.251 N 
ATOM     24  C   UNL     1      -9.228  -9.118  17.450  0.00  0.00    +0.405 C 
ATOM     37  H   UNL     1      -8.420  -8.358  15.731  0.00  0.00    +0.158 HD
BRANCH  11  25
ATOM     25  C   UNL     1     -10.379  -7.691  15.732  0.00  0.00    +0.037 A 
ATOM     26  C   UNL     1     -11.015  -8.171  14.587  0.00  0.00    +0.027 A 
ATOM     27  C   UNL     1     -10.829  -6.520  16.342  0.00  0.00    +0.027 A 
ATOM     28  C   UNL     1     -12.102  -7.479  14.052  0.00  0.00    +0.048 A 
ATOM     29  C   UNL     1     -11.916  -5.829  15.807  0.00  0.00    +0.048 A 
ATOM     30  C   UNL     1     -12.552  -6.308  14.662  0.00  0.00    +0.129 A 
BRANCH  30   6
ATOM      6  O   UNL     1     -13.614  -5.634  14.142  0.00  0.00    -0.456 OA
BRANCH   6  31
ATOM     31  C   UNL     1     -13.434  -4.982  12.934  0.00  0.00    +0.128 A 
ATOM     32  C   UNL     1     -12.399  -4.058  12.788  0.00  0.00    +0.046 A 
ATOM     33  C   UNL     1     -14.286  -5.249  11.863  0.00  0.00    +0.046 A 
ATOM     34  C   UNL     1     -12.218  -3.399  11.573  0.00  0.00    +0.004 A 
ATOM     35  C   UNL     1     -14.105  -4.591  10.647  0.00  0.00    +0.004 A 
ATOM     36  C   UNL     1     -13.070  -3.667  10.501  0.00  0.00    +0.000 A 
ENDBRANCH   6  31
ENDBRANCH  30   6
ENDBRANCH  11  25
ENDBRANCH   4  24
ENDBRANCH  15   4
TORSDOF 8
ENDMDL
MODEL 2
REMARK VINA RESULT:      -7.8     17.893     20.247
REMARK  Name = 11886038
REMARK  8 active torsions:
REMARK  status: ('A' for Active; 'I' for Inactive)
REMARK    1  A    between atoms: S_1  and  C_18
REMARK    2  A    between atoms: S_1  and  C_19
REMARK    3  A    between atoms: O_4  and  C_15
REMARK    4  A    between atoms: O_4  and  C_24
REMARK    5  A    between atoms: O_6  and  C_30
REMARK    6  A    between atoms: O_6  and  C_31
REMARK    7  A    between atoms: N_7  and  C_14
REMARK    8  A    between atoms: N_11  and  C_25
REMARK                            x       y       z     vdW  Elec       q    Type
REMARK                         _______ _______ _______ _____ _____    ______ ____
ROOT
ATOM      2  O   UNL     1     -18.252   4.860  24.717  0.00  0.00    -0.368 OA
ATOM      3  O   UNL     1     -16.273   2.491  24.554  0.00  0.00    -0.368 OA
ATOM     12  C   UNL     1     -16.650   3.367  25.640  0.00  0.00    +0.177 C 
ATOM     13  C   UNL     1     -16.857   4.744  25.039  0.00  0.00    +0.192 C 
ATOM     14  C   UNL     1     -18.016   2.970  26.161  0.00  0.00    +0.168 C 
ATOM     15  C   UNL     1     -15.999   4.697  23.796  0.00  0.00    +0.235 C 
ATOM     16  C   UNL     1     -18.963   3.725  25.234  0.00  0.00    +0.190 C 
ATOM     17  C   UNL     1     -16.166   3.263  23.350  0.00  0.00    +0.207 C 
ENDROOT
BRANCH  14   7
ATOM      7  N   UNL     1     -18.177   3.255  27.589  0.00  0.00    -0.212 N 
ATOM      8  N   UNL     1     -18.979   4.251  27.994  0.00  0.00    -0.043 NA
ATOM      9  N   UNL     1     -18.050   3.243  29.753  0.00  0.00    -0.101 NA
ATOM     10  N   UNL     1     -18.898   4.237  29.319  0.00  0.00    -0.022 NA
ATOM     19  C   UNL     1     -17.616   2.647  28.666  0.00  0.00    +0.210 A 
BRANCH  19   1
ATOM      1  S   UNL     1     -16.527   1.321  28.561  0.00  0.00    -0.081 S 
BRANCH   1  18
ATOM     18  C   UNL     1     -15.964   1.172  30.290  0.00  0.00    +0.054 C 
ATOM     20  C   UNL     1     -14.740   2.041  30.557  0.00  0.00    +0.014 C 
ATOM     21  C   UNL     1     -15.444  -0.231  30.593  0.00  0.00    +0.014 C 
ATOM     22  C   UNL     1     -13.546   1.219  30.074  0.00  0.00    +0.001 C 
ATOM     23  C   UNL     1     -14.000  -0.241  30.092  0.00  0.00    +0.001 C 
ENDBRANCH   1  18
ENDBRANCH  19   1
ENDBRANCH  14   7
BRANCH  15   4
ATOM      4  O   UNL     1     -16.399   5.612  22.801  0.00  0.00    -0.442 OA
BRANCH   4  24
ATOM      5  O   UNL     1     -15.527   5.348  20.704  0.00  0.00    -0.226 OA
ATOM     11  N   UNL     1     -14.577   6.823  22.254  0.00  0.00    -0.251 N 
ATOM     24  C   UNL     1     -15.486   5.886  21.803  0.00  0.00    +0.405 C 
ATOM     37  H   UNL     1     -14.707   7.156  23.206  0.00  0.00    +0.158 HD
BRANCH  11  25
ATOM     25  C   UNL     1     -13.482   7.379  21.553  0.00  0.00    +0.037 A 
ATOM     26  C   UNL     1     -12.416   6.567  21.166  0.00  0.00    +0.027 A 
ATOM     27  C   UNL     1     -13.469   8.740  21.246  0.00  0.00    +0.027 A 
ATOM     28  C   UNL     1     -11.337   7.115  20.473  0.00  0.00    +0.048 A 
ATOM     29  C   UNL     1     -12.390   9.289  20.553  0.00  0.00    +0.048 A 
ATOM     30  C   UNL     1     -11.324   8.476  20.167  0.00  0.00    +0.129 A 
BRANCH  30   6
ATOM      6  O   UNL     1     -10.273   9.012  19.489  0.00  0.00    -0.456 OA
BRANCH   6  31
ATOM     31  C   UNL     1     -10.418   9.209  18.126  0.00  0.00    +0.128 A 
ATOM     32  C   UNL     1     -10.578   8.115  17.276  0.00  0.00    +0.046 A 
ATOM     33  C   UNL     1     -10.404  10.502  17.602  0.00  0.00    +0.046 A 
ATOM     34  C   UNL     1     -10.723   8.312  15.904  0.00  0.00    +0.004 A 
ATOM     35  C   UNL     1     -10.549  10.700  16.230  0.00  0.00    +0.004 A 
ATOM     36  C   UNL     1     -10.710   9.605  15.380  0.00  0.00    +0.000 A 
ENDBRANCH   6  31
ENDBRANCH  30   6
ENDBRANCH  11  25
ENDBRANCH   4  24
ENDBRANCH  15   4
TORSDOF 8
ENDMDL
MODEL 3
REMARK VINA RESULT:      -7.7     28.117     32.496
REMARK  Name = 11886038
REMARK  8 active torsions:
REMARK  status: ('A' for Active; 'I' for Inactive)
REMARK    1  A    between atoms: S_1  and  C_18
REMARK    2  A    between atoms: S_1  and  C_19
REMARK    3  A    between atoms: O_4  and  C_15
REMARK    4  A    between atoms: O_4  and  C_24
REMARK    5  A    between atoms: O_6  and  C_30
REMARK    6  A    between atoms: O_6  and  C_31
REMARK    7  A    between atoms: N_7  and  C_14
REMARK    8  A    between atoms: N_11  and  C_25
REMARK                            x       y       z     vdW  Elec       q    Type
REMARK                         _______ _______ _______ _____ _____    ______ ____
ROOT
ATOM      2  O   UNL     1      16.697   8.295  20.976  0.00  0.00    -0.368 OA
ATOM      3  O   UNL     1      16.652   5.868  19.062  0.00  0.00    -0.368 OA
ATOM     12  C   UNL     1      15.745   6.302  20.100  0.00  0.00    +0.177 C 
ATOM     13  C   UNL     1      16.598   6.881  21.212  0.00  0.00    +0.192 C 
ATOM     14  C   UNL     1      14.925   7.473  19.600  0.00  0.00    +0.168 C 
ATOM     15  C   UNL     1      17.924   6.187  21.011  0.00  0.00    +0.235 C 
ATOM     16  C   UNL     1      15.825   8.667  19.899  0.00  0.00    +0.190 C 
ATOM     17  C   UNL     1      18.000   6.079  19.505  0.00  0.00    +0.207 C 
ENDROOT
BRANCH  14   7
ATOM      7  N   UNL     1      13.592   7.525  20.205  0.00  0.00    -0.212 N 
ATOM      8  N   UNL     1      13.456   7.609  21.537  0.00  0.00    -0.043 NA
ATOM      9  N   UNL     1      11.453   7.566  20.558  0.00  0.00    -0.101 NA
ATOM     10  N   UNL     1      12.146   7.635  21.746  0.00  0.00    -0.022 NA
ATOM     19  C   UNL     1      12.367   7.500  19.618  0.00  0.00    +0.210 A 
BRANCH  19   1
ATOM      1  S   UNL     1      12.119   7.398  17.920  0.00  0.00    -0.081 S 
BRANCH   1  18
ATOM     18  C   UNL     1      11.786   9.142  17.494  0.00  0.00    +0.054 C 
ATOM     20  C   UNL     1      11.818   9.364  15.986  0.00  0.00    +0.014 C 
ATOM     21  C   UNL     1      12.898  10.063  17.986  0.00  0.00    +0.014 C 
ATOM     22  C   UNL     1      13.295   9.537  15.633  0.00  0.00    +0.001 C 
ATOM     23  C   UNL     1      13.989   9.981  16.920  0.00  0.00    +0.001 C 
ENDBRANCH   1  18
ENDBRANCH  19   1
ENDBRANCH  14   7
BRANCH  15   4
ATOM      4  O   UNL     1      19.018   6.896  21.548  0.00  0.00    -0.442 OA
BRANCH   4  24
ATOM      5  O   UNL     1      20.414   6.029  23.138  0.00  0.00    -0.226 OA
ATOM     11  N   UNL     1      20.729   5.599  20.858  0.00  0.00    -0.251 N 
ATOM     24  C   UNL     1      20.103   6.149  21.959  0.00  0.00    +0.405 C 
ATOM     37  H   UNL     1      20.319   5.814  19.952  0.00  0.00    +0.158 HD
BRANCH  11  25
ATOM     25  C   UNL     1      21.873   4.769  20.832  0.00  0.00    +0.037 A 
ATOM     26  C   UNL     1      23.111   5.301  20.470  0.00  0.00    +0.027 A 
ATOM     27  C   UNL     1      21.765   3.420  21.170  0.00  0.00    +0.027 A 
ATOM     28  C   UNL     1      24.241   4.483  20.447  0.00  0.00    +0.048 A 
ATOM     29  C   UNL     1      22.895   2.603  21.146  0.00  0.00    +0.048 A 
ATOM     30  C   UNL     1      24.133   3.134  20.785  0.00  0.00    +0.129 A 
BRANCH  30   6
ATOM      6  O   UNL     1      25.235   2.336  20.764  0.00  0.00    -0.456 OA
BRANCH   6  31
ATOM     31  C   UNL     1      25.603   1.715  21.945  0.00  0.00    +0.128 A 
ATOM     32  C   UNL     1      25.572   0.323  22.040  0.00  0.00    +0.046 A 
ATOM     33  C   UNL     1      26.007   2.480  23.040  0.00  0.00    +0.046 A 
ATOM     34  C   UNL     1      25.942  -0.303  23.229  0.00  0.00    +0.004 A 
ATOM     35  C   UNL     1      26.377   1.853  24.229  0.00  0.00    +0.004 A 
ATOM     36  C   UNL     1      26.345   0.461  24.324  0.00  0.00    +0.000 A 
ENDBRANCH   6  31
ENDBRANCH  30   6
ENDBRANCH  11  25
ENDBRANCH   4  24
ENDBRANCH  15   4
TORSDOF 8
ENDMDL
MODEL 4
REMARK VINA RESULT:      -7.5      4.066      4.888
REMARK  Name = 11886038
REMARK  8 active torsions:
REMARK  status: ('A' for Active; 'I' for Inactive)
REMARK    1  A    between atoms: S_1  and  C_18
REMARK    2  A    between atoms: S_1  and  C_19
REMARK    3  A    between atoms: O_4  and  C_15
REMARK    4  A    between atoms: O_4  and  C_24
REMARK    5  A    between atoms: O_6  and  C_30
REMARK    6  A    between atoms: O_6  and  C_31
REMARK    7  A    between atoms: N_7  and  C_14
REMARK    8  A    between atoms: N_11  and  C_25
REMARK                            x       y       z     vdW  Elec       q    Type
REMARK                         _______ _______ _______ _____ _____    ______ ____
ROOT
ATOM      2  O   UNL     1      -5.337 -10.515  17.345  0.00  0.00    -0.368 OA
ATOM      3  O   UNL     1      -6.850 -11.186  14.734  0.00  0.00    -0.368 OA
ATOM     12  C   UNL     1      -5.643 -10.435  14.990  0.00  0.00    +0.177 C 
ATOM     13  C   UNL     1      -5.859  -9.689  16.292  0.00  0.00    +0.192 C 
ATOM     14  C   UNL     1      -4.504 -11.390  15.284  0.00  0.00    +0.168 C 
ATOM     15  C   UNL     1      -7.364  -9.575  16.365  0.00  0.00    +0.235 C 
ATOM     16  C   UNL     1      -4.653 -11.643  16.780  0.00  0.00    +0.190 C 
ATOM     17  C   UNL     1      -7.810 -10.885  15.757  0.00  0.00    +0.207 C 
ENDROOT
BRANCH  14   7
ATOM      7  N   UNL     1      -3.204 -10.860  14.864  0.00  0.00    -0.212 N 
ATOM      8  N   UNL     1      -2.349 -10.366  15.771  0.00  0.00    -0.043 NA
ATOM      9  N   UNL     1      -1.472 -10.222  13.726  0.00  0.00    -0.101 NA
ATOM     10  N   UNL     1      -1.292  -9.978  15.069  0.00  0.00    -0.022 NA
ATOM     19  C   UNL     1      -2.662 -10.769  13.622  0.00  0.00    +0.210 A 
BRANCH  19   1
ATOM      1  S   UNL     1      -3.450 -11.299  12.189  0.00  0.00    -0.081 S 
BRANCH   1  18
ATOM     18  C   UNL     1      -4.089  -9.726  11.519  0.00  0.00    +0.054 C 
ATOM     20  C   UNL     1      -5.572  -9.827  11.176  0.00  0.00    +0.014 C 
ATOM     21  C   UNL     1      -3.460  -9.394  10.169  0.00  0.00    +0.014 C 
ATOM     22  C   UNL     1      -5.623 -10.465   9.788  0.00  0.00    +0.001 C 
ATOM     23  C   UNL     1      -4.265 -10.190   9.144  0.00  0.00    +0.001 C 
ENDBRANCH   1  18
ENDBRANCH  19   1
ENDBRANCH  14   7
BRANCH  15   4
ATOM      4  O   UNL     1      -7.853  -9.404  17.675  0.00  0.00    -0.442 OA
BRANCH   4  24
ATOM      5  O   UNL     1      -9.597  -7.980  17.275  0.00  0.00    -0.226 OA
ATOM     11  N   UNL     1      -9.854  -9.901  18.589  0.00  0.00    -0.251 N 
ATOM     24  C   UNL     1      -9.165  -8.998  17.803  0.00  0.00    +0.405 C 
ATOM     37  H   UNL     1      -9.320 -10.692  18.940  0.00  0.00    +0.158 HD
BRANCH  11  25
ATOM     25  C   UNL     1     -11.216  -9.863  18.968  0.00  0.00    +0.037 A 
ATOM     26  C   UNL     1     -11.563  -9.842  20.318  0.00  0.00    +0.027 A 
ATOM     27  C   UNL     1     -12.212  -9.845  17.991  0.00  0.00    +0.027 A 
ATOM     28  C   UNL     1     -12.906  -9.803  20.692  0.00  0.00    +0.048 A 
ATOM     29  C   UNL     1     -13.555  -9.806  18.365  0.00  0.00    +0.048 A 
ATOM     30  C   UNL     1     -13.902  -9.785  19.716  0.00  0.00    +0.129 A 
BRANCH  30   6
ATOM      6  O   UNL     1     -15.213  -9.745  20.080  0.00  0.00    -0.456 OA
BRANCH   6  31
ATOM     31  C   UNL     1     -15.802  -8.501  20.230  0.00  0.00    +0.128 A 
ATOM     32  C   UNL     1     -15.833  -7.891  21.484  0.00  0.00    +0.046 A 
ATOM     33  C   UNL     1     -16.364  -7.857  19.128  0.00  0.00    +0.046 A 
ATOM     34  C   UNL     1     -16.427  -6.639  21.637  0.00  0.00    +0.004 A 
ATOM     35  C   UNL     1     -16.958  -6.605  19.281  0.00  0.00    +0.004 A 
ATOM     36  C   UNL     1     -16.989  -5.995  20.535  0.00  0.00    +0.000 A 
ENDBRANCH   6  31
ENDBRANCH  30   6
ENDBRANCH  11  25
ENDBRANCH   4  24
ENDBRANCH  15   4
TORSDOF 8
ENDMDL
MODEL 5
REMARK VINA RESULT:      -7.4      4.107      7.815
REMARK  Name = 11886038
REMARK  8 active torsions:
REMARK  status: ('A' for Active; 'I' for Inactive)
REMARK    1  A    between atoms: S_1  and  C_18
REMARK    2  A    between atoms: S_1  and  C_19
REMARK    3  A    between atoms: O_4  and  C_15
REMARK    4  A    between atoms: O_4  and  C_24
REMARK    5  A    between atoms: O_6  and  C_30
REMARK    6  A    between atoms: O_6  and  C_31
REMARK    7  A    between atoms: N_7  and  C_14
REMARK    8  A    between atoms: N_11  and  C_25
REMARK                            x       y       z     vdW  Elec       q    Type
REMARK                         _______ _______ _______ _____ _____    ______ ____
ROOT
ATOM      2  O   UNL     1      -4.785 -10.019  15.622  0.00  0.00    -0.368 OA
ATOM      3  O   UNL     1      -4.389 -13.085  15.676  0.00  0.00    -0.368 OA
ATOM     12  C   UNL     1      -4.577 -12.112  16.728  0.00  0.00    +0.177 C 
ATOM     13  C   UNL     1      -3.838 -10.859  16.302  0.00  0.00    +0.192 C 
ATOM     14  C   UNL     1      -6.033 -11.696  16.780  0.00  0.00    +0.168 C 
ATOM     15  C   UNL     1      -2.788 -11.395  15.358  0.00  0.00    +0.235 C 
ATOM     16  C   UNL     1      -6.101 -10.578  15.745  0.00  0.00    +0.190 C 
ATOM     17  C   UNL     1      -3.523 -12.527  14.677  0.00  0.00    +0.207 C 
ENDROOT
BRANCH  14   7
ATOM      7  N   UNL     1      -6.465 -11.329  18.130  0.00  0.00    -0.212 N 
ATOM      8  N   UNL     1      -5.561 -11.154  19.105  0.00  0.00    -0.043 NA
ATOM      9  N   UNL     1      -7.620 -10.809  19.890  0.00  0.00    -0.101 NA
ATOM     10  N   UNL     1      -6.273 -10.835  20.179  0.00  0.00    -0.022 NA
ATOM     19  C   UNL     1      -7.715 -11.117  18.617  0.00  0.00    +0.210 A 
BRANCH  19   1
ATOM      1  S   UNL     1      -9.146 -11.243  17.674  0.00  0.00    -0.081 S 
BRANCH   1  18
ATOM     18  C   UNL     1      -9.925  -9.619  17.970  0.00  0.00    +0.054 C 
ATOM     20  C   UNL     1     -11.322  -9.550  17.362  0.00  0.00    +0.014 C 
ATOM     21  C   UNL     1      -9.190  -8.501  17.237  0.00  0.00    +0.014 C 
ATOM     22  C   UNL     1     -11.105  -9.202  15.890  0.00  0.00    +0.001 C 
ATOM     23  C   UNL     1      -9.734  -8.532  15.809  0.00  0.00    +0.001 C 
ENDBRANCH   1  18
ENDBRANCH  19   1
ENDBRANCH  14   7
BRANCH  15   4
ATOM      4  O   UNL     1      -2.317 -10.438  14.437  0.00  0.00    -0.442 OA
BRANCH   4  24
ATOM      5  O   UNL     1      -1.637 -11.411  12.482  0.00  0.00    -0.226 OA
ATOM     11  N   UNL     1      -3.623 -10.178  12.617  0.00  0.00    -0.251 N 
ATOM     24  C   UNL     1      -2.456 -10.740  13.098  0.00  0.00    +0.405 C 
ATOM     37  H   UNL     1      -4.178  -9.651  13.287  0.00  0.00    +0.158 HD
BRANCH  11  25
ATOM     25  C   UNL     1      -4.144 -10.244  11.305  0.00  0.00    +0.037 A 
ATOM     26  C   UNL     1      -5.120 -11.190  10.989  0.00  0.00    +0.027 A 
ATOM     27  C   UNL     1      -3.684  -9.363  10.326  0.00  0.00    +0.027 A 
ATOM     28  C   UNL     1      -5.635 -11.254   9.695  0.00  0.00    +0.048 A 
ATOM     29  C   UNL     1      -4.200  -9.427   9.032  0.00  0.00    +0.048 A 
ATOM     30  C   UNL     1      -5.175 -10.373   8.716  0.00  0.00    +0.129 A 
BRANCH  30   6
ATOM      6  O   UNL     1      -5.679 -10.434   7.453  0.00  0.00    -0.456 OA
BRANCH   6  31
ATOM     31  C   UNL     1      -6.551  -9.433   7.058  0.00  0.00    +0.128 A 
ATOM     32  C   UNL     1      -6.728  -9.158   5.702  0.00  0.00    +0.046 A 
ATOM     33  C   UNL     1      -7.253  -8.701   8.016  0.00  0.00    +0.046 A 
ATOM     34  C   UNL     1      -7.605  -8.150   5.303  0.00  0.00    +0.004 A 
ATOM     35  C   UNL     1      -8.130  -7.694   7.617  0.00  0.00    +0.004 A 
ATOM     36  C   UNL     1      -8.307  -7.418   6.261  0.00  0.00    +0.000 A 
ENDBRANCH   6  31
ENDBRANCH  30   6
ENDBRANCH  11  25
ENDBRANCH   4  24
ENDBRANCH  15   4
TORSDOF 8
ENDMDL
MODEL 6
REMARK VINA RESULT:      -7.2      4.042      8.469
REMARK  Name = 11886038
REMARK  8 active torsions:
REMARK  status: ('A' for Active; 'I' for Inactive)
REMARK    1  A    between atoms: S_1  and  C_18
REMARK    2  A    between atoms: S_1  and  C_19
REMARK    3  A    between atoms: O_4  and  C_15
REMARK    4  A    between atoms: O_4  and  C_24
REMARK    5  A    between atoms: O_6  and  C_30
REMARK    6  A    between atoms: O_6  and  C_31
REMARK    7  A    between atoms: N_7  and  C_14
REMARK    8  A    between atoms: N_11  and  C_25
REMARK                            x       y       z     vdW  Elec       q    Type
REMARK                         _______ _______ _______ _____ _____    ______ ____
ROOT
ATOM      2  O   UNL     1      -4.489 -10.154  15.501  0.00  0.00    -0.368 OA
ATOM      3  O   UNL     1      -4.657 -13.241  15.477  0.00  0.00    -0.368 OA
ATOM     12  C   UNL     1      -4.679 -12.277  16.553  0.00  0.00    +0.177 C 
ATOM     13  C   UNL     1      -3.719 -11.168  16.167  0.00  0.00    +0.192 C 
ATOM     14  C   UNL     1      -6.036 -11.604  16.603  0.00  0.00    +0.168 C 
ATOM     15  C   UNL     1      -2.772 -11.864  15.218  0.00  0.00    +0.235 C 
ATOM     16  C   UNL     1      -5.886 -10.467  15.598  0.00  0.00    +0.190 C 
ATOM     17  C   UNL     1      -3.691 -12.826  14.501  0.00  0.00    +0.207 C 
ENDROOT
BRANCH  14   7
ATOM      7  N   UNL     1      -6.411 -11.197  17.960  0.00  0.00    -0.212 N 
ATOM      8  N   UNL     1      -5.495 -11.178  18.938  0.00  0.00    -0.043 NA
ATOM      9  N   UNL     1      -7.480 -10.537  19.727  0.00  0.00    -0.101 NA
ATOM     10  N   UNL     1      -6.155 -10.772  20.016  0.00  0.00    -0.022 NA
ATOM     19  C   UNL     1      -7.617 -10.805  18.449  0.00  0.00    +0.210 A 
BRANCH  19   1
ATOM      1  S   UNL     1      -9.047 -10.697  17.501  0.00  0.00    -0.081 S 
BRANCH   1  18
ATOM     18  C   UNL     1      -8.897  -9.018  16.802  0.00  0.00    +0.054 C 
ATOM     20  C   UNL     1      -9.868  -8.047  17.466  0.00  0.00    +0.014 C 
ATOM     21  C   UNL     1      -9.336  -8.976  15.341  0.00  0.00    +0.014 C 
ATOM     22  C   UNL     1     -11.200  -8.252  16.746  0.00  0.00    +0.001 C 
ATOM     23  C   UNL     1     -10.859  -8.853  15.383  0.00  0.00    +0.001 C 
ENDBRANCH   1  18
ENDBRANCH  19   1
ENDBRANCH  14   7
BRANCH  15   4
ATOM      4  O   UNL     1      -2.122 -10.986  14.326  0.00  0.00    -0.442 OA
BRANCH   4  24
ATOM      5  O   UNL     1      -1.835 -11.925  12.261  0.00  0.00    -0.226 OA
ATOM     11  N   UNL     1      -3.432 -10.256  12.642  0.00  0.00    -0.251 N 
ATOM     24  C   UNL     1      -2.418 -11.129  12.986  0.00  0.00    +0.405 C 
ATOM     37  H   UNL     1      -3.793  -9.668  13.389  0.00  0.00    +0.158 HD
BRANCH  11  25
ATOM     25  C   UNL     1      -4.035 -10.079  11.375  0.00  0.00    +0.037 A 
ATOM     26  C   UNL     1      -3.488  -9.176  10.464  0.00  0.00    +0.027 A 
ATOM     27  C   UNL     1      -5.174 -10.809  11.036  0.00  0.00    +0.027 A 
ATOM     28  C   UNL     1      -4.081  -9.002   9.214  0.00  0.00    +0.048 A 
ATOM     29  C   UNL     1      -5.767 -10.635   9.785  0.00  0.00    +0.048 A 
ATOM     30  C   UNL     1      -5.220  -9.732   8.874  0.00  0.00    +0.129 A 
BRANCH  30   6
ATOM      6  O   UNL     1      -5.798  -9.564   7.653  0.00  0.00    -0.456 OA
BRANCH   6  31
ATOM     31  C   UNL     1      -5.506 -10.493   6.669  0.00  0.00    +0.128 A 
ATOM     32  C   UNL     1      -6.255 -10.521   5.493  0.00  0.00    +0.046 A 
ATOM     33  C   UNL     1      -4.462 -11.400   6.853  0.00  0.00    +0.046 A 
ATOM     34  C   UNL     1      -5.963 -11.457   4.501  0.00  0.00    +0.004 A 
ATOM     35  C   UNL     1      -4.169 -12.336   5.861  0.00  0.00    +0.004 A 
ATOM     36  C   UNL     1      -4.919 -12.364   4.685  0.00  0.00    +0.000 A 
ENDBRANCH   6  31
ENDBRANCH  30   6
ENDBRANCH  11  25
ENDBRANCH   4  24
ENDBRANCH  15   4
TORSDOF 8
ENDMDL
MODEL 7
REMARK VINA RESULT:      -7.2     29.291     32.178
REMARK  Name = 11886038
REMARK  8 active torsions:
REMARK  status: ('A' for Active; 'I' for Inactive)
REMARK    1  A    between atoms: S_1  and  C_18
REMARK    2  A    between atoms: S_1  and  C_19
REMARK    3  A    between atoms: O_4  and  C_15
REMARK    4  A    between atoms: O_4  and  C_24
REMARK    5  A    between atoms: O_6  and  C_30
REMARK    6  A    between atoms: O_6  and  C_31
REMARK    7  A    between atoms: N_7  and  C_14
REMARK    8  A    between atoms: N_11  and  C_25
REMARK                            x       y       z     vdW  Elec       q    Type
REMARK                         _______ _______ _______ _____ _____    ______ ____
ROOT
ATOM      2  O   UNL     1      23.447   6.583  20.763  0.00  0.00    -0.368 OA
ATOM      3  O   UNL     1      23.148   4.591  23.108  0.00  0.00    -0.368 OA
ATOM     12  C   UNL     1      23.670   4.442  21.768  0.00  0.00    +0.177 C 
ATOM     13  C   UNL     1      22.807   5.301  20.865  0.00  0.00    +0.192 C 
ATOM     14  C   UNL     1      25.047   5.069  21.688  0.00  0.00    +0.168 C 
ATOM     15  C   UNL     1      21.506   5.384  21.627  0.00  0.00    +0.235 C 
ATOM     16  C   UNL     1      24.735   6.533  21.394  0.00  0.00    +0.190 C 
ATOM     17  C   UNL     1      21.981   5.424  23.061  0.00  0.00    +0.207 C 
ENDROOT
BRANCH  14   7
ATOM      7  N   UNL     1      25.911   4.404  20.710  0.00  0.00    -0.212 N 
ATOM      8  N   UNL     1      25.954   4.834  19.441  0.00  0.00    -0.043 NA
ATOM      9  N   UNL     1      27.318   3.090  19.711  0.00  0.00    -0.101 NA
ATOM     10  N   UNL     1      26.816   4.028  18.835  0.00  0.00    -0.022 NA
ATOM     19  C   UNL     1      26.745   3.342  20.865  0.00  0.00    +0.210 A 
BRANCH  19   1
ATOM      1  S   UNL     1      26.971   2.509  22.352  0.00  0.00    -0.081 S 
BRANCH   1  18
ATOM     18  C   UNL     1      26.216   0.889  21.982  0.00  0.00    +0.054 C 
ATOM     20  C   UNL     1      24.715   1.013  21.746  0.00  0.00    +0.014 C 
ATOM     21  C   UNL     1      26.284  -0.050  23.183  0.00  0.00    +0.014 C 
ATOM     22  C   UNL     1      24.085   1.014  23.138  0.00  0.00    +0.001 C 
ATOM     23  C   UNL     1      25.095   0.335  24.062  0.00  0.00    +0.001 C 
ENDBRANCH   1  18
ENDBRANCH  19   1
ENDBRANCH  14   7
BRANCH  15   4
ATOM      4  O   UNL     1      20.729   6.512  21.293  0.00  0.00    -0.442 OA
BRANCH   4  24
ATOM      5  O   UNL     1      19.262   5.247  20.078  0.00  0.00    -0.226 OA
ATOM     11  N   UNL     1      18.666   7.346  20.927  0.00  0.00    -0.251 N 
ATOM     24  C   UNL     1      19.507   6.274  20.700  0.00  0.00    +0.405 C 
ATOM     37  H   UNL     1      19.053   8.114  21.471  0.00  0.00    +0.158 HD
BRANCH  11  25
ATOM     25  C   UNL     1      17.330   7.510  20.497  0.00  0.00    +0.037 A 
ATOM     26  C   UNL     1      16.760   6.583  19.625  0.00  0.00    +0.027 A 
ATOM     27  C   UNL     1      16.580   8.597  20.947  0.00  0.00    +0.027 A 
ATOM     28  C   UNL     1      15.440   6.744  19.202  0.00  0.00    +0.048 A 
ATOM     29  C   UNL     1      15.261   8.758  20.524  0.00  0.00    +0.048 A 
ATOM     30  C   UNL     1      14.691   7.831  19.651  0.00  0.00    +0.129 A 
BRANCH  30   6
ATOM      6  O   UNL     1      13.403   7.987  19.240  0.00  0.00    -0.456 OA
BRANCH   6  31
ATOM     31  C   UNL     1      12.403   7.847  20.188  0.00  0.00    +0.128 A 
ATOM     32  C   UNL     1      11.737   8.974  20.670  0.00  0.00    +0.046 A 
ATOM     33  C   UNL     1      12.061   6.580  20.660  0.00  0.00    +0.046 A 
ATOM     34  C   UNL     1      10.730   8.834  21.625  0.00  0.00    +0.004 A 
ATOM     35  C   UNL     1      11.054   6.440  21.614  0.00  0.00    +0.004 A 
ATOM     36  C   UNL     1      10.388   7.567  22.097  0.00  0.00    +0.000 A 
ENDBRANCH   6  31
ENDBRANCH  30   6
ENDBRANCH  11  25
ENDBRANCH   4  24
ENDBRANCH  15   4
TORSDOF 8
ENDMDL
MODEL 8
REMARK VINA RESULT:      -7.2     29.107     32.056
REMARK  Name = 11886038
REMARK  8 active torsions:
REMARK  status: ('A' for Active; 'I' for Inactive)
REMARK    1  A    between atoms: S_1  and  C_18
REMARK    2  A    between atoms: S_1  and  C_19
REMARK    3  A    between atoms: O_4  and  C_15
REMARK    4  A    between atoms: O_4  and  C_24
REMARK    5  A    between atoms: O_6  and  C_30
REMARK    6  A    between atoms: O_6  and  C_31
REMARK    7  A    between atoms: N_7  and  C_14
REMARK    8  A    between atoms: N_11  and  C_25
REMARK                            x       y       z     vdW  Elec       q    Type
REMARK                         _______ _______ _______ _____ _____    ______ ____
ROOT
ATOM      2  O   UNL     1      23.133   6.487  21.933  0.00  0.00    -0.368 OA
ATOM      3  O   UNL     1      22.226   5.092  24.539  0.00  0.00    -0.368 OA
ATOM     12  C   UNL     1      22.372   4.615  23.182  0.00  0.00    +0.177 C 
ATOM     13  C   UNL     1      21.947   5.750  22.271  0.00  0.00    +0.192 C 
ATOM     14  C   UNL     1      23.841   4.407  22.873  0.00  0.00    +0.168 C 
ATOM     15  C   UNL     1      21.020   6.555  23.151  0.00  0.00    +0.235 C 
ATOM     16  C   UNL     1      24.290   5.794  22.424  0.00  0.00    +0.190 C 
ATOM     17  C   UNL     1      21.671   6.414  24.508  0.00  0.00    +0.207 C 
ENDROOT
BRANCH  14   7
ATOM      7  N   UNL     1      24.064   3.331  21.904  0.00  0.00    -0.212 N 
ATOM      8  N   UNL     1      24.322   3.619  20.620  0.00  0.00    -0.043 NA
ATOM      9  N   UNL     1      24.304   1.410  20.927  0.00  0.00    -0.101 NA
ATOM     10  N   UNL     1      24.469   2.441  20.028  0.00  0.00    -0.022 NA
ATOM     19  C   UNL     1      24.054   1.985  22.081  0.00  0.00    +0.210 A 
BRANCH  19   1
ATOM      1  S   UNL     1      23.761   1.218  23.592  0.00  0.00    -0.081 S 
BRANCH   1  18
ATOM     18  C   UNL     1      25.424   1.239  24.343  0.00  0.00    +0.054 C 
ATOM     20  C   UNL     1      26.505   0.913  23.317  0.00  0.00    +0.014 C 
ATOM     21  C   UNL     1      25.593   0.120  25.367  0.00  0.00    +0.014 C 
ATOM     22  C   UNL     1      26.537  -0.613  23.236  0.00  0.00    +0.001 C 
ATOM     23  C   UNL     1      25.947  -1.122  24.551  0.00  0.00    +0.001 C 
ENDBRANCH   1  18
ENDBRANCH  19   1
ENDBRANCH  14   7
BRANCH  15   4
ATOM      4  O   UNL     1      20.899   7.903  22.757  0.00  0.00    -0.442 OA
BRANCH   4  24
ATOM      5  O   UNL     1      19.977   9.150  21.076  0.00  0.00    -0.226 OA
ATOM     11  N   UNL     1      18.886   7.275  21.957  0.00  0.00    -0.251 N 
ATOM     24  C   UNL     1      19.908   8.199  21.845  0.00  0.00    +0.405 C 
ATOM     37  H   UNL     1      19.010   6.550  22.660  0.00  0.00    +0.158 HD
BRANCH  11  25
ATOM     25  C   UNL     1      17.686   7.211  21.214  0.00  0.00    +0.037 A 
ATOM     26  C   UNL     1      17.591   6.358  20.115  0.00  0.00    +0.027 A 
ATOM     27  C   UNL     1      16.595   7.999  21.580  0.00  0.00    +0.027 A 
ATOM     28  C   UNL     1      16.406   6.293  19.382  0.00  0.00    +0.048 A 
ATOM     29  C   UNL     1      15.410   7.935  20.848  0.00  0.00    +0.048 A 
ATOM     30  C   UNL     1      15.316   7.081  19.749  0.00  0.00    +0.129 A 
BRANCH  30   6
ATOM      6  O   UNL     1      14.158   7.017  19.035  0.00  0.00    -0.456 OA
BRANCH   6  31
ATOM     31  C   UNL     1      12.977   7.310  19.696  0.00  0.00    +0.128 A 
ATOM     32  C   UNL     1      12.239   8.439  19.337  0.00  0.00    +0.046 A 
ATOM     33  C   UNL     1      12.524   6.477  20.719  0.00  0.00    +0.046 A 
ATOM     34  C   UNL     1      11.050   8.736  20.002  0.00  0.00    +0.004 A 
ATOM     35  C   UNL     1      11.335   6.774  21.384  0.00  0.00    +0.004 A 
ATOM     36  C   UNL     1      10.597   7.903  21.026  0.00  0.00    +0.000 A 
ENDBRANCH   6  31
ENDBRANCH  30   6
ENDBRANCH  11  25
ENDBRANCH   4  24
ENDBRANCH  15   4
TORSDOF 8
ENDMDL
MODEL 9
REMARK VINA RESULT:      -7.0      1.912      2.806
REMARK  Name = 11886038
REMARK  8 active torsions:
REMARK  status: ('A' for Active; 'I' for Inactive)
REMARK    1  A    between atoms: S_1  and  C_18
REMARK    2  A    between atoms: S_1  and  C_19
REMARK    3  A    between atoms: O_4  and  C_15
REMARK    4  A    between atoms: O_4  and  C_24
REMARK    5  A    between atoms: O_6  and  C_30
REMARK    6  A    between atoms: O_6  and  C_31
REMARK    7  A    between atoms: N_7  and  C_14
REMARK    8  A    between atoms: N_11  and  C_25
REMARK                            x       y       z     vdW  Elec       q    Type
REMARK                         _______ _______ _______ _____ _____    ______ ____
ROOT
ATOM      2  O   UNL     1      -7.273 -12.345  16.769  0.00  0.00    -0.368 OA
ATOM      3  O   UNL     1      -5.313 -10.469  18.251  0.00  0.00    -0.368 OA
ATOM     12  C   UNL     1      -5.125 -11.735  17.580  0.00  0.00    +0.177 C 
ATOM     13  C   UNL     1      -6.362 -12.566  17.858  0.00  0.00    +0.192 C 
ATOM     14  C   UNL     1      -5.139 -11.521  16.080  0.00  0.00    +0.168 C 
ATOM     15  C   UNL     1      -6.879 -11.973  19.148  0.00  0.00    +0.235 C 
ATOM     16  C   UNL     1      -6.626 -11.574  15.746  0.00  0.00    +0.190 C 
ATOM     17  C   UNL     1      -6.549 -10.508  18.977  0.00  0.00    +0.207 C 
ENDROOT
BRANCH  14   7
ATOM      7  N   UNL     1      -4.300 -12.487  15.367  0.00  0.00    -0.212 N 
ATOM      8  N   UNL     1      -4.370 -13.793  15.663  0.00  0.00    -0.043 NA
ATOM      9  N   UNL     1      -2.876 -13.448  14.044  0.00  0.00    -0.101 NA
ATOM     10  N   UNL     1      -3.498 -14.376  14.851  0.00  0.00    -0.022 NA
ATOM     19  C   UNL     1      -3.388 -12.287  14.380  0.00  0.00    +0.210 A 
BRANCH  19   1
ATOM      1  S   UNL     1      -3.011 -10.745  13.720  0.00  0.00    -0.081 S 
BRANCH   1  18
ATOM     18  C   UNL     1      -2.150 -11.207  12.178  0.00  0.00    +0.054 C 
ATOM     20  C   UNL     1      -1.489  -9.999  11.524  0.00  0.00    +0.014 C 
ATOM     21  C   UNL     1      -3.131 -11.669  11.104  0.00  0.00    +0.014 C 
ATOM     22  C   UNL     1      -2.598  -9.314  10.726  0.00  0.00    +0.001 C 
ATOM     23  C   UNL     1      -3.655 -10.386  10.460  0.00  0.00    +0.001 C 
ENDBRANCH   1  18
ENDBRANCH  19   1
ENDBRANCH  14   7
BRANCH  15   4
ATOM      4  O   UNL     1      -8.256 -12.187  19.354  0.00  0.00    -0.442 OA
BRANCH   4  24
ATOM      5  O   UNL     1      -9.483 -10.518  20.322  0.00  0.00    -0.226 OA
ATOM     11  N   UNL     1      -9.322 -10.735  17.996  0.00  0.00    -0.251 N 
ATOM     24  C   UNL     1      -9.073 -11.076  19.312  0.00  0.00    +0.405 C 
ATOM     37  H   UNL     1      -8.888 -11.324  17.289  0.00  0.00    +0.158 HD
BRANCH  11  25
ATOM     25  C   UNL     1     -10.106  -9.666  17.508  0.00  0.00    +0.037 A 
ATOM     26  C   UNL     1      -9.488  -8.515  17.018  0.00  0.00    +0.027 A 
ATOM     27  C   UNL     1     -11.498  -9.761  17.514  0.00  0.00    +0.027 A 
ATOM     28  C   UNL     1     -10.262  -7.460  16.534  0.00  0.00    +0.048 A 
ATOM     29  C   UNL     1     -12.271  -8.706  17.031  0.00  0.00    +0.048 A 
ATOM     30  C   UNL     1     -11.653  -7.555  16.541  0.00  0.00    +0.129 A 
BRANCH  30   6
ATOM      6  O   UNL     1     -12.409  -6.527  16.068  0.00  0.00    -0.456 OA
BRANCH   6  31
ATOM     31  C   UNL     1     -12.488  -6.364  14.695  0.00  0.00    +0.128 A 
ATOM     32  C   UNL     1     -12.799  -7.453  13.880  0.00  0.00    +0.046 A 
ATOM     33  C   UNL     1     -12.257  -5.111  14.127  0.00  0.00    +0.046 A 
ATOM     34  C   UNL     1     -12.877  -7.290  12.498  0.00  0.00    +0.004 A 
ATOM     35  C   UNL     1     -12.336  -4.948  12.744  0.00  0.00    +0.004 A 
ATOM     36  C   UNL     1     -12.647  -6.037  11.929  0.00  0.00    +0.000 A 
ENDBRANCH   6  31
ENDBRANCH  30   6
ENDBRANCH  11  25
ENDBRANCH   4  24
ENDBRANCH  15   4
TORSDOF 8
ENDMDL
MODEL 10
REMARK VINA RESULT:      -7.0      2.302      3.135
REMARK  Name = 11886038
REMARK  8 active torsions:
REMARK  status: ('A' for Active; 'I' for Inactive)
REMARK    1  A    between atoms: S_1  and  C_18
REMARK    2  A    between atoms: S_1  and  C_19
REMARK    3  A    between atoms: O_4  and  C_15
REMARK    4  A    between atoms: O_4  and  C_24
REMARK    5  A    between atoms: O_6  and  C_30
REMARK    6  A    between atoms: O_6  and  C_31
REMARK    7  A    between atoms: N_7  and  C_14
REMARK    8  A    between atoms: N_11  and  C_25
REMARK                            x       y       z     vdW  Elec       q    Type
REMARK                         _______ _______ _______ _____ _____    ______ ____
ROOT
ATOM      2  O   UNL     1      -4.935  -9.857  16.387  0.00  0.00    -0.368 OA
ATOM      3  O   UNL     1      -5.225 -12.921  16.688  0.00  0.00    -0.368 OA
ATOM     12  C   UNL     1      -5.102 -12.067  15.529  0.00  0.00    +0.177 C 
ATOM     13  C   UNL     1      -5.872 -10.797  15.836  0.00  0.00    +0.192 C 
ATOM     14  C   UNL     1      -3.663 -11.614  15.383  0.00  0.00    +0.168 C 
ATOM     15  C   UNL     1      -6.874 -11.257  16.868  0.00  0.00    +0.235 C 
ATOM     16  C   UNL     1      -3.604 -10.384  16.284  0.00  0.00    +0.190 C 
ATOM     17  C   UNL     1      -6.080 -12.282  17.646  0.00  0.00    +0.207 C 
ENDROOT
BRANCH  14   7
ATOM      7  N   UNL     1      -3.284 -11.387  13.986  0.00  0.00    -0.212 N 
ATOM      8  N   UNL     1      -3.917 -10.457  13.256  0.00  0.00    -0.043 NA
ATOM      9  N   UNL     1      -2.352 -11.468  12.031  0.00  0.00    -0.101 NA
ATOM     10  N   UNL     1      -3.341 -10.510  12.061  0.00  0.00    -0.022 NA
ATOM     19  C   UNL     1      -2.334 -11.997  13.232  0.00  0.00    +0.210 A 
BRANCH  19   1
ATOM      1  S   UNL     1      -1.306 -13.247  13.811  0.00  0.00    -0.081 S 
BRANCH   1  18
ATOM     18  C   UNL     1      -2.096 -14.730  13.099  0.00  0.00    +0.054 C 
ATOM     20  C   UNL     1      -3.494 -14.946  13.669  0.00  0.00    +0.014 C 
ATOM     21  C   UNL     1      -1.370 -16.007  13.512  0.00  0.00    +0.014 C 
ATOM     22  C   UNL     1      -3.281 -15.671  14.998  0.00  0.00    +0.001 C 
ATOM     23  C   UNL     1      -1.915 -16.348  14.898  0.00  0.00    +0.001 C 
ENDBRANCH   1  18
ENDBRANCH  19   1
ENDBRANCH  14   7
BRANCH  15   4
ATOM      4  O   UNL     1      -7.351 -10.218  17.692  0.00  0.00    -0.442 OA
BRANCH   4  24
ATOM      5  O   UNL     1      -9.584 -10.026  18.151  0.00  0.00    -0.226 OA
ATOM     11  N   UNL     1      -8.616  -8.980  16.294  0.00  0.00    -0.251 N 
ATOM     24  C   UNL     1      -8.626  -9.756  17.437  0.00  0.00    +0.405 C 
ATOM     37  H   UNL     1      -7.716  -8.869  15.833  0.00  0.00    +0.158 HD
BRANCH  11  25
ATOM     25  C   UNL     1      -9.704  -8.316  15.683  0.00  0.00    +0.037 A 
ATOM     26  C   UNL     1     -10.051  -7.028  16.088  0.00  0.00    +0.027 A 
ATOM     27  C   UNL     1     -10.430  -8.950  14.674  0.00  0.00    +0.027 A 
ATOM     28  C   UNL     1     -11.124  -6.372  15.484  0.00  0.00    +0.048 A 
ATOM     29  C   UNL     1     -11.503  -8.294  14.070  0.00  0.00    +0.048 A 
ATOM     30  C   UNL     1     -11.850  -7.006  14.475  0.00  0.00    +0.129 A 
BRANCH  30   6
ATOM      6  O   UNL     1     -12.896  -6.366  13.884  0.00  0.00    -0.456 OA
BRANCH   6  31
ATOM     31  C   UNL     1     -12.619  -5.526  12.819  0.00  0.00    +0.128 A 
ATOM     32  C   UNL     1     -12.430  -6.057  11.543  0.00  0.00    +0.046 A 
ATOM     33  C   UNL     1     -12.529  -4.149  13.021  0.00  0.00    +0.046 A 
ATOM     34  C   UNL     1     -12.149  -5.212  10.470  0.00  0.00    +0.004 A 
ATOM     35  C   UNL     1     -12.249  -3.303  11.948  0.00  0.00    +0.004 A 
ATOM     36  C   UNL     1     -12.060  -3.834  10.672  0.00  0.00    +0.000 A 
ENDBRANCH   6  31
ENDBRANCH  30   6
ENDBRANCH  11  25
ENDBRANCH   4  24
ENDBRANCH  15   4
TORSDOF 8
ENDMDL
