MODEL 1
REMARK VINA RESULT:      -6.9      0.000      0.000
REMARK  Name = 26743698
REMARK  9 active torsions:
REMARK  status: ('A' for Active; 'I' for Inactive)
REMARK    1  A    between atoms: O_4  and  C_13
REMARK    2  A    between atoms: O_6  and  C_23
REMARK    3  A    between atoms: O_6  and  C_33
REMARK    4  A    between atoms: O_7  and  C_34
REMARK    5  A    between atoms: O_7  and  C_35
REMARK    6  A    between atoms: N_8  and  C_15
REMARK    7  A    between atoms: C_11  and  C_16
REMARK    8  A    between atoms: C_15  and  C_17
REMARK    9  A    between atoms: C_21  and  C_26
REMARK                            x       y       z     vdW  Elec       q    Type
REMARK                         _______ _______ _______ _____ _____    ______ ____
ROOT
ATOM      8  N   UNL     1      -4.913 -10.075   9.609  0.00  0.00    -0.285 NA
ATOM     11  C   UNL     1      -5.557  -8.941  10.303  0.00  0.00    +0.149 C 
ATOM     12  C   UNL     1      -6.631  -8.436   9.322  0.00  0.00    +0.061 C 
ATOM     13  C   UNL     1      -6.484  -9.318   8.088  0.00  0.00    +0.130 C 
ATOM     14  C   UNL     1      -5.054  -9.817   8.177  0.00  0.00    +0.116 C 
ENDROOT
BRANCH  11  16
ATOM      5  O   UNL     1      -7.418  -9.763  11.657  0.00  0.00    -0.336 OA
ATOM      9  N   UNL     1      -5.564  -9.312  12.830  0.00  0.00    -0.190 NA
ATOM     10  N   UNL     1      -7.720 -10.059  12.991  0.00  0.00    -0.056 NA
ATOM     16  C   UNL     1      -6.130  -9.330  11.649  0.00  0.00    +0.245 A 
ATOM     21  C   UNL     1      -6.578  -9.768  13.621  0.00  0.00    +0.202 A 
BRANCH  21  26
ATOM     26  C   UNL     1      -6.416  -9.922  15.038  0.00  0.00    +0.023 A 
ATOM     29  C   UNL     1      -5.150 -10.152  15.575  0.00  0.00    +0.015 A 
ATOM     30  C   UNL     1      -7.526  -9.841  15.879  0.00  0.00    +0.015 A 
ATOM     31  C   UNL     1      -4.994 -10.303  16.952  0.00  0.00    +0.046 A 
ATOM     32  C   UNL     1      -7.370  -9.992  17.256  0.00  0.00    +0.046 A 
ATOM     34  C   UNL     1      -6.104 -10.222  17.793  0.00  0.00    +0.130 A 
BRANCH  34   7
ATOM      7  O   UNL     1      -5.952 -10.369  19.138  0.00  0.00    -0.406 OA
BRANCH   7  35
ATOM      1  F   UNL     1      -6.027 -11.765  20.910  0.00  0.00    -0.133 F 
ATOM      2  F   UNL     1      -6.146 -12.637  18.910  0.00  0.00    -0.133 F 
ATOM      3  F   UNL     1      -4.241 -11.797  19.652  0.00  0.00    -0.133 F 
ATOM     35  C   UNL     1      -5.583 -11.650  19.639  0.00  0.00    +0.575 C 
ENDBRANCH   7  35
ENDBRANCH  34   7
ENDBRANCH  21  26
ENDBRANCH  11  16
BRANCH  13   4
ATOM      4  O   UNL     1      -6.708  -8.573   6.908  0.00  0.00    -0.390 OA
ATOM     36  H   UNL     1      -6.453  -9.134   6.156  0.00  0.00    +0.210 HD
ENDBRANCH  13   4
BRANCH   8  15
ATOM     15  C   UNL     1      -3.523 -10.272   9.997  0.00  0.00    +0.121 C 
BRANCH  15  17
ATOM     17  C   UNL     1      -3.332 -11.522  10.799  0.00  0.00    -0.025 A 
ATOM     18  C   UNL     1      -2.781 -11.501  12.091  0.00  0.00    -0.010 A 
ATOM     19  C   UNL     1      -3.727 -12.725  10.213  0.00  0.00    +0.009 A 
ATOM     20  C   UNL     1      -2.626 -12.717  12.797  0.00  0.00    +0.024 A 
ATOM     22  C   UNL     1      -3.574 -13.921  10.908  0.00  0.00    +0.046 A 
ATOM     23  C   UNL     1      -3.028 -13.919  12.191  0.00  0.00    +0.128 A 
ATOM     24  C   UNL     1      -2.378 -10.299  12.696  0.00  0.00    +0.009 A 
ATOM     25  C   UNL     1      -2.074 -12.696  14.089  0.00  0.00    +0.012 A 
ATOM     27  C   UNL     1      -1.832 -10.297  13.979  0.00  0.00    +0.001 A 
ATOM     28  C   UNL     1      -1.681 -11.493  14.675  0.00  0.00    +0.001 A 
BRANCH  23   6
ATOM      6  O   UNL     1      -2.899 -15.117  12.835  0.00  0.00    -0.495 OA
ATOM     33  C   UNL     1      -3.988 -16.029  12.721  0.00  0.00    +0.277 C 
ENDBRANCH  23   6
ENDBRANCH  15  17
ENDBRANCH   8  15
TORSDOF 8
ENDMDL
MODEL 2
REMARK VINA RESULT:      -6.9     27.451     29.859
REMARK  Name = 26743698
REMARK  9 active torsions:
REMARK  status: ('A' for Active; 'I' for Inactive)
REMARK    1  A    between atoms: O_4  and  C_13
REMARK    2  A    between atoms: O_6  and  C_23
REMARK    3  A    between atoms: O_6  and  C_33
REMARK    4  A    between atoms: O_7  and  C_34
REMARK    5  A    between atoms: O_7  and  C_35
REMARK    6  A    between atoms: N_8  and  C_15
REMARK    7  A    between atoms: C_11  and  C_16
REMARK    8  A    between atoms: C_15  and  C_17
REMARK    9  A    between atoms: C_21  and  C_26
REMARK                            x       y       z     vdW  Elec       q    Type
REMARK                         _______ _______ _______ _____ _____    ______ ____
ROOT
ATOM      8  N   UNL     1      12.519   8.810  20.253  0.00  0.00    -0.285 NA
ATOM     11  C   UNL     1      13.229   8.110  21.342  0.00  0.00    +0.149 C 
ATOM     12  C   UNL     1      12.208   7.097  21.892  0.00  0.00    +0.061 C 
ATOM     13  C   UNL     1      10.941   7.334  21.080  0.00  0.00    +0.130 C 
ATOM     14  C   UNL     1      11.096   8.760  20.587  0.00  0.00    +0.116 C 
ENDROOT
BRANCH  11  16
ATOM      5  O   UNL     1      14.430   6.696  19.752  0.00  0.00    -0.336 OA
ATOM      9  N   UNL     1      15.710   7.506  21.401  0.00  0.00    -0.190 NA
ATOM     10  N   UNL     1      15.720   6.201  19.523  0.00  0.00    -0.056 NA
ATOM     16  C   UNL     1      14.512   7.454  20.876  0.00  0.00    +0.245 A 
ATOM     21  C   UNL     1      16.417   6.722  20.537  0.00  0.00    +0.202 A 
BRANCH  21  26
ATOM     26  C   UNL     1      17.820   6.482  20.713  0.00  0.00    +0.023 A 
ATOM     29  C   UNL     1      18.471   5.536  19.923  0.00  0.00    +0.015 A 
ATOM     30  C   UNL     1      18.533   7.196  21.676  0.00  0.00    +0.015 A 
ATOM     31  C   UNL     1      19.835   5.302  20.096  0.00  0.00    +0.046 A 
ATOM     32  C   UNL     1      19.897   6.963  21.850  0.00  0.00    +0.046 A 
ATOM     34  C   UNL     1      20.548   6.016  21.060  0.00  0.00    +0.130 A 
BRANCH  34   7
ATOM      7  O   UNL     1      21.879   5.789  21.229  0.00  0.00    -0.406 OA
BRANCH   7  35
ATOM      1  F   UNL     1      21.442   3.760  22.118  0.00  0.00    -0.133 F 
ATOM      2  F   UNL     1      23.531   4.374  21.938  0.00  0.00    -0.133 F 
ATOM      3  F   UNL     1      22.215   5.317  23.442  0.00  0.00    -0.133 F 
ATOM     35  C   UNL     1      22.281   4.817  22.190  0.00  0.00    +0.575 C 
ENDBRANCH   7  35
ENDBRANCH  34   7
ENDBRANCH  21  26
ENDBRANCH  11  16
BRANCH  13   4
ATOM      4  O   UNL     1       9.790   7.180  21.887  0.00  0.00    -0.390 OA
ATOM     36  H   UNL     1       9.192   6.566  21.428  0.00  0.00    +0.210 HD
ENDBRANCH  13   4
BRANCH   8  15
ATOM     15  C   UNL     1      12.986  10.174  20.045  0.00  0.00    +0.121 C 
BRANCH  15  17
ATOM     17  C   UNL     1      13.369  10.428  18.619  0.00  0.00    -0.025 A 
ATOM     18  C   UNL     1      13.648  11.719  18.142  0.00  0.00    -0.010 A 
ATOM     19  C   UNL     1      13.443   9.324  17.769  0.00  0.00    +0.009 A 
ATOM     20  C   UNL     1      14.004  11.893  16.783  0.00  0.00    +0.024 A 
ATOM     22  C   UNL     1      13.793   9.495  16.433  0.00  0.00    +0.046 A 
ATOM     23  C   UNL     1      14.072  10.770  15.943  0.00  0.00    +0.128 A 
ATOM     24  C   UNL     1      13.579  12.842  18.983  0.00  0.00    +0.009 A 
ATOM     25  C   UNL     1      14.281  13.185  16.306  0.00  0.00    +0.012 A 
ATOM     27  C   UNL     1      13.858  14.117  18.492  0.00  0.00    +0.001 A 
ATOM     28  C   UNL     1      14.209  14.288  17.156  0.00  0.00    +0.001 A 
BRANCH  23   6
ATOM      6  O   UNL     1      14.413  10.889  14.625  0.00  0.00    -0.495 OA
ATOM     33  C   UNL     1      15.787  10.705  14.297  0.00  0.00    +0.277 C 
ENDBRANCH  23   6
ENDBRANCH  15  17
ENDBRANCH   8  15
TORSDOF 8
ENDMDL
MODEL 3
REMARK VINA RESULT:      -6.8     20.503     22.079
REMARK  Name = 26743698
REMARK  9 active torsions:
REMARK  status: ('A' for Active; 'I' for Inactive)
REMARK    1  A    between atoms: O_4  and  C_13
REMARK    2  A    between atoms: O_6  and  C_23
REMARK    3  A    between atoms: O_6  and  C_33
REMARK    4  A    between atoms: O_7  and  C_34
REMARK    5  A    between atoms: O_7  and  C_35
REMARK    6  A    between atoms: N_8  and  C_15
REMARK    7  A    between atoms: C_11  and  C_16
REMARK    8  A    between atoms: C_15  and  C_17
REMARK    9  A    between atoms: C_21  and  C_26
REMARK                            x       y       z     vdW  Elec       q    Type
REMARK                         _______ _______ _______ _____ _____    ______ ____
ROOT
ATOM      8  N   UNL     1     -14.672   6.065  21.179  0.00  0.00    -0.285 NA
ATOM     11  C   UNL     1     -15.744   6.196  22.187  0.00  0.00    +0.149 C 
ATOM     12  C   UNL     1     -16.983   6.644  21.389  0.00  0.00    +0.061 C 
ATOM     13  C   UNL     1     -16.498   6.782  19.952  0.00  0.00    +0.130 C 
ATOM     14  C   UNL     1     -15.003   6.995  20.100  0.00  0.00    +0.116 C 
ENDROOT
BRANCH  11  16
ATOM      5  O   UNL     1     -16.184   3.793  22.224  0.00  0.00    -0.336 OA
ATOM      9  N   UNL     1     -16.013   4.721  24.255  0.00  0.00    -0.190 NA
ATOM     10  N   UNL     1     -16.374   2.755  23.144  0.00  0.00    -0.056 NA
ATOM     16  C   UNL     1     -15.977   4.916  22.960  0.00  0.00    +0.245 A 
ATOM     21  C   UNL     1     -16.259   3.381  24.319  0.00  0.00    +0.202 A 
BRANCH  21  26
ATOM     26  C   UNL     1     -16.381   2.697  25.574  0.00  0.00    +0.023 A 
ATOM     29  C   UNL     1     -16.095   3.366  26.764  0.00  0.00    +0.015 A 
ATOM     30  C   UNL     1     -16.787   1.363  25.604  0.00  0.00    +0.015 A 
ATOM     31  C   UNL     1     -16.214   2.700  27.983  0.00  0.00    +0.046 A 
ATOM     32  C   UNL     1     -16.906   0.697  26.823  0.00  0.00    +0.046 A 
ATOM     34  C   UNL     1     -16.620   1.366  28.013  0.00  0.00    +0.130 A 
BRANCH  34   7
ATOM      7  O   UNL     1     -16.736   0.716  29.203  0.00  0.00    -0.406 OA
BRANCH   7  35
ATOM      1  F   UNL     1     -15.796  -0.669  30.719  0.00  0.00    -0.133 F 
ATOM      2  F   UNL     1     -14.558   0.032  29.060  0.00  0.00    -0.133 F 
ATOM      3  F   UNL     1     -15.138   1.414  30.683  0.00  0.00    -0.133 F 
ATOM     35  C   UNL     1     -15.545   0.385  29.910  0.00  0.00    +0.575 C 
ENDBRANCH   7  35
ENDBRANCH  34   7
ENDBRANCH  21  26
ENDBRANCH  11  16
BRANCH  13   4
ATOM      4  O   UNL     1     -17.122   7.878  19.313  0.00  0.00    -0.390 OA
ATOM     36  H   UNL     1     -18.083   7.741  19.372  0.00  0.00    +0.210 HD
ENDBRANCH  13   4
BRANCH   8  15
ATOM     15  C   UNL     1     -13.341   6.304  21.721  0.00  0.00    +0.121 C 
BRANCH  15  17
ATOM     17  C   UNL     1     -12.601   7.357  20.955  0.00  0.00    -0.025 A 
ATOM     18  C   UNL     1     -12.645   8.712  21.318  0.00  0.00    -0.010 A 
ATOM     19  C   UNL     1     -11.854   6.940  19.852  0.00  0.00    +0.009 A 
ATOM     20  C   UNL     1     -11.922   9.658  20.553  0.00  0.00    +0.024 A 
ATOM     22  C   UNL     1     -11.144   7.870  19.099  0.00  0.00    +0.046 A 
ATOM     23  C   UNL     1     -11.177   9.220  19.446  0.00  0.00    +0.128 A 
ATOM     24  C   UNL     1     -13.391   9.150  22.425  0.00  0.00    +0.009 A 
ATOM     25  C   UNL     1     -11.967  11.014  20.917  0.00  0.00    +0.012 A 
ATOM     27  C   UNL     1     -13.424  10.501  22.772  0.00  0.00    +0.001 A 
ATOM     28  C   UNL     1     -12.713  11.431  22.019  0.00  0.00    +0.001 A 
BRANCH  23   6
ATOM      6  O   UNL     1     -10.463  10.097  18.678  0.00  0.00    -0.495 OA
ATOM     33  C   UNL     1     -10.025   9.628  17.406  0.00  0.00    +0.277 C 
ENDBRANCH  23   6
ENDBRANCH  15  17
ENDBRANCH   8  15
TORSDOF 8
ENDMDL
MODEL 4
REMARK VINA RESULT:      -6.8     27.842     30.256
REMARK  Name = 26743698
REMARK  9 active torsions:
REMARK  status: ('A' for Active; 'I' for Inactive)
REMARK    1  A    between atoms: O_4  and  C_13
REMARK    2  A    between atoms: O_6  and  C_23
REMARK    3  A    between atoms: O_6  and  C_33
REMARK    4  A    between atoms: O_7  and  C_34
REMARK    5  A    between atoms: O_7  and  C_35
REMARK    6  A    between atoms: N_8  and  C_15
REMARK    7  A    between atoms: C_11  and  C_16
REMARK    8  A    between atoms: C_15  and  C_17
REMARK    9  A    between atoms: C_21  and  C_26
REMARK                            x       y       z     vdW  Elec       q    Type
REMARK                         _______ _______ _______ _____ _____    ______ ____
ROOT
ATOM      8  N   UNL     1      11.845  11.712  23.218  0.00  0.00    -0.285 NA
ATOM     11  C   UNL     1      12.769  12.864  23.245  0.00  0.00    +0.149 C 
ATOM     12  C   UNL     1      12.667  13.417  24.679  0.00  0.00    +0.061 C 
ATOM     13  C   UNL     1      11.628  12.542  25.367  0.00  0.00    +0.130 C 
ATOM     14  C   UNL     1      10.811  11.988  24.215  0.00  0.00    +0.116 C 
ENDROOT
BRANCH  11  16
ATOM      5  O   UNL     1      15.089  13.496  22.809  0.00  0.00    -0.336 OA
ATOM      9  N   UNL     1      14.679  11.308  22.571  0.00  0.00    -0.190 NA
ATOM     10  N   UNL     1      16.306  12.910  22.441  0.00  0.00    -0.056 NA
ATOM     16  C   UNL     1      14.185  12.484  22.864  0.00  0.00    +0.245 A 
ATOM     21  C   UNL     1      15.983  11.619  22.319  0.00  0.00    +0.202 A 
BRANCH  21  26
ATOM     26  C   UNL     1      16.939  10.615  21.949  0.00  0.00    +0.023 A 
ATOM     29  C   UNL     1      16.524   9.476  21.261  0.00  0.00    +0.015 A 
ATOM     30  C   UNL     1      18.284  10.779  22.280  0.00  0.00    +0.015 A 
ATOM     31  C   UNL     1      17.453   8.500  20.903  0.00  0.00    +0.046 A 
ATOM     32  C   UNL     1      19.214   9.803  21.922  0.00  0.00    +0.046 A 
ATOM     34  C   UNL     1      18.799   8.664  21.233  0.00  0.00    +0.130 A 
BRANCH  34   7
ATOM      7  O   UNL     1      19.707   7.712  20.884  0.00  0.00    -0.406 OA
BRANCH   7  35
ATOM      1  F   UNL     1      18.821   6.445  22.529  0.00  0.00    -0.133 F 
ATOM      2  F   UNL     1      18.809   5.645  20.496  0.00  0.00    -0.133 F 
ATOM      3  F   UNL     1      20.701   5.792  21.628  0.00  0.00    -0.133 F 
ATOM     35  C   UNL     1      19.517   6.388  21.372  0.00  0.00    +0.575 C 
ENDBRANCH   7  35
ENDBRANCH  34   7
ENDBRANCH  21  26
ENDBRANCH  11  16
BRANCH  13   4
ATOM      4  O   UNL     1      10.834  13.305  26.253  0.00  0.00    -0.390 OA
ATOM     36  H   UNL     1      11.289  14.153  26.395  0.00  0.00    +0.210 HD
ENDBRANCH  13   4
BRANCH   8  15
ATOM     15  C   UNL     1      11.281  11.459  21.899  0.00  0.00    +0.121 C 
BRANCH  15  17
ATOM     17  C   UNL     1      11.371  10.014  21.514  0.00  0.00    -0.025 A 
ATOM     18  C   UNL     1      12.197   9.572  20.468  0.00  0.00    -0.010 A 
ATOM     19  C   UNL     1      10.596   9.109  22.240  0.00  0.00    +0.009 A 
ATOM     20  C   UNL     1      12.238   8.193  20.153  0.00  0.00    +0.024 A 
ATOM     22  C   UNL     1      10.636   7.753  21.930  0.00  0.00    +0.046 A 
ATOM     23  C   UNL     1      11.450   7.297  20.894  0.00  0.00    +0.128 A 
ATOM     24  C   UNL     1      12.984  10.469  19.727  0.00  0.00    +0.009 A 
ATOM     25  C   UNL     1      13.064   7.752  19.106  0.00  0.00    +0.012 A 
ATOM     27  C   UNL     1      13.798  10.013  18.691  0.00  0.00    +0.001 A 
ATOM     28  C   UNL     1      13.839   8.657  18.381  0.00  0.00    +0.001 A 
BRANCH  23   6
ATOM      6  O   UNL     1      11.457   5.957  20.627  0.00  0.00    -0.495 OA
ATOM     33  C   UNL     1      10.926   5.098  21.633  0.00  0.00    +0.277 C 
ENDBRANCH  23   6
ENDBRANCH  15  17
ENDBRANCH   8  15
TORSDOF 8
ENDMDL
MODEL 5
REMARK VINA RESULT:      -6.7      4.442      8.283
REMARK  Name = 26743698
REMARK  9 active torsions:
REMARK  status: ('A' for Active; 'I' for Inactive)
REMARK    1  A    between atoms: O_4  and  C_13
REMARK    2  A    between atoms: O_6  and  C_23
REMARK    3  A    between atoms: O_6  and  C_33
REMARK    4  A    between atoms: O_7  and  C_34
REMARK    5  A    between atoms: O_7  and  C_35
REMARK    6  A    between atoms: N_8  and  C_15
REMARK    7  A    between atoms: C_11  and  C_16
REMARK    8  A    between atoms: C_15  and  C_17
REMARK    9  A    between atoms: C_21  and  C_26
REMARK                            x       y       z     vdW  Elec       q    Type
REMARK                         _______ _______ _______ _____ _____    ______ ____
ROOT
ATOM      8  N   UNL     1      -3.451 -11.847  14.243  0.00  0.00    -0.285 NA
ATOM     11  C   UNL     1      -2.497 -11.649  13.133  0.00  0.00    +0.149 C 
ATOM     12  C   UNL     1      -2.108 -13.072  12.690  0.00  0.00    +0.061 C 
ATOM     13  C   UNL     1      -2.857 -13.999  13.638  0.00  0.00    +0.130 C 
ATOM     14  C   UNL     1      -3.114 -13.131  14.855  0.00  0.00    +0.116 C 
ENDROOT
BRANCH  11  16
ATOM      5  O   UNL     1      -2.215 -10.009  11.343  0.00  0.00    -0.336 OA
ATOM      9  N   UNL     1      -4.308 -10.772  11.561  0.00  0.00    -0.190 NA
ATOM     10  N   UNL     1      -2.970  -9.357  10.361  0.00  0.00    -0.056 NA
ATOM     16  C   UNL     1      -3.078 -10.823  12.004  0.00  0.00    +0.245 A 
ATOM     21  C   UNL     1      -4.194  -9.860  10.553  0.00  0.00    +0.202 A 
BRANCH  21  26
ATOM     26  C   UNL     1      -5.321  -9.474   9.755  0.00  0.00    +0.023 A 
ATOM     29  C   UNL     1      -5.284  -9.635   8.370  0.00  0.00    +0.015 A 
ATOM     30  C   UNL     1      -6.455  -8.937  10.364  0.00  0.00    +0.015 A 
ATOM     31  C   UNL     1      -6.380  -9.258   7.595  0.00  0.00    +0.046 A 
ATOM     32  C   UNL     1      -7.551  -8.560   9.589  0.00  0.00    +0.046 A 
ATOM     34  C   UNL     1      -7.514  -8.721   8.204  0.00  0.00    +0.130 A 
BRANCH  34   7
ATOM      7  O   UNL     1      -8.584  -8.353   7.448  0.00  0.00    -0.406 OA
BRANCH   7  35
ATOM      1  F   UNL     1      -9.803  -6.602   6.711  0.00  0.00    -0.133 F 
ATOM      2  F   UNL     1      -7.800  -6.205   7.490  0.00  0.00    -0.133 F 
ATOM      3  F   UNL     1      -8.062  -7.208   5.539  0.00  0.00    -0.133 F 
ATOM     35  C   UNL     1      -8.545  -7.090   6.793  0.00  0.00    +0.575 C 
ENDBRANCH   7  35
ENDBRANCH  34   7
ENDBRANCH  21  26
ENDBRANCH  11  16
BRANCH  13   4
ATOM      4  O   UNL     1      -2.073 -15.132  13.958  0.00  0.00    -0.390 OA
ATOM     36  H   UNL     1      -1.282 -14.816  14.427  0.00  0.00    +0.210 HD
ENDBRANCH  13   4
BRANCH   8  15
ATOM     15  C   UNL     1      -3.441 -10.758  15.210  0.00  0.00    +0.121 C 
BRANCH  15  17
ATOM     17  C   UNL     1      -4.788 -10.536  15.825  0.00  0.00    -0.025 A 
ATOM     18  C   UNL     1      -5.059 -10.862  17.164  0.00  0.00    -0.010 A 
ATOM     19  C   UNL     1      -5.780  -9.986  15.012  0.00  0.00    +0.009 A 
ATOM     20  C   UNL     1      -6.353 -10.628  17.686  0.00  0.00    +0.024 A 
ATOM     22  C   UNL     1      -7.054  -9.757  15.525  0.00  0.00    +0.046 A 
ATOM     23  C   UNL     1      -7.339 -10.075  16.852  0.00  0.00    +0.128 A 
ATOM     24  C   UNL     1      -4.073 -11.415  17.997  0.00  0.00    +0.009 A 
ATOM     25  C   UNL     1      -6.624 -10.954  19.025  0.00  0.00    +0.012 A 
ATOM     27  C   UNL     1      -4.359 -11.733  19.325  0.00  0.00    +0.001 A 
ATOM     28  C   UNL     1      -5.632 -11.503  19.838  0.00  0.00    +0.001 A 
BRANCH  23   6
ATOM      6  O   UNL     1      -8.603  -9.830  17.311  0.00  0.00    -0.495 OA
ATOM     33  C   UNL     1      -9.105  -8.508  17.139  0.00  0.00    +0.277 C 
ENDBRANCH  23   6
ENDBRANCH  15  17
ENDBRANCH   8  15
TORSDOF 8
ENDMDL
MODEL 6
REMARK VINA RESULT:      -6.7     27.835     30.195
REMARK  Name = 26743698
REMARK  9 active torsions:
REMARK  status: ('A' for Active; 'I' for Inactive)
REMARK    1  A    between atoms: O_4  and  C_13
REMARK    2  A    between atoms: O_6  and  C_23
REMARK    3  A    between atoms: O_6  and  C_33
REMARK    4  A    between atoms: O_7  and  C_34
REMARK    5  A    between atoms: O_7  and  C_35
REMARK    6  A    between atoms: N_8  and  C_15
REMARK    7  A    between atoms: C_11  and  C_16
REMARK    8  A    between atoms: C_15  and  C_17
REMARK    9  A    between atoms: C_21  and  C_26
REMARK                            x       y       z     vdW  Elec       q    Type
REMARK                         _______ _______ _______ _____ _____    ______ ____
ROOT
ATOM      8  N   UNL     1      11.721   9.874  21.768  0.00  0.00    -0.285 NA
ATOM     11  C   UNL     1      11.771  11.188  21.097  0.00  0.00    +0.149 C 
ATOM     12  C   UNL     1      11.411  12.206  22.196  0.00  0.00    +0.061 C 
ATOM     13  C   UNL     1      11.131  11.366  23.435  0.00  0.00    +0.130 C 
ATOM     14  C   UNL     1      10.767  10.007  22.868  0.00  0.00    +0.116 C 
ENDROOT
BRANCH  11  16
ATOM      5  O   UNL     1      14.205  11.340  21.261  0.00  0.00    -0.336 OA
ATOM      9  N   UNL     1      13.394  11.820  19.230  0.00  0.00    -0.190 NA
ATOM     10  N   UNL     1      15.313  11.643  20.462  0.00  0.00    -0.056 NA
ATOM     16  C   UNL     1      13.116  11.467  20.459  0.00  0.00    +0.245 A 
ATOM     21  C   UNL     1      14.755  11.916  19.279  0.00  0.00    +0.202 A 
BRANCH  21  26
ATOM     26  C   UNL     1      15.526  12.286  18.128  0.00  0.00    +0.023 A 
ATOM     29  C   UNL     1      16.801  12.827  18.286  0.00  0.00    +0.015 A 
ATOM     30  C   UNL     1      14.999  12.103  16.849  0.00  0.00    +0.015 A 
ATOM     31  C   UNL     1      17.549  13.186  17.165  0.00  0.00    +0.046 A 
ATOM     32  C   UNL     1      15.747  12.462  15.729  0.00  0.00    +0.046 A 
ATOM     34  C   UNL     1      17.023  13.004  15.887  0.00  0.00    +0.130 A 
BRANCH  34   7
ATOM      7  O   UNL     1      17.753  13.354  14.793  0.00  0.00    -0.406 OA
BRANCH   7  35
ATOM      1  F   UNL     1      18.358  11.179  14.792  0.00  0.00    -0.133 F 
ATOM      2  F   UNL     1      17.899  12.119  12.873  0.00  0.00    -0.133 F 
ATOM      3  F   UNL     1      19.756  12.635  13.955  0.00  0.00    -0.133 F 
ATOM     35  C   UNL     1      18.448  12.330  14.089  0.00  0.00    +0.575 C 
ENDBRANCH   7  35
ENDBRANCH  34   7
ENDBRANCH  21  26
ENDBRANCH  11  16
BRANCH  13   4
ATOM      4  O   UNL     1      10.072  11.920  24.190  0.00  0.00    -0.390 OA
ATOM     36  H   UNL     1       9.252  11.481  23.908  0.00  0.00    +0.210 HD
ENDBRANCH  13   4
BRANCH   8  15
ATOM     15  C   UNL     1      11.372   8.782  20.869  0.00  0.00    +0.121 C 
BRANCH  15  17
ATOM     17  C   UNL     1      12.584   8.115  20.294  0.00  0.00    -0.025 A 
ATOM     18  C   UNL     1      12.925   8.231  18.937  0.00  0.00    -0.010 A 
ATOM     19  C   UNL     1      13.375   7.364  21.166  0.00  0.00    +0.009 A 
ATOM     20  C   UNL     1      14.083   7.575  18.456  0.00  0.00    +0.024 A 
ATOM     22  C   UNL     1      14.513   6.719  20.692  0.00  0.00    +0.046 A 
ATOM     23  C   UNL     1      14.866   6.823  19.347  0.00  0.00    +0.128 A 
ATOM     24  C   UNL     1      12.141   8.982  18.046  0.00  0.00    +0.009 A 
ATOM     25  C   UNL     1      14.423   7.690  17.098  0.00  0.00    +0.012 A 
ATOM     27  C   UNL     1      12.494   9.086  16.701  0.00  0.00    +0.001 A 
ATOM     28  C   UNL     1      13.633   8.441  16.227  0.00  0.00    +0.001 A 
BRANCH  23   6
ATOM      6  O   UNL     1      15.993   6.174  18.928  0.00  0.00    -0.495 OA
ATOM     33  C   UNL     1      17.167   6.348  19.718  0.00  0.00    +0.277 C 
ENDBRANCH  23   6
ENDBRANCH  15  17
ENDBRANCH   8  15
TORSDOF 8
ENDMDL
MODEL 7
REMARK VINA RESULT:      -6.7      4.247      6.858
REMARK  Name = 26743698
REMARK  9 active torsions:
REMARK  status: ('A' for Active; 'I' for Inactive)
REMARK    1  A    between atoms: O_4  and  C_13
REMARK    2  A    between atoms: O_6  and  C_23
REMARK    3  A    between atoms: O_6  and  C_33
REMARK    4  A    between atoms: O_7  and  C_34
REMARK    5  A    between atoms: O_7  and  C_35
REMARK    6  A    between atoms: N_8  and  C_15
REMARK    7  A    between atoms: C_11  and  C_16
REMARK    8  A    between atoms: C_15  and  C_17
REMARK    9  A    between atoms: C_21  and  C_26
REMARK                            x       y       z     vdW  Elec       q    Type
REMARK                         _______ _______ _______ _____ _____    ______ ____
ROOT
ATOM      8  N   UNL     1      -4.357 -10.970  14.839  0.00  0.00    -0.285 NA
ATOM     11  C   UNL     1      -4.850 -11.329  16.185  0.00  0.00    +0.149 C 
ATOM     12  C   UNL     1      -3.668 -11.037  17.128  0.00  0.00    +0.061 C 
ATOM     13  C   UNL     1      -2.544 -10.563  16.216  0.00  0.00    +0.130 C 
ATOM     14  C   UNL     1      -2.907 -11.154  14.867  0.00  0.00    +0.116 C 
ENDROOT
BRANCH  11  16
ATOM      5  O   UNL     1      -6.303 -10.359  17.894  0.00  0.00    -0.336 OA
ATOM      9  N   UNL     1      -7.046 -10.084  15.800  0.00  0.00    -0.190 NA
ATOM     10  N   UNL     1      -7.507  -9.653  17.998  0.00  0.00    -0.056 NA
ATOM     16  C   UNL     1      -6.105 -10.572  16.567  0.00  0.00    +0.245 A 
ATOM     21  C   UNL     1      -7.885  -9.529  16.722  0.00  0.00    +0.202 A 
BRANCH  21  26
ATOM     26  C   UNL     1      -9.091  -8.856  16.335  0.00  0.00    +0.023 A 
ATOM     29  C   UNL     1      -9.665  -9.113  15.091  0.00  0.00    +0.015 A 
ATOM     30  C   UNL     1      -9.690  -7.945  17.205  0.00  0.00    +0.015 A 
ATOM     31  C   UNL     1     -10.837  -8.457  14.715  0.00  0.00    +0.046 A 
ATOM     32  C   UNL     1     -10.862  -7.289  16.829  0.00  0.00    +0.046 A 
ATOM     34  C   UNL     1     -11.436  -7.546  15.585  0.00  0.00    +0.130 A 
BRANCH  34   7
ATOM      7  O   UNL     1     -12.580  -6.906  15.219  0.00  0.00    -0.406 OA
BRANCH   7  35
ATOM      1  F   UNL     1     -13.516  -5.036  14.368  0.00  0.00    -0.133 F 
ATOM      2  F   UNL     1     -11.341  -5.228  14.279  0.00  0.00    -0.133 F 
ATOM      3  F   UNL     1     -12.627  -6.465  12.975  0.00  0.00    -0.133 F 
ATOM     35  C   UNL     1     -12.502  -5.913  14.201  0.00  0.00    +0.575 C 
ENDBRANCH   7  35
ENDBRANCH  34   7
ENDBRANCH  21  26
ENDBRANCH  11  16
BRANCH  13   4
ATOM      4  O   UNL     1      -1.292 -11.034  16.675  0.00  0.00    -0.390 OA
ATOM     36  H   UNL     1      -0.864 -10.306  17.156  0.00  0.00    +0.210 HD
ENDBRANCH  13   4
BRANCH   8  15
ATOM     15  C   UNL     1      -4.987 -11.738  13.773  0.00  0.00    +0.121 C 
BRANCH  15  17
ATOM     17  C   UNL     1      -5.632 -10.857  12.749  0.00  0.00    -0.025 A 
ATOM     18  C   UNL     1      -4.891 -10.217  11.742  0.00  0.00    -0.010 A 
ATOM     19  C   UNL     1      -7.016 -10.691  12.828  0.00  0.00    +0.009 A 
ATOM     20  C   UNL     1      -5.561  -9.397  10.803  0.00  0.00    +0.024 A 
ATOM     22  C   UNL     1      -7.675  -9.884  11.905  0.00  0.00    +0.046 A 
ATOM     23  C   UNL     1      -6.953  -9.241  10.899  0.00  0.00    +0.128 A 
ATOM     24  C   UNL     1      -3.498 -10.373  11.647  0.00  0.00    +0.009 A 
ATOM     25  C   UNL     1      -4.818  -8.757   9.797  0.00  0.00    +0.012 A 
ATOM     27  C   UNL     1      -2.777  -9.730  10.642  0.00  0.00    +0.001 A 
ATOM     28  C   UNL     1      -3.436  -8.924   9.718  0.00  0.00    +0.001 A 
BRANCH  23   6
ATOM      6  O   UNL     1      -7.643  -8.460  10.015  0.00  0.00    -0.495 OA
ATOM     33  C   UNL     1      -9.007  -8.801   9.784  0.00  0.00    +0.277 C 
ENDBRANCH  23   6
ENDBRANCH  15  17
ENDBRANCH   8  15
TORSDOF 8
ENDMDL
MODEL 8
REMARK VINA RESULT:      -6.7     28.000     30.446
REMARK  Name = 26743698
REMARK  9 active torsions:
REMARK  status: ('A' for Active; 'I' for Inactive)
REMARK    1  A    between atoms: O_4  and  C_13
REMARK    2  A    between atoms: O_6  and  C_23
REMARK    3  A    between atoms: O_6  and  C_33
REMARK    4  A    between atoms: O_7  and  C_34
REMARK    5  A    between atoms: O_7  and  C_35
REMARK    6  A    between atoms: N_8  and  C_15
REMARK    7  A    between atoms: C_11  and  C_16
REMARK    8  A    between atoms: C_15  and  C_17
REMARK    9  A    between atoms: C_21  and  C_26
REMARK                            x       y       z     vdW  Elec       q    Type
REMARK                         _______ _______ _______ _____ _____    ______ ____
ROOT
ATOM      8  N   UNL     1      12.377   9.059  21.030  0.00  0.00    -0.285 NA
ATOM     11  C   UNL     1      13.039   7.986  21.799  0.00  0.00    +0.149 C 
ATOM     12  C   UNL     1      11.978   6.875  21.920  0.00  0.00    +0.061 C 
ATOM     13  C   UNL     1      10.741   7.434  21.228  0.00  0.00    +0.130 C 
ATOM     14  C   UNL     1      10.944   8.936  21.297  0.00  0.00    +0.116 C 
ENDROOT
BRANCH  11  16
ATOM      5  O   UNL     1      14.197   6.936  19.920  0.00  0.00    -0.336 OA
ATOM      9  N   UNL     1      15.547   7.553  21.596  0.00  0.00    -0.190 NA
ATOM     10  N   UNL     1      15.492   6.576  19.529  0.00  0.00    -0.056 NA
ATOM     16  C   UNL     1      14.318   7.505  21.148  0.00  0.00    +0.245 A 
ATOM     21  C   UNL     1      16.232   6.972  20.569  0.00  0.00    +0.202 A 
BRANCH  21  26
ATOM     26  C   UNL     1      17.656   6.804  20.612  0.00  0.00    +0.023 A 
ATOM     29  C   UNL     1      18.451   7.754  21.252  0.00  0.00    +0.015 A 
ATOM     30  C   UNL     1      18.244   5.689  20.015  0.00  0.00    +0.015 A 
ATOM     31  C   UNL     1      19.836   7.590  21.292  0.00  0.00    +0.046 A 
ATOM     32  C   UNL     1      19.628   5.526  20.055  0.00  0.00    +0.046 A 
ATOM     34  C   UNL     1      20.424   6.476  20.695  0.00  0.00    +0.130 A 
BRANCH  34   7
ATOM      7  O   UNL     1      21.775   6.315  20.734  0.00  0.00    -0.406 OA
BRANCH   7  35
ATOM      1  F   UNL     1      21.388   5.023  22.545  0.00  0.00    -0.133 F 
ATOM      2  F   UNL     1      23.323   4.841  21.547  0.00  0.00    -0.133 F 
ATOM      3  F   UNL     1      22.842   6.644  22.730  0.00  0.00    -0.133 F 
ATOM     35  C   UNL     1      22.349   5.711  21.889  0.00  0.00    +0.575 C 
ENDBRANCH   7  35
ENDBRANCH  34   7
ENDBRANCH  21  26
ENDBRANCH  11  16
BRANCH  13   4
ATOM      4  O   UNL     1       9.565   7.033  21.901  0.00  0.00    -0.390 OA
ATOM     36  H   UNL     1       9.759   6.196  22.355  0.00  0.00    +0.210 HD
ENDBRANCH  13   4
BRANCH   8  15
ATOM     15  C   UNL     1      12.882  10.388  21.346  0.00  0.00    +0.121 C 
BRANCH  15  17
ATOM     17  C   UNL     1      13.836  10.891  20.308  0.00  0.00    -0.025 A 
ATOM     18  C   UNL     1      15.193  11.118  20.590  0.00  0.00    -0.010 A 
ATOM     19  C   UNL     1      13.326  11.130  19.031  0.00  0.00    +0.009 A 
ATOM     20  C   UNL     1      16.044  11.595  19.564  0.00  0.00    +0.024 A 
ATOM     22  C   UNL     1      14.162  11.599  18.022  0.00  0.00    +0.046 A 
ATOM     23  C   UNL     1      15.512  11.830  18.286  0.00  0.00    +0.128 A 
ATOM     24  C   UNL     1      15.724  10.883  21.869  0.00  0.00    +0.009 A 
ATOM     25  C   UNL     1      17.401  11.822  19.848  0.00  0.00    +0.012 A 
ATOM     27  C   UNL     1      17.074  11.114  22.133  0.00  0.00    +0.001 A 
ATOM     28  C   UNL     1      17.911  11.583  21.124  0.00  0.00    +0.001 A 
BRANCH  23   6
ATOM      6  O   UNL     1      16.295  12.290  17.265  0.00  0.00    -0.495 OA
ATOM     33  C   UNL     1      15.624  12.714  16.081  0.00  0.00    +0.277 C 
ENDBRANCH  23   6
ENDBRANCH  15  17
ENDBRANCH   8  15
TORSDOF 8
ENDMDL
MODEL 9
REMARK VINA RESULT:      -6.5     24.521     28.540
REMARK  Name = 26743698
REMARK  9 active torsions:
REMARK  status: ('A' for Active; 'I' for Inactive)
REMARK    1  A    between atoms: O_4  and  C_13
REMARK    2  A    between atoms: O_6  and  C_23
REMARK    3  A    between atoms: O_6  and  C_33
REMARK    4  A    between atoms: O_7  and  C_34
REMARK    5  A    between atoms: O_7  and  C_35
REMARK    6  A    between atoms: N_8  and  C_15
REMARK    7  A    between atoms: C_11  and  C_16
REMARK    8  A    between atoms: C_15  and  C_17
REMARK    9  A    between atoms: C_21  and  C_26
REMARK                            x       y       z     vdW  Elec       q    Type
REMARK                         _______ _______ _______ _____ _____    ______ ____
ROOT
ATOM      8  N   UNL     1     -11.943   9.737  32.953  0.00  0.00    -0.285 NA
ATOM     11  C   UNL     1     -13.262   9.513  32.328  0.00  0.00    +0.149 C 
ATOM     12  C   UNL     1     -13.006   9.631  30.814  0.00  0.00    +0.061 C 
ATOM     13  C   UNL     1     -11.526   9.968  30.689  0.00  0.00    +0.130 C 
ATOM     14  C   UNL     1     -11.188  10.586  32.032  0.00  0.00    +0.116 C 
ENDROOT
BRANCH  11  16
ATOM      5  O   UNL     1     -14.868   8.221  33.640  0.00  0.00    -0.336 OA
ATOM      9  N   UNL     1     -13.583   6.980  32.290  0.00  0.00    -0.190 NA
ATOM     10  N   UNL     1     -15.268   6.893  33.835  0.00  0.00    -0.056 NA
ATOM     16  C   UNL     1     -13.874   8.184  32.716  0.00  0.00    +0.245 A 
ATOM     21  C   UNL     1     -14.464   6.222  33.004  0.00  0.00    +0.202 A 
BRANCH  21  26
ATOM     26  C   UNL     1     -14.517   4.795  32.863  0.00  0.00    +0.023 A 
ATOM     29  C   UNL     1     -15.650   4.095  33.277  0.00  0.00    +0.015 A 
ATOM     30  C   UNL     1     -13.435   4.110  32.312  0.00  0.00    +0.015 A 
ATOM     31  C   UNL     1     -15.700   2.708  33.140  0.00  0.00    +0.046 A 
ATOM     32  C   UNL     1     -13.485   2.723  32.175  0.00  0.00    +0.046 A 
ATOM     34  C   UNL     1     -14.618   2.022  32.588  0.00  0.00    +0.130 A 
BRANCH  34   7
ATOM      7  O   UNL     1     -14.666   0.668  32.454  0.00  0.00    -0.406 OA
BRANCH   7  35
ATOM      1  F   UNL     1     -13.750  -0.131  30.552  0.00  0.00    -0.133 F 
ATOM      2  F   UNL     1     -15.612  -1.033  31.254  0.00  0.00    -0.133 F 
ATOM      3  F   UNL     1     -15.611   1.005  30.399  0.00  0.00    -0.133 F 
ATOM     35  C   UNL     1     -14.928   0.127  31.163  0.00  0.00    +0.575 C 
ENDBRANCH   7  35
ENDBRANCH  34   7
ENDBRANCH  21  26
ENDBRANCH  11  16
BRANCH  13   4
ATOM      4  O   UNL     1     -11.304  10.872  29.625  0.00  0.00    -0.390 OA
ATOM     36  H   UNL     1     -11.285  11.768  30.002  0.00  0.00    +0.210 HD
ENDBRANCH  13   4
BRANCH   8  15
ATOM     15  C   UNL     1     -12.030  10.316  34.286  0.00  0.00    +0.121 C 
BRANCH  15  17
ATOM     17  C   UNL     1     -11.461   9.409  35.334  0.00  0.00    -0.025 A 
ATOM     18  C   UNL     1     -10.090   9.387  35.636  0.00  0.00    -0.010 A 
ATOM     19  C   UNL     1     -12.352   8.575  36.011  0.00  0.00    +0.009 A 
ATOM     20  C   UNL     1      -9.615   8.506  36.637  0.00  0.00    +0.024 A 
ATOM     22  C   UNL     1     -11.885   7.709  36.995  0.00  0.00    +0.046 A 
ATOM     23  C   UNL     1     -10.526   7.674  37.306  0.00  0.00    +0.128 A 
ATOM     24  C   UNL     1      -9.179  10.219  34.965  0.00  0.00    +0.009 A 
ATOM     25  C   UNL     1      -8.243   8.484  36.937  0.00  0.00    +0.012 A 
ATOM     27  C   UNL     1      -7.820  10.184  35.277  0.00  0.00    +0.001 A 
ATOM     28  C   UNL     1      -7.353   9.318  36.262  0.00  0.00    +0.001 A 
BRANCH  23   6
ATOM      6  O   UNL     1     -10.115   6.808  38.280  0.00  0.00    -0.495 OA
ATOM     33  C   UNL     1     -10.118   7.297  39.619  0.00  0.00    +0.277 C 
ENDBRANCH  23   6
ENDBRANCH  15  17
ENDBRANCH   8  15
TORSDOF 8
ENDMDL
MODEL 10
REMARK VINA RESULT:      -6.5     27.664     29.991
REMARK  Name = 26743698
REMARK  9 active torsions:
REMARK  status: ('A' for Active; 'I' for Inactive)
REMARK    1  A    between atoms: O_4  and  C_13
REMARK    2  A    between atoms: O_6  and  C_23
REMARK    3  A    between atoms: O_6  and  C_33
REMARK    4  A    between atoms: O_7  and  C_34
REMARK    5  A    between atoms: O_7  and  C_35
REMARK    6  A    between atoms: N_8  and  C_15
REMARK    7  A    between atoms: C_11  and  C_16
REMARK    8  A    between atoms: C_15  and  C_17
REMARK    9  A    between atoms: C_21  and  C_26
REMARK                            x       y       z     vdW  Elec       q    Type
REMARK                         _______ _______ _______ _____ _____    ______ ____
ROOT
ATOM      8  N   UNL     1      11.767   9.586  21.805  0.00  0.00    -0.285 NA
ATOM     11  C   UNL     1      12.241  10.888  21.294  0.00  0.00    +0.149 C 
ATOM     12  C   UNL     1      11.877  11.900  22.397  0.00  0.00    +0.061 C 
ATOM     13  C   UNL     1      11.162  11.081  23.463  0.00  0.00    +0.130 C 
ATOM     14  C   UNL     1      10.648   9.875  22.700  0.00  0.00    +0.116 C 
ENDROOT
BRANCH  11  16
ATOM      5  O   UNL     1      14.106  11.620  19.893  0.00  0.00    -0.336 OA
ATOM      9  N   UNL     1      14.702  10.268  21.576  0.00  0.00    -0.190 NA
ATOM     10  N   UNL     1      15.493  11.462  19.793  0.00  0.00    -0.056 NA
ATOM     16  C   UNL     1      13.720  10.885  20.969  0.00  0.00    +0.245 A 
ATOM     21  C   UNL     1      15.770  10.653  20.819  0.00  0.00    +0.202 A 
BRANCH  21  26
ATOM     26  C   UNL     1      17.102  10.211  21.117  0.00  0.00    +0.023 A 
ATOM     29  C   UNL     1      18.184  11.064  20.903  0.00  0.00    +0.015 A 
ATOM     30  C   UNL     1      17.314   8.928  21.622  0.00  0.00    +0.015 A 
ATOM     31  C   UNL     1      19.479  10.634  21.192  0.00  0.00    +0.046 A 
ATOM     32  C   UNL     1      18.609   8.498  21.911  0.00  0.00    +0.046 A 
ATOM     34  C   UNL     1      19.691   9.350  21.696  0.00  0.00    +0.130 A 
BRANCH  34   7
ATOM      7  O   UNL     1      20.954   8.930  21.979  0.00  0.00    -0.406 OA
BRANCH   7  35
ATOM      1  F   UNL     1      20.963   6.681  22.171  0.00  0.00    -0.133 F 
ATOM      2  F   UNL     1      20.902   7.540  20.163  0.00  0.00    -0.133 F 
ATOM      3  F   UNL     1      22.750   7.651  21.370  0.00  0.00    -0.133 F 
ATOM     35  C   UNL     1      21.402   7.705  21.406  0.00  0.00    +0.575 C 
ENDBRANCH   7  35
ENDBRANCH  34   7
ENDBRANCH  21  26
ENDBRANCH  11  16
BRANCH  13   4
ATOM      4  O   UNL     1      10.107  11.822  24.044  0.00  0.00    -0.390 OA
ATOM     36  H   UNL     1      10.192  11.744  25.009  0.00  0.00    +0.210 HD
ENDBRANCH  13   4
BRANCH   8  15
ATOM     15  C   UNL     1      11.398   8.654  20.748  0.00  0.00    +0.121 C 
BRANCH  15  17
ATOM     17  C   UNL     1      12.596   8.036  20.096  0.00  0.00    -0.025 A 
ATOM     18  C   UNL     1      12.913   8.267  18.748  0.00  0.00    -0.010 A 
ATOM     19  C   UNL     1      13.400   7.211  20.885  0.00  0.00    +0.009 A 
ATOM     20  C   UNL     1      14.060   7.652  18.190  0.00  0.00    +0.024 A 
ATOM     22  C   UNL     1      14.527   6.606  20.336  0.00  0.00    +0.046 A 
ATOM     23  C   UNL     1      14.856   6.824  18.999  0.00  0.00    +0.128 A 
ATOM     24  C   UNL     1      12.116   9.094  17.939  0.00  0.00    +0.009 A 
ATOM     25  C   UNL     1      14.375   7.883  16.841  0.00  0.00    +0.012 A 
ATOM     27  C   UNL     1      12.445   9.313  16.601  0.00  0.00    +0.001 A 
ATOM     28  C   UNL     1      13.573   8.708  16.053  0.00  0.00    +0.001 A 
BRANCH  23   6
ATOM      6  O   UNL     1      15.972   6.211  18.505  0.00  0.00    -0.495 OA
ATOM     33  C   UNL     1      17.077   6.073  19.395  0.00  0.00    +0.277 C 
ENDBRANCH  23   6
ENDBRANCH  15  17
ENDBRANCH   8  15
TORSDOF 8
ENDMDL
