MODEL 1
REMARK VINA RESULT:      -7.4      0.000      0.000
REMARK  Name = 38029337
REMARK  14 active torsions:
REMARK  status: ('A' for Active; 'I' for Inactive)
REMARK    1  A    between atoms: O_3  and  C_31
REMARK    2  A    between atoms: O_3  and  C_36
REMARK    3  A    between atoms: N_4  and  C_15
REMARK    4  A    between atoms: N_5  and  C_22
REMARK    5  A    between atoms: N_6  and  C_24
REMARK    6  A    between atoms: C_8  and  C_12
REMARK    7  A    between atoms: C_9  and  C_15
REMARK    8  A    between atoms: C_11  and  C_16
REMARK    9  A    between atoms: C_12  and  C_17
REMARK   10  A    between atoms: C_12  and  C_18
REMARK   11  A    between atoms: C_13  and  C_19
REMARK   12  A    between atoms: C_16  and  C_20
REMARK   13  A    between atoms: C_22  and  C_23
REMARK   14  A    between atoms: C_32  and  C_35
REMARK                            x       y       z     vdW  Elec       q    Type
REMARK                         _______ _______ _______ _____ _____    ______ ____
ROOT
ATOM      8  C   UNL     1      -5.179 -10.628  10.921  0.00  0.00    +0.000 C 
ATOM      9  C   UNL     1      -4.666  -9.698   9.795  0.00  0.00    +0.032 C 
ATOM     10  C   UNL     1      -4.603 -10.196  12.278  0.00  0.00    +0.012 C 
ATOM     11  C   UNL     1      -3.063 -10.217  12.290  0.00  0.00    +0.023 C 
ATOM     13  C   UNL     1      -2.480  -9.546  11.063  0.00  0.00    -0.073 C 
ATOM     14  C   UNL     1      -3.215  -9.311   9.962  0.00  0.00    -0.022 C 
ATOM     19  C   UNL     1      -1.044  -9.111  11.147  0.00  0.00    +0.039 C 
ENDROOT
BRANCH   8  12
ATOM     12  C   UNL     1      -6.710 -10.648  10.990  0.00  0.00    -0.013 C 
ATOM     17  C   UNL     1      -7.178 -11.473  12.185  0.00  0.00    +0.007 C 
ATOM     18  C   UNL     1      -7.257  -9.227  11.065  0.00  0.00    +0.007 C 
ENDBRANCH   8  12
BRANCH   9  15
ATOM     15  C   UNL     1      -4.868 -10.336   8.415  0.00  0.00    +0.113 C 
BRANCH  15   4
ATOM      2  O   UNL     1      -7.589 -10.049   7.567  0.00  0.00    -0.253 OA
ATOM      4  N   UNL     1      -5.376  -9.380   7.482  0.00  0.00    -0.299 N 
ATOM      6  N   UNL     1      -6.930  -8.269   6.186  0.00  0.00    -0.269 N 
ATOM     21  C   UNL     1      -6.731  -9.297   7.111  0.00  0.00    +0.304 C 
ATOM     37  H   UNL     1      -4.719  -8.742   7.043  0.00  0.00    +0.150 HD
ATOM     39  H   UNL     1      -6.109  -7.736   5.912  0.00  0.00    +0.156 HD
BRANCH   6  24
ATOM     24  C   UNL     1      -8.144  -7.873   5.577  0.00  0.00    +0.038 A 
ATOM     27  C   UNL     1      -8.302  -7.991   4.197  0.00  0.00    +0.069 A 
ATOM     28  C   UNL     1      -9.183  -7.365   6.357  0.00  0.00    +0.023 A 
ATOM     31  C   UNL     1      -9.499  -7.600   3.595  0.00  0.00    +0.122 A 
ATOM     33  C   UNL     1     -10.379  -6.974   5.757  0.00  0.00    +0.005 A 
ATOM     34  C   UNL     1     -10.537  -7.091   4.375  0.00  0.00    +0.046 A 
BRANCH  31   3
ATOM      3  O   UNL     1      -9.654  -7.715   2.248  0.00  0.00    -0.495 OA
ATOM     36  C   UNL     1      -8.882  -8.718   1.590  0.00  0.00    +0.277 C 
ENDBRANCH  31   3
ENDBRANCH   6  24
ENDBRANCH  15   4
ENDBRANCH   9  15
BRANCH  11  16
ATOM     16  C   UNL     1      -2.531 -11.647  12.439  0.00  0.00    +0.103 C 
BRANCH  16  20
ATOM      1  O   UNL     1      -1.933 -13.124  14.259  0.00  0.00    -0.276 OA
ATOM      5  N   UNL     1      -2.316 -10.873  14.690  0.00  0.00    -0.311 N 
ATOM     20  C   UNL     1      -2.223 -11.993  13.878  0.00  0.00    +0.214 C 
ATOM     38  H   UNL     1      -2.493  -9.968  14.263  0.00  0.00    +0.149 HD
BRANCH   5  22
ATOM     22  C   UNL     1      -2.075 -10.909  16.114  0.00  0.00    +0.139 C 
BRANCH  22  23
ATOM     23  C   UNL     1      -3.354 -10.922  16.901  0.00  0.00    -0.030 A 
ATOM     25  C   UNL     1      -4.486 -10.276  16.402  0.00  0.00    +0.006 A 
ATOM     26  C   UNL     1      -3.411 -11.581  18.128  0.00  0.00    +0.006 A 
ATOM     29  C   UNL     1      -5.674 -10.289  17.132  0.00  0.00    +0.019 A 
ATOM     30  C   UNL     1      -4.600 -11.593  18.859  0.00  0.00    +0.019 A 
ATOM     32  C   UNL     1      -5.731 -10.947  18.360  0.00  0.00    +0.052 A 
BRANCH  32  35
ATOM      7  N   UNL     1      -7.938 -10.969  19.716  0.00  0.00    -0.191 NA
ATOM     35  C   UNL     1      -6.950 -10.960  19.108  0.00  0.00    +0.099 C 
ENDBRANCH  32  35
ENDBRANCH  22  23
ENDBRANCH   5  22
ENDBRANCH  16  20
ENDBRANCH  11  16
TORSDOF 10
ENDMDL
MODEL 2
REMARK VINA RESULT:      -7.3      4.418     10.593
REMARK  Name = 38029337
REMARK  14 active torsions:
REMARK  status: ('A' for Active; 'I' for Inactive)
REMARK    1  A    between atoms: O_3  and  C_31
REMARK    2  A    between atoms: O_3  and  C_36
REMARK    3  A    between atoms: N_4  and  C_15
REMARK    4  A    between atoms: N_5  and  C_22
REMARK    5  A    between atoms: N_6  and  C_24
REMARK    6  A    between atoms: C_8  and  C_12
REMARK    7  A    between atoms: C_9  and  C_15
REMARK    8  A    between atoms: C_11  and  C_16
REMARK    9  A    between atoms: C_12  and  C_17
REMARK   10  A    between atoms: C_12  and  C_18
REMARK   11  A    between atoms: C_13  and  C_19
REMARK   12  A    between atoms: C_16  and  C_20
REMARK   13  A    between atoms: C_22  and  C_23
REMARK   14  A    between atoms: C_32  and  C_35
REMARK                            x       y       z     vdW  Elec       q    Type
REMARK                         _______ _______ _______ _____ _____    ______ ____
ROOT
ATOM      8  C   UNL     1      -5.878 -10.542  15.208  0.00  0.00    +0.000 C 
ATOM      9  C   UNL     1      -6.759 -10.661  16.477  0.00  0.00    +0.032 C 
ATOM     10  C   UNL     1      -4.839 -11.673  15.169  0.00  0.00    +0.012 C 
ATOM     11  C   UNL     1      -3.920 -11.664  16.404  0.00  0.00    +0.023 C 
ATOM     13  C   UNL     1      -4.707 -11.513  17.691  0.00  0.00    -0.073 C 
ATOM     14  C   UNL     1      -5.978 -11.076  17.702  0.00  0.00    -0.022 C 
ATOM     19  C   UNL     1      -4.013 -11.919  18.960  0.00  0.00    +0.039 C 
ENDROOT
BRANCH   8  12
ATOM     12  C   UNL     1      -6.718 -10.564  13.928  0.00  0.00    -0.013 C 
ATOM     17  C   UNL     1      -6.141  -9.600  12.896  0.00  0.00    +0.007 C 
ATOM     18  C   UNL     1      -6.793 -11.979  13.365  0.00  0.00    +0.007 C 
ENDBRANCH   8  12
BRANCH   9  15
ATOM     15  C   UNL     1      -7.498  -9.349  16.763  0.00  0.00    +0.113 C 
BRANCH  15   4
ATOM      2  O   UNL     1     -10.021 -10.635  17.192  0.00  0.00    -0.253 OA
ATOM      4  N   UNL     1      -8.217  -9.428  17.995  0.00  0.00    -0.299 N 
ATOM      6  N   UNL     1      -9.919  -9.996  19.449  0.00  0.00    -0.269 N 
ATOM     21  C   UNL     1      -9.457 -10.080  18.133  0.00  0.00    +0.304 C 
ATOM     37  H   UNL     1      -7.825  -8.968  18.811  0.00  0.00    +0.150 HD
ATOM     39  H   UNL     1      -9.326  -9.499  20.109  0.00  0.00    +0.156 HD
BRANCH   6  24
ATOM     24  C   UNL     1     -11.118 -10.522  19.983  0.00  0.00    +0.038 A 
ATOM     27  C   UNL     1     -11.164 -11.845  20.421  0.00  0.00    +0.069 A 
ATOM     28  C   UNL     1     -12.254  -9.718  20.072  0.00  0.00    +0.023 A 
ATOM     31  C   UNL     1     -12.347 -12.365  20.947  0.00  0.00    +0.122 A 
ATOM     33  C   UNL     1     -13.437 -10.236  20.597  0.00  0.00    +0.005 A 
ATOM     34  C   UNL     1     -13.484 -11.561  21.035  0.00  0.00    +0.046 A 
BRANCH  31   3
ATOM      3  O   UNL     1     -12.393 -13.656  21.375  0.00  0.00    -0.495 OA
ATOM     36  C   UNL     1     -11.198 -14.196  21.935  0.00  0.00    +0.277 C 
ENDBRANCH  31   3
ENDBRANCH   6  24
ENDBRANCH  15   4
ENDBRANCH   9  15
BRANCH  11  16
ATOM     16  C   UNL     1      -2.847 -10.577  16.287  0.00  0.00    +0.103 C 
BRANCH  16  20
ATOM      1  O   UNL     1      -0.901 -11.492  15.178  0.00  0.00    -0.276 OA
ATOM      5  N   UNL     1      -2.384 -10.165  13.978  0.00  0.00    -0.311 N 
ATOM     20  C   UNL     1      -1.923 -10.814  15.113  0.00  0.00    +0.214 C 
ATOM     38  H   UNL     1      -3.280  -9.688  14.013  0.00  0.00    +0.149 HD
BRANCH   5  22
ATOM     22  C   UNL     1      -1.698 -10.216  12.707  0.00  0.00    +0.139 C 
BRANCH  22  23
ATOM     23  C   UNL     1      -2.653 -10.375  11.559  0.00  0.00    -0.030 A 
ATOM     25  C   UNL     1      -3.366 -11.564  11.406  0.00  0.00    +0.006 A 
ATOM     26  C   UNL     1      -2.827  -9.335  10.647  0.00  0.00    +0.006 A 
ATOM     29  C   UNL     1      -4.254 -11.712  10.340  0.00  0.00    +0.019 A 
ATOM     30  C   UNL     1      -3.714  -9.483   9.580  0.00  0.00    +0.019 A 
ATOM     32  C   UNL     1      -4.428 -10.672   9.427  0.00  0.00    +0.052 A 
BRANCH  32  35
ATOM      7  N   UNL     1      -6.075 -10.950   7.449  0.00  0.00    -0.191 NA
ATOM     35  C   UNL     1      -5.337 -10.824   8.335  0.00  0.00    +0.099 C 
ENDBRANCH  32  35
ENDBRANCH  22  23
ENDBRANCH   5  22
ENDBRANCH  16  20
ENDBRANCH  11  16
TORSDOF 10
ENDMDL
MODEL 3
REMARK VINA RESULT:      -7.0      3.346     10.586
REMARK  Name = 38029337
REMARK  14 active torsions:
REMARK  status: ('A' for Active; 'I' for Inactive)
REMARK    1  A    between atoms: O_3  and  C_31
REMARK    2  A    between atoms: O_3  and  C_36
REMARK    3  A    between atoms: N_4  and  C_15
REMARK    4  A    between atoms: N_5  and  C_22
REMARK    5  A    between atoms: N_6  and  C_24
REMARK    6  A    between atoms: C_8  and  C_12
REMARK    7  A    between atoms: C_9  and  C_15
REMARK    8  A    between atoms: C_11  and  C_16
REMARK    9  A    between atoms: C_12  and  C_17
REMARK   10  A    between atoms: C_12  and  C_18
REMARK   11  A    between atoms: C_13  and  C_19
REMARK   12  A    between atoms: C_16  and  C_20
REMARK   13  A    between atoms: C_22  and  C_23
REMARK   14  A    between atoms: C_32  and  C_35
REMARK                            x       y       z     vdW  Elec       q    Type
REMARK                         _______ _______ _______ _____ _____    ______ ____
ROOT
ATOM      8  C   UNL     1      -2.919 -12.544  12.620  0.00  0.00    +0.000 C 
ATOM      9  C   UNL     1      -1.875 -11.400  12.665  0.00  0.00    +0.032 C 
ATOM     10  C   UNL     1      -3.375 -12.795  11.174  0.00  0.00    +0.012 C 
ATOM     11  C   UNL     1      -3.997 -11.541  10.532  0.00  0.00    +0.023 C 
ATOM     13  C   UNL     1      -3.148 -10.308  10.768  0.00  0.00    -0.073 C 
ATOM     14  C   UNL     1      -2.197 -10.268  11.718  0.00  0.00    -0.022 C 
ATOM     19  C   UNL     1      -3.389  -9.137   9.858  0.00  0.00    +0.039 C 
ENDROOT
BRANCH   8  12
ATOM     12  C   UNL     1      -2.370 -13.840  13.224  0.00  0.00    -0.013 C 
ATOM     17  C   UNL     1      -3.264 -14.316  14.364  0.00  0.00    +0.007 C 
ATOM     18  C   UNL     1      -2.243 -14.915  12.150  0.00  0.00    +0.007 C 
ENDBRANCH   8  12
BRANCH   9  15
ATOM     15  C   UNL     1      -1.723 -10.847  14.087  0.00  0.00    +0.113 C 
BRANCH  15   4
ATOM      2  O   UNL     1      -3.149 -11.609  16.451  0.00  0.00    -0.253 OA
ATOM      4  N   UNL     1      -2.957 -10.299  14.554  0.00  0.00    -0.299 N 
ATOM      6  N   UNL     1      -4.787 -10.009  15.932  0.00  0.00    -0.269 N 
ATOM     21  C   UNL     1      -3.603 -10.724  15.730  0.00  0.00    +0.304 C 
ATOM     37  H   UNL     1      -3.406  -9.581  13.994  0.00  0.00    +0.150 HD
ATOM     39  H   UNL     1      -5.019  -9.305  15.236  0.00  0.00    +0.156 HD
BRANCH   6  24
ATOM     24  C   UNL     1      -5.711 -10.144  16.994  0.00  0.00    +0.038 A 
ATOM     27  C   UNL     1      -7.049  -9.803  16.801  0.00  0.00    +0.069 A 
ATOM     28  C   UNL     1      -5.284 -10.618  18.235  0.00  0.00    +0.023 A 
ATOM     31  C   UNL     1      -7.961  -9.934  17.849  0.00  0.00    +0.122 A 
ATOM     33  C   UNL     1      -6.195 -10.750  19.282  0.00  0.00    +0.005 A 
ATOM     34  C   UNL     1      -7.534 -10.408  19.089  0.00  0.00    +0.046 A 
BRANCH  31   3
ATOM      3  O   UNL     1      -9.268  -9.602  17.661  0.00  0.00    -0.495 OA
ATOM     36  C   UNL     1      -9.537  -8.303  17.136  0.00  0.00    +0.277 C 
ENDBRANCH  31   3
ENDBRANCH   6  24
ENDBRANCH  15   4
ENDBRANCH   9  15
BRANCH  11  16
ATOM     16  C   UNL     1      -5.432 -11.322  11.024  0.00  0.00    +0.103 C 
BRANCH  16  20
ATOM      1  O   UNL     1      -7.624 -11.071  10.031  0.00  0.00    -0.276 OA
ATOM      5  N   UNL     1      -5.808 -11.596   8.679  0.00  0.00    -0.311 N 
ATOM     20  C   UNL     1      -6.427 -11.307   9.886  0.00  0.00    +0.214 C 
ATOM     38  H   UNL     1      -4.798 -11.707   8.658  0.00  0.00    +0.149 HD
BRANCH   5  22
ATOM     22  C   UNL     1      -6.517 -11.653   7.422  0.00  0.00    +0.139 C 
BRANCH  22  23
ATOM     23  C   UNL     1      -5.592 -11.898   6.264  0.00  0.00    -0.030 A 
ATOM     25  C   UNL     1      -4.243 -12.166   6.495  0.00  0.00    +0.006 A 
ATOM     26  C   UNL     1      -6.082 -11.858   4.960  0.00  0.00    +0.006 A 
ATOM     29  C   UNL     1      -3.384 -12.394   5.421  0.00  0.00    +0.019 A 
ATOM     30  C   UNL     1      -5.222 -12.086   3.885  0.00  0.00    +0.019 A 
ATOM     32  C   UNL     1      -3.873 -12.354   4.116  0.00  0.00    +0.052 A 
BRANCH  32  35
ATOM      7  N   UNL     1      -2.276 -12.778   2.122  0.00  0.00    -0.191 NA
ATOM     35  C   UNL     1      -2.992 -12.588   3.015  0.00  0.00    +0.099 C 
ENDBRANCH  32  35
ENDBRANCH  22  23
ENDBRANCH   5  22
ENDBRANCH  16  20
ENDBRANCH  11  16
TORSDOF 10
ENDMDL
MODEL 4
REMARK VINA RESULT:      -6.9     27.296     31.039
REMARK  Name = 38029337
REMARK  14 active torsions:
REMARK  status: ('A' for Active; 'I' for Inactive)
REMARK    1  A    between atoms: O_3  and  C_31
REMARK    2  A    between atoms: O_3  and  C_36
REMARK    3  A    between atoms: N_4  and  C_15
REMARK    4  A    between atoms: N_5  and  C_22
REMARK    5  A    between atoms: N_6  and  C_24
REMARK    6  A    between atoms: C_8  and  C_12
REMARK    7  A    between atoms: C_9  and  C_15
REMARK    8  A    between atoms: C_11  and  C_16
REMARK    9  A    between atoms: C_12  and  C_17
REMARK   10  A    between atoms: C_12  and  C_18
REMARK   11  A    between atoms: C_13  and  C_19
REMARK   12  A    between atoms: C_16  and  C_20
REMARK   13  A    between atoms: C_22  and  C_23
REMARK   14  A    between atoms: C_32  and  C_35
REMARK                            x       y       z     vdW  Elec       q    Type
REMARK                         _______ _______ _______ _____ _____    ______ ____
ROOT
ATOM      8  C   UNL     1      13.464   9.249  18.928  0.00  0.00    +0.000 C 
ATOM      9  C   UNL     1      12.718   7.945  19.306  0.00  0.00    +0.032 C 
ATOM     10  C   UNL     1      14.957   8.966  18.702  0.00  0.00    +0.012 C 
ATOM     11  C   UNL     1      15.631   8.361  19.948  0.00  0.00    +0.023 C 
ATOM     13  C   UNL     1      14.811   7.234  20.541  0.00  0.00    -0.073 C 
ATOM     14  C   UNL     1      13.514   7.056  20.233  0.00  0.00    -0.022 C 
ATOM     19  C   UNL     1      15.528   6.288  21.463  0.00  0.00    +0.039 C 
ENDROOT
BRANCH   8  12
ATOM     12  C   UNL     1      12.865   9.905  17.680  0.00  0.00    -0.013 C 
ATOM     17  C   UNL     1      13.818  10.958  17.124  0.00  0.00    +0.007 C 
ATOM     18  C   UNL     1      12.548   8.850  16.626  0.00  0.00    +0.007 C 
ENDBRANCH   8  12
BRANCH   9  15
ATOM     15  C   UNL     1      11.356   8.252  19.940  0.00  0.00    +0.113 C 
BRANCH  15   4
ATOM      2  O   UNL     1      11.505   9.020  22.695  0.00  0.00    -0.253 OA
ATOM      4  N   UNL     1      11.324   9.583  20.458  0.00  0.00    -0.299 N 
ATOM      6  N   UNL     1      11.349  11.268  22.037  0.00  0.00    -0.269 N 
ATOM     21  C   UNL     1      11.404   9.887  21.830  0.00  0.00    +0.304 C 
ATOM     37  H   UNL     1      11.214  10.351  19.803  0.00  0.00    +0.150 HD
ATOM     39  H   UNL     1      11.265  11.850  21.207  0.00  0.00    +0.156 HD
BRANCH   6  24
ATOM     24  C   UNL     1      11.398  11.964  23.267  0.00  0.00    +0.038 A 
ATOM     27  C   UNL     1      12.412  11.689  24.183  0.00  0.00    +0.069 A 
ATOM     28  C   UNL     1      10.432  12.926  23.564  0.00  0.00    +0.023 A 
ATOM     31  C   UNL     1      12.461  12.374  25.398  0.00  0.00    +0.122 A 
ATOM     33  C   UNL     1      10.480  13.611  24.777  0.00  0.00    +0.005 A 
ATOM     34  C   UNL     1      11.494  13.335  25.695  0.00  0.00    +0.046 A 
BRANCH  31   3
ATOM      3  O   UNL     1      13.451  12.106  26.292  0.00  0.00    -0.495 OA
ATOM     36  C   UNL     1      14.726  11.751  25.760  0.00  0.00    +0.277 C 
ENDBRANCH  31   3
ENDBRANCH   6  24
ENDBRANCH  15   4
ENDBRANCH   9  15
BRANCH  11  16
ATOM     16  C   UNL     1      15.920   9.440  20.997  0.00  0.00    +0.103 C 
BRANCH  16  20
ATOM      1  O   UNL     1      18.043  10.530  20.598  0.00  0.00    -0.276 OA
ATOM      5  N   UNL     1      17.927   8.766  22.108  0.00  0.00    -0.311 N 
ATOM     20  C   UNL     1      17.403   9.664  21.190  0.00  0.00    +0.214 C 
ATOM     38  H   UNL     1      17.296   8.136  22.594  0.00  0.00    +0.149 HD
BRANCH   5  22
ATOM     22  C   UNL     1      19.321   8.748  22.486  0.00  0.00    +0.139 C 
BRANCH  22  23
ATOM     23  C   UNL     1      19.977   7.438  22.153  0.00  0.00    -0.030 A 
ATOM     25  C   UNL     1      19.552   6.709  21.043  0.00  0.00    +0.006 A 
ATOM     26  C   UNL     1      21.011   6.953  22.953  0.00  0.00    +0.006 A 
ATOM     29  C   UNL     1      20.161   5.493  20.733  0.00  0.00    +0.019 A 
ATOM     30  C   UNL     1      21.620   5.737  22.642  0.00  0.00    +0.019 A 
ATOM     32  C   UNL     1      21.195   5.007  21.532  0.00  0.00    +0.052 A 
BRANCH  32  35
ATOM      7  N   UNL     1      22.326   2.750  20.956  0.00  0.00    -0.191 NA
ATOM     35  C   UNL     1      21.819   3.761  21.214  0.00  0.00    +0.099 C 
ENDBRANCH  32  35
ENDBRANCH  22  23
ENDBRANCH   5  22
ENDBRANCH  16  20
ENDBRANCH  11  16
TORSDOF 10
ENDMDL
MODEL 5
REMARK VINA RESULT:      -6.9     23.782     28.937
REMARK  Name = 38029337
REMARK  14 active torsions:
REMARK  status: ('A' for Active; 'I' for Inactive)
REMARK    1  A    between atoms: O_3  and  C_31
REMARK    2  A    between atoms: O_3  and  C_36
REMARK    3  A    between atoms: N_4  and  C_15
REMARK    4  A    between atoms: N_5  and  C_22
REMARK    5  A    between atoms: N_6  and  C_24
REMARK    6  A    between atoms: C_8  and  C_12
REMARK    7  A    between atoms: C_9  and  C_15
REMARK    8  A    between atoms: C_11  and  C_16
REMARK    9  A    between atoms: C_12  and  C_17
REMARK   10  A    between atoms: C_12  and  C_18
REMARK   11  A    between atoms: C_13  and  C_19
REMARK   12  A    between atoms: C_16  and  C_20
REMARK   13  A    between atoms: C_22  and  C_23
REMARK   14  A    between atoms: C_32  and  C_35
REMARK                            x       y       z     vdW  Elec       q    Type
REMARK                         _______ _______ _______ _____ _____    ______ ____
ROOT
ATOM      8  C   UNL     1     -12.724   7.869  35.170  0.00  0.00    +0.000 C 
ATOM      9  C   UNL     1     -14.035   7.074  34.951  0.00  0.00    +0.032 C 
ATOM     10  C   UNL     1     -12.830   9.262  34.532  0.00  0.00    +0.012 C 
ATOM     11  C   UNL     1     -13.111   9.191  33.019  0.00  0.00    +0.023 C 
ATOM     13  C   UNL     1     -14.224   8.214  32.698  0.00  0.00    -0.073 C 
ATOM     14  C   UNL     1     -14.632   7.283  33.579  0.00  0.00    -0.022 C 
ATOM     19  C   UNL     1     -14.888   8.361  31.359  0.00  0.00    +0.039 C 
ENDROOT
BRANCH   8  12
ATOM     12  C   UNL     1     -12.382   8.004  36.657  0.00  0.00    -0.013 C 
ATOM     17  C   UNL     1     -10.886   7.802  36.879  0.00  0.00    +0.007 C 
ATOM     18  C   UNL     1     -12.829   9.363  37.184  0.00  0.00    +0.007 C 
ENDBRANCH   8  12
BRANCH   9  15
ATOM     15  C   UNL     1     -13.818   5.574  35.189  0.00  0.00    +0.113 C 
BRANCH  15   4
ATOM      2  O   UNL     1     -13.290   4.089  32.798  0.00  0.00    -0.253 OA
ATOM      4  N   UNL     1     -14.757   4.800  34.440  0.00  0.00    -0.299 N 
ATOM      6  N   UNL     1     -15.543   3.429  32.756  0.00  0.00    -0.269 N 
ATOM     21  C   UNL     1     -14.425   4.093  33.269  0.00  0.00    +0.304 C 
ATOM     37  H   UNL     1     -15.722   4.779  34.754  0.00  0.00    +0.150 HD
ATOM     39  H   UNL     1     -16.413   3.536  33.271  0.00  0.00    +0.156 HD
BRANCH   6  24
ATOM     24  C   UNL     1     -15.616   2.619  31.599  0.00  0.00    +0.038 A 
ATOM     27  C   UNL     1     -14.997   1.369  31.584  0.00  0.00    +0.069 A 
ATOM     28  C   UNL     1     -16.305   3.070  30.474  0.00  0.00    +0.023 A 
ATOM     31  C   UNL     1     -15.067   0.570  30.443  0.00  0.00    +0.122 A 
ATOM     33  C   UNL     1     -16.376   2.271  29.333  0.00  0.00    +0.005 A 
ATOM     34  C   UNL     1     -15.757   1.021  29.317  0.00  0.00    +0.046 A 
BRANCH  31   3
ATOM      3  O   UNL     1     -14.464  -0.650  30.427  0.00  0.00    -0.495 OA
ATOM     36  C   UNL     1     -13.491  -0.879  29.409  0.00  0.00    +0.277 C 
ENDBRANCH  31   3
ENDBRANCH   6  24
ENDBRANCH  15   4
ENDBRANCH   9  15
BRANCH  11  16
ATOM     16  C   UNL     1     -11.839   8.850  32.236  0.00  0.00    +0.103 C 
BRANCH  16  20
ATOM      1  O   UNL     1     -10.233  10.654  32.379  0.00  0.00    -0.276 OA
ATOM      5  N   UNL     1     -11.604  10.486  30.510  0.00  0.00    -0.311 N 
ATOM     20  C   UNL     1     -11.121  10.088  31.748  0.00  0.00    +0.214 C 
ATOM     38  H   UNL     1     -12.292   9.906  30.040  0.00  0.00    +0.149 HD
BRANCH   5  22
ATOM     22  C   UNL     1     -11.103  11.642  29.803  0.00  0.00    +0.139 C 
BRANCH  22  23
ATOM     23  C   UNL     1     -11.351  11.548  28.324  0.00  0.00    -0.030 A 
ATOM     25  C   UNL     1     -10.779  10.512  27.587  0.00  0.00    +0.006 A 
ATOM     26  C   UNL     1     -12.153  12.496  27.691  0.00  0.00    +0.006 A 
ATOM     29  C   UNL     1     -11.010  10.424  26.214  0.00  0.00    +0.019 A 
ATOM     30  C   UNL     1     -12.384  12.408  26.317  0.00  0.00    +0.019 A 
ATOM     32  C   UNL     1     -11.812  11.372  25.579  0.00  0.00    +0.052 A 
BRANCH  32  35
ATOM      7  N   UNL     1     -12.239  11.209  23.030  0.00  0.00    -0.191 NA
ATOM     35  C   UNL     1     -12.048  11.281  24.172  0.00  0.00    +0.099 C 
ENDBRANCH  32  35
ENDBRANCH  22  23
ENDBRANCH   5  22
ENDBRANCH  16  20
ENDBRANCH  11  16
TORSDOF 10
ENDMDL
MODEL 6
REMARK VINA RESULT:      -6.6     23.445     27.465
REMARK  Name = 38029337
REMARK  14 active torsions:
REMARK  status: ('A' for Active; 'I' for Inactive)
REMARK    1  A    between atoms: O_3  and  C_31
REMARK    2  A    between atoms: O_3  and  C_36
REMARK    3  A    between atoms: N_4  and  C_15
REMARK    4  A    between atoms: N_5  and  C_22
REMARK    5  A    between atoms: N_6  and  C_24
REMARK    6  A    between atoms: C_8  and  C_12
REMARK    7  A    between atoms: C_9  and  C_15
REMARK    8  A    between atoms: C_11  and  C_16
REMARK    9  A    between atoms: C_12  and  C_17
REMARK   10  A    between atoms: C_12  and  C_18
REMARK   11  A    between atoms: C_13  and  C_19
REMARK   12  A    between atoms: C_16  and  C_20
REMARK   13  A    between atoms: C_22  and  C_23
REMARK   14  A    between atoms: C_32  and  C_35
REMARK                            x       y       z     vdW  Elec       q    Type
REMARK                         _______ _______ _______ _____ _____    ______ ____
ROOT
ATOM      8  C   UNL     1       8.794   8.682   5.125  0.00  0.00    +0.000 C 
ATOM      9  C   UNL     1       8.711   8.295   6.623  0.00  0.00    +0.032 C 
ATOM     10  C   UNL     1       8.338   7.510   4.243  0.00  0.00    +0.012 C 
ATOM     11  C   UNL     1       9.188   6.245   4.468  0.00  0.00    +0.023 C 
ATOM     13  C   UNL     1       9.376   5.948   5.942  0.00  0.00    -0.073 C 
ATOM     14  C   UNL     1       9.146   6.873   6.891  0.00  0.00    -0.022 C 
ATOM     19  C   UNL     1       9.793   4.550   6.303  0.00  0.00    +0.039 C 
ENDROOT
BRANCH   8  12
ATOM     12  C   UNL     1       7.956   9.925   4.811  0.00  0.00    -0.013 C 
ATOM     17  C   UNL     1       8.829  11.014   4.197  0.00  0.00    +0.007 C 
ATOM     18  C   UNL     1       6.802   9.566   3.881  0.00  0.00    +0.007 C 
ENDBRANCH   8  12
BRANCH   9  15
ATOM     15  C   UNL     1       9.538   9.253   7.488  0.00  0.00    +0.113 C 
BRANCH  15   4
ATOM      2  O   UNL     1      11.745  10.145   5.896  0.00  0.00    -0.253 OA
ATOM      4  N   UNL     1      10.894   8.811   7.582  0.00  0.00    -0.299 N 
ATOM      6  N   UNL     1      13.145   8.682   7.084  0.00  0.00    -0.269 N 
ATOM     21  C   UNL     1      11.931   9.296   6.764  0.00  0.00    +0.304 C 
ATOM     37  H   UNL     1      11.117   8.088   8.260  0.00  0.00    +0.150 HD
ATOM     39  H   UNL     1      13.125   7.997   7.835  0.00  0.00    +0.156 HD
BRANCH   6  24
ATOM     24  C   UNL     1      14.410   8.900   6.490  0.00  0.00    +0.038 A 
ATOM     27  C   UNL     1      15.020  10.149   6.589  0.00  0.00    +0.069 A 
ATOM     28  C   UNL     1      15.047   7.864   5.807  0.00  0.00    +0.023 A 
ATOM     31  C   UNL     1      16.268  10.365   6.002  0.00  0.00    +0.122 A 
ATOM     33  C   UNL     1      16.294   8.078   5.221  0.00  0.00    +0.005 A 
ATOM     34  C   UNL     1      16.904   9.330   5.318  0.00  0.00    +0.046 A 
BRANCH  31   3
ATOM      3  O   UNL     1      16.864  11.585   6.097  0.00  0.00    -0.495 OA
ATOM     36  C   UNL     1      17.899  11.875   5.159  0.00  0.00    +0.277 C 
ENDBRANCH  31   3
ENDBRANCH   6  24
ENDBRANCH  15   4
ENDBRANCH   9  15
BRANCH  11  16
ATOM     16  C   UNL     1      10.539   6.353   3.753  0.00  0.00    +0.103 C 
BRANCH  16  20
ATOM      1  O   UNL     1      10.088   5.470   1.545  0.00  0.00    -0.276 OA
ATOM      5  N   UNL     1      11.508   4.311   2.974  0.00  0.00    -0.311 N 
ATOM     20  C   UNL     1      10.666   5.355   2.623  0.00  0.00    +0.214 C 
ATOM     38  H   UNL     1      11.993   4.348   3.866  0.00  0.00    +0.149 HD
BRANCH   5  22
ATOM     22  C   UNL     1      11.813   3.211   2.089  0.00  0.00    +0.139 C 
BRANCH  22  23
ATOM     23  C   UNL     1      12.997   3.505   1.213  0.00  0.00    -0.030 A 
ATOM     25  C   UNL     1      14.273   3.584   1.770  0.00  0.00    +0.006 A 
ATOM     26  C   UNL     1      12.821   3.697  -0.157  0.00  0.00    +0.006 A 
ATOM     29  C   UNL     1      15.373   3.856   0.958  0.00  0.00    +0.019 A 
ATOM     30  C   UNL     1      13.921   3.970  -0.970  0.00  0.00    +0.019 A 
ATOM     32  C   UNL     1      15.197   4.049  -0.413  0.00  0.00    +0.052 A 
BRANCH  32  35
ATOM      7  N   UNL     1      17.240   4.556  -1.922  0.00  0.00    -0.191 NA
ATOM     35  C   UNL     1      16.325   4.328  -1.245  0.00  0.00    +0.099 C 
ENDBRANCH  32  35
ENDBRANCH  22  23
ENDBRANCH   5  22
ENDBRANCH  16  20
ENDBRANCH  11  16
TORSDOF 10
ENDMDL
MODEL 7
REMARK VINA RESULT:      -6.6     24.852     29.701
REMARK  Name = 38029337
REMARK  14 active torsions:
REMARK  status: ('A' for Active; 'I' for Inactive)
REMARK    1  A    between atoms: O_3  and  C_31
REMARK    2  A    between atoms: O_3  and  C_36
REMARK    3  A    between atoms: N_4  and  C_15
REMARK    4  A    between atoms: N_5  and  C_22
REMARK    5  A    between atoms: N_6  and  C_24
REMARK    6  A    between atoms: C_8  and  C_12
REMARK    7  A    between atoms: C_9  and  C_15
REMARK    8  A    between atoms: C_11  and  C_16
REMARK    9  A    between atoms: C_12  and  C_17
REMARK   10  A    between atoms: C_12  and  C_18
REMARK   11  A    between atoms: C_13  and  C_19
REMARK   12  A    between atoms: C_16  and  C_20
REMARK   13  A    between atoms: C_22  and  C_23
REMARK   14  A    between atoms: C_32  and  C_35
REMARK                            x       y       z     vdW  Elec       q    Type
REMARK                         _______ _______ _______ _____ _____    ______ ____
ROOT
ATOM      8  C   UNL     1     -12.505   8.492  34.845  0.00  0.00    +0.000 C 
ATOM      9  C   UNL     1     -13.768   7.952  34.131  0.00  0.00    +0.032 C 
ATOM     10  C   UNL     1     -12.196   9.923  34.379  0.00  0.00    +0.012 C 
ATOM     11  C   UNL     1     -11.970  10.005  32.858  0.00  0.00    +0.023 C 
ATOM     13  C   UNL     1     -13.041   9.259  32.088  0.00  0.00    -0.073 C 
ATOM     14  C   UNL     1     -13.843   8.355  32.676  0.00  0.00    -0.022 C 
ATOM     19  C   UNL     1     -13.198   9.610  30.635  0.00  0.00    +0.039 C 
ENDROOT
BRANCH   8  12
ATOM     12  C   UNL     1     -12.657   8.464  36.369  0.00  0.00    -0.013 C 
ATOM     17  C   UNL     1     -11.592   7.568  36.994  0.00  0.00    +0.007 C 
ATOM     18  C   UNL     1     -12.578   9.877  36.938  0.00  0.00    +0.007 C 
ENDBRANCH   8  12
BRANCH   9  15
ATOM     15  C   UNL     1     -13.856   6.425  34.242  0.00  0.00    +0.113 C 
BRANCH  15   4
ATOM      2  O   UNL     1     -14.745   3.776  33.614  0.00  0.00    -0.253 OA
ATOM      4  N   UNL     1     -13.898   5.823  32.947  0.00  0.00    -0.299 N 
ATOM      6  N   UNL     1     -14.277   4.197  31.352  0.00  0.00    -0.269 N 
ATOM     21  C   UNL     1     -14.350   4.511  32.712  0.00  0.00    +0.304 C 
ATOM     37  H   UNL     1     -13.560   6.362  32.156  0.00  0.00    +0.150 HD
ATOM     39  H   UNL     1     -13.925   4.924  30.735  0.00  0.00    +0.156 HD
BRANCH   6  24
ATOM     24  C   UNL     1     -14.636   2.983  30.722  0.00  0.00    +0.038 A 
ATOM     27  C   UNL     1     -13.768   1.892  30.764  0.00  0.00    +0.069 A 
ATOM     28  C   UNL     1     -15.858   2.876  30.058  0.00  0.00    +0.023 A 
ATOM     31  C   UNL     1     -14.122   0.694  30.142  0.00  0.00    +0.122 A 
ATOM     33  C   UNL     1     -16.212   1.680  29.436  0.00  0.00    +0.005 A 
ATOM     34  C   UNL     1     -15.343   0.588  29.477  0.00  0.00    +0.046 A 
BRANCH  31   3
ATOM      3  O   UNL     1     -13.275  -0.371  30.183  0.00  0.00    -0.495 OA
ATOM     36  C   UNL     1     -13.284  -1.249  29.059  0.00  0.00    +0.277 C 
ENDBRANCH  31   3
ENDBRANCH   6  24
ENDBRANCH  15   4
ENDBRANCH   9  15
BRANCH  11  16
ATOM     16  C   UNL     1     -10.572   9.503  32.480  0.00  0.00    +0.103 C 
BRANCH  16  20
ATOM      1  O   UNL     1      -9.225  11.510  32.583  0.00  0.00    -0.276 OA
ATOM      5  N   UNL     1      -8.818   9.780  34.081  0.00  0.00    -0.311 N 
ATOM     20  C   UNL     1      -9.480  10.394  33.028  0.00  0.00    +0.214 C 
ATOM     38  H   UNL     1      -9.155   8.883  34.418  0.00  0.00    +0.149 HD
BRANCH   5  22
ATOM     22  C   UNL     1      -7.726  10.401  34.795  0.00  0.00    +0.139 C 
BRANCH  22  23
ATOM     23  C   UNL     1      -7.732  10.041  36.253  0.00  0.00    -0.030 A 
ATOM     25  C   UNL     1      -8.895  10.200  37.006  0.00  0.00    +0.006 A 
ATOM     26  C   UNL     1      -6.575   9.547  36.854  0.00  0.00    +0.006 A 
ATOM     29  C   UNL     1      -8.901   9.866  38.360  0.00  0.00    +0.019 A 
ATOM     30  C   UNL     1      -6.580   9.213  38.209  0.00  0.00    +0.019 A 
ATOM     32  C   UNL     1      -7.744   9.372  38.961  0.00  0.00    +0.052 A 
BRANCH  32  35
ATOM      7  N   UNL     1      -7.757   8.752  41.475  0.00  0.00    -0.191 NA
ATOM     35  C   UNL     1      -7.750   9.030  40.349  0.00  0.00    +0.099 C 
ENDBRANCH  32  35
ENDBRANCH  22  23
ENDBRANCH   5  22
ENDBRANCH  16  20
ENDBRANCH  11  16
TORSDOF 10
ENDMDL
MODEL 8
REMARK VINA RESULT:      -6.6     27.534     32.567
REMARK  Name = 38029337
REMARK  14 active torsions:
REMARK  status: ('A' for Active; 'I' for Inactive)
REMARK    1  A    between atoms: O_3  and  C_31
REMARK    2  A    between atoms: O_3  and  C_36
REMARK    3  A    between atoms: N_4  and  C_15
REMARK    4  A    between atoms: N_5  and  C_22
REMARK    5  A    between atoms: N_6  and  C_24
REMARK    6  A    between atoms: C_8  and  C_12
REMARK    7  A    between atoms: C_9  and  C_15
REMARK    8  A    between atoms: C_11  and  C_16
REMARK    9  A    between atoms: C_12  and  C_17
REMARK   10  A    between atoms: C_12  and  C_18
REMARK   11  A    between atoms: C_13  and  C_19
REMARK   12  A    between atoms: C_16  and  C_20
REMARK   13  A    between atoms: C_22  and  C_23
REMARK   14  A    between atoms: C_32  and  C_35
REMARK                            x       y       z     vdW  Elec       q    Type
REMARK                         _______ _______ _______ _____ _____    ______ ____
ROOT
ATOM      8  C   UNL     1      24.004   1.516  23.819  0.00  0.00    +0.000 C 
ATOM      9  C   UNL     1      24.007   1.782  25.345  0.00  0.00    +0.032 C 
ATOM     10  C   UNL     1      24.318   2.808  23.049  0.00  0.00    +0.012 C 
ATOM     11  C   UNL     1      23.305   3.928  23.352  0.00  0.00    +0.023 C 
ATOM     13  C   UNL     1      23.052   4.072  24.839  0.00  0.00    -0.073 C 
ATOM     14  C   UNL     1      23.384   3.108  25.716  0.00  0.00    -0.022 C 
ATOM     19  C   UNL     1      22.449   5.369  25.300  0.00  0.00    +0.039 C 
ENDROOT
BRANCH   8  12
ATOM     12  C   UNL     1      25.004   0.423  23.430  0.00  0.00    -0.013 C 
ATOM     17  C   UNL     1      25.174   0.372  21.916  0.00  0.00    +0.007 C 
ATOM     18  C   UNL     1      26.344   0.661  24.118  0.00  0.00    +0.007 C 
ENDBRANCH   8  12
BRANCH   9  15
ATOM     15  C   UNL     1      23.297   0.655  26.105  0.00  0.00    +0.113 C 
BRANCH  15   4
ATOM      2  O   UNL     1      21.670  -1.643  25.583  0.00  0.00    -0.253 OA
ATOM      4  N   UNL     1      21.899   0.648  25.811  0.00  0.00    -0.299 N 
ATOM      6  N   UNL     1      19.820  -0.223  25.309  0.00  0.00    -0.269 N 
ATOM     21  C   UNL     1      21.160  -0.525  25.565  0.00  0.00    +0.304 C 
ATOM     37  H   UNL     1      21.415   1.539  25.752  0.00  0.00    +0.150 HD
ATOM     39  H   UNL     1      19.561   0.759  25.334  0.00  0.00    +0.156 HD
BRANCH   6  24
ATOM     24  C   UNL     1      18.769  -1.124  25.018  0.00  0.00    +0.038 A 
ATOM     27  C   UNL     1      18.573  -2.248  25.819  0.00  0.00    +0.069 A 
ATOM     28  C   UNL     1      17.928  -0.887  23.931  0.00  0.00    +0.023 A 
ATOM     31  C   UNL     1      17.536  -3.137  25.532  0.00  0.00    +0.122 A 
ATOM     33  C   UNL     1      16.892  -1.775  23.643  0.00  0.00    +0.005 A 
ATOM     34  C   UNL     1      16.696  -2.901  24.444  0.00  0.00    +0.046 A 
BRANCH  31   3
ATOM      3  O   UNL     1      17.344  -4.235  26.313  0.00  0.00    -0.495 OA
ATOM     36  C   UNL     1      18.246  -4.421  27.403  0.00  0.00    +0.277 C 
ENDBRANCH  31   3
ENDBRANCH   6  24
ENDBRANCH  15   4
ENDBRANCH   9  15
BRANCH  11  16
ATOM     16  C   UNL     1      21.994   3.708  22.590  0.00  0.00    +0.103 C 
BRANCH  16  20
ATOM      1  O   UNL     1      22.473   4.694  20.434  0.00  0.00    -0.276 OA
ATOM      5  N   UNL     1      20.815   5.620  21.773  0.00  0.00    -0.311 N 
ATOM     20  C   UNL     1      21.812   4.706  21.469  0.00  0.00    +0.214 C 
ATOM     38  H   UNL     1      20.279   5.498  22.628  0.00  0.00    +0.149 HD
BRANCH   5  22
ATOM     22  C   UNL     1      20.427   6.690  20.883  0.00  0.00    +0.139 C 
BRANCH  22  23
ATOM     23  C   UNL     1      18.945   6.711  20.641  0.00  0.00    -0.030 A 
ATOM     25  C   UNL     1      18.130   7.565  21.383  0.00  0.00    +0.006 A 
ATOM     26  C   UNL     1      18.385   5.878  19.674  0.00  0.00    +0.006 A 
ATOM     29  C   UNL     1      16.754   7.586  21.158  0.00  0.00    +0.019 A 
ATOM     30  C   UNL     1      17.008   5.898  19.449  0.00  0.00    +0.019 A 
ATOM     32  C   UNL     1      16.193   6.752  20.191  0.00  0.00    +0.052 A 
BRANCH  32  35
ATOM      7  N   UNL     1      13.637   6.792  19.773  0.00  0.00    -0.191 NA
ATOM     35  C   UNL     1      14.782   6.773  19.961  0.00  0.00    +0.099 C 
ENDBRANCH  32  35
ENDBRANCH  22  23
ENDBRANCH   5  22
ENDBRANCH  16  20
ENDBRANCH  11  16
TORSDOF 10
ENDMDL
MODEL 9
REMARK VINA RESULT:      -6.5      2.591      4.430
REMARK  Name = 38029337
REMARK  14 active torsions:
REMARK  status: ('A' for Active; 'I' for Inactive)
REMARK    1  A    between atoms: O_3  and  C_31
REMARK    2  A    between atoms: O_3  and  C_36
REMARK    3  A    between atoms: N_4  and  C_15
REMARK    4  A    between atoms: N_5  and  C_22
REMARK    5  A    between atoms: N_6  and  C_24
REMARK    6  A    between atoms: C_8  and  C_12
REMARK    7  A    between atoms: C_9  and  C_15
REMARK    8  A    between atoms: C_11  and  C_16
REMARK    9  A    between atoms: C_12  and  C_17
REMARK   10  A    between atoms: C_12  and  C_18
REMARK   11  A    between atoms: C_13  and  C_19
REMARK   12  A    between atoms: C_16  and  C_20
REMARK   13  A    between atoms: C_22  and  C_23
REMARK   14  A    between atoms: C_32  and  C_35
REMARK                            x       y       z     vdW  Elec       q    Type
REMARK                         _______ _______ _______ _____ _____    ______ ____
ROOT
ATOM      8  C   UNL     1      -5.145 -11.043  13.651  0.00  0.00    +0.000 C 
ATOM      9  C   UNL     1      -3.837 -10.631  12.931  0.00  0.00    +0.032 C 
ATOM     10  C   UNL     1      -5.227 -10.380  15.035  0.00  0.00    +0.012 C 
ATOM     11  C   UNL     1      -4.035 -10.759  15.934  0.00  0.00    +0.023 C 
ATOM     13  C   UNL     1      -2.714 -10.633  15.201  0.00  0.00    -0.073 C 
ATOM     14  C   UNL     1      -2.647 -10.565  13.859  0.00  0.00    -0.022 C 
ATOM     19  C   UNL     1      -1.476 -10.544  16.047  0.00  0.00    +0.039 C 
ENDROOT
BRANCH   8  12
ATOM     12  C   UNL     1      -6.386 -10.681  12.829  0.00  0.00    -0.013 C 
ATOM     17  C   UNL     1      -7.654 -10.935  13.638  0.00  0.00    +0.007 C 
ATOM     18  C   UNL     1      -6.316  -9.227  12.373  0.00  0.00    +0.007 C 
ENDBRANCH   8  12
BRANCH   9  15
ATOM     15  C   UNL     1      -3.525 -11.579  11.768  0.00  0.00    +0.113 C 
BRANCH  15   4
ATOM      2  O   UNL     1      -5.456 -12.045   9.705  0.00  0.00    -0.253 OA
ATOM      4  N   UNL     1      -3.620 -10.896  10.516  0.00  0.00    -0.299 N 
ATOM      6  N   UNL     1      -4.445 -10.354   8.429  0.00  0.00    -0.269 N 
ATOM     21  C   UNL     1      -4.600 -11.179   9.546  0.00  0.00    +0.304 C 
ATOM     37  H   UNL     1      -2.927 -10.185  10.303  0.00  0.00    +0.150 HD
ATOM     39  H   UNL     1      -3.680  -9.685   8.458  0.00  0.00    +0.156 HD
BRANCH   6  24
ATOM     24  C   UNL     1      -5.227 -10.334   7.251  0.00  0.00    +0.038 A 
ATOM     27  C   UNL     1      -6.208  -9.357   7.083  0.00  0.00    +0.069 A 
ATOM     28  C   UNL     1      -5.018 -11.290   6.257  0.00  0.00    +0.023 A 
ATOM     31  C   UNL     1      -6.981  -9.336   5.922  0.00  0.00    +0.122 A 
ATOM     33  C   UNL     1      -5.791 -11.270   5.096  0.00  0.00    +0.005 A 
ATOM     34  C   UNL     1      -6.773 -10.293   4.929  0.00  0.00    +0.046 A 
BRANCH  31   3
ATOM      3  O   UNL     1      -7.939  -8.383   5.757  0.00  0.00    -0.495 OA
ATOM     36  C   UNL     1      -8.153  -7.484   6.845  0.00  0.00    +0.277 C 
ENDBRANCH  31   3
ENDBRANCH   6  24
ENDBRANCH  15   4
ENDBRANCH   9  15
BRANCH  11  16
ATOM     16  C   UNL     1      -4.208 -12.165  16.517  0.00  0.00    +0.103 C 
BRANCH  16  20
ATOM      1  O   UNL     1      -6.410 -13.148  16.707  0.00  0.00    -0.276 OA
ATOM      5  N   UNL     1      -5.740 -11.534  18.240  0.00  0.00    -0.311 N 
ATOM     20  C   UNL     1      -5.572 -12.360  17.138  0.00  0.00    +0.214 C 
ATOM     38  H   UNL     1      -4.957 -10.970  18.556  0.00  0.00    +0.149 HD
BRANCH   5  22
ATOM     22  C   UNL     1      -6.950 -11.507  19.029  0.00  0.00    +0.139 C 
BRANCH  22  23
ATOM     23  C   UNL     1      -7.963 -10.549  18.472  0.00  0.00    -0.030 A 
ATOM     25  C   UNL     1      -7.563  -9.548  17.587  0.00  0.00    +0.006 A 
ATOM     26  C   UNL     1      -9.304 -10.661  18.839  0.00  0.00    +0.006 A 
ATOM     29  C   UNL     1      -8.504  -8.659  17.069  0.00  0.00    +0.019 A 
ATOM     30  C   UNL     1     -10.245  -9.771  18.321  0.00  0.00    +0.019 A 
ATOM     32  C   UNL     1      -9.845  -8.770  17.436  0.00  0.00    +0.052 A 
BRANCH  32  35
ATOM      7  N   UNL     1     -11.592  -7.118  16.474  0.00  0.00    -0.191 NA
ATOM     35  C   UNL     1     -10.809  -7.858  16.905  0.00  0.00    +0.099 C 
ENDBRANCH  32  35
ENDBRANCH  22  23
ENDBRANCH   5  22
ENDBRANCH  16  20
ENDBRANCH  11  16
TORSDOF 10
ENDMDL
MODEL 10
REMARK VINA RESULT:      -6.5     25.038     30.797
REMARK  Name = 38029337
REMARK  14 active torsions:
REMARK  status: ('A' for Active; 'I' for Inactive)
REMARK    1  A    between atoms: O_3  and  C_31
REMARK    2  A    between atoms: O_3  and  C_36
REMARK    3  A    between atoms: N_4  and  C_15
REMARK    4  A    between atoms: N_5  and  C_22
REMARK    5  A    between atoms: N_6  and  C_24
REMARK    6  A    between atoms: C_8  and  C_12
REMARK    7  A    between atoms: C_9  and  C_15
REMARK    8  A    between atoms: C_11  and  C_16
REMARK    9  A    between atoms: C_12  and  C_17
REMARK   10  A    between atoms: C_12  and  C_18
REMARK   11  A    between atoms: C_13  and  C_19
REMARK   12  A    between atoms: C_16  and  C_20
REMARK   13  A    between atoms: C_22  and  C_23
REMARK   14  A    between atoms: C_32  and  C_35
REMARK                            x       y       z     vdW  Elec       q    Type
REMARK                         _______ _______ _______ _____ _____    ______ ____
ROOT
ATOM      8  C   UNL     1     -11.415  10.106  31.720  0.00  0.00    +0.000 C 
ATOM      9  C   UNL     1     -10.810  10.723  33.006  0.00  0.00    +0.032 C 
ATOM     10  C   UNL     1     -12.918   9.850  31.905  0.00  0.00    +0.012 C 
ATOM     11  C   UNL     1     -13.208   8.902  33.084  0.00  0.00    +0.023 C 
ATOM     13  C   UNL     1     -12.431   9.294  34.325  0.00  0.00    -0.073 C 
ATOM     14  C   UNL     1     -11.370  10.118  34.272  0.00  0.00    -0.022 C 
ATOM     19  C   UNL     1     -12.929   8.751  35.635  0.00  0.00    +0.039 C 
ENDROOT
BRANCH   8  12
ATOM     12  C   UNL     1     -11.187  11.001  30.498  0.00  0.00    -0.013 C 
ATOM     17  C   UNL     1     -11.620  10.282  29.224  0.00  0.00    +0.007 C 
ATOM     18  C   UNL     1     -11.937  12.319  30.657  0.00  0.00    +0.007 C 
ENDBRANCH   8  12
BRANCH   9  15
ATOM     15  C   UNL     1      -9.282  10.597  33.013  0.00  0.00    +0.113 C 
BRANCH  15   4
ATOM      2  O   UNL     1      -7.799  11.325  35.353  0.00  0.00    -0.253 OA
ATOM      4  N   UNL     1      -8.849   9.722  34.057  0.00  0.00    -0.299 N 
ATOM      6  N   UNL     1      -7.840   9.078  36.031  0.00  0.00    -0.269 N 
ATOM     21  C   UNL     1      -8.122  10.152  35.183  0.00  0.00    +0.304 C 
ATOM     37  H   UNL     1      -9.056   8.732  33.970  0.00  0.00    +0.150 HD
ATOM     39  H   UNL     1      -8.182   8.165  35.741  0.00  0.00    +0.156 HD
BRANCH   6  24
ATOM     24  C   UNL     1      -7.132   9.102  37.255  0.00  0.00    +0.038 A 
ATOM     27  C   UNL     1      -5.755   8.883  37.268  0.00  0.00    +0.069 A 
ATOM     28  C   UNL     1      -7.810   9.345  38.449  0.00  0.00    +0.023 A 
ATOM     31  C   UNL     1      -5.056   8.906  38.476  0.00  0.00    +0.122 A 
ATOM     33  C   UNL     1      -7.113   9.369  39.656  0.00  0.00    +0.005 A 
ATOM     34  C   UNL     1      -5.735   9.148  39.670  0.00  0.00    +0.046 A 
BRANCH  31   3
ATOM      3  O   UNL     1      -3.712   8.692  38.489  0.00  0.00    -0.495 OA
ATOM     36  C   UNL     1      -3.198   7.860  39.529  0.00  0.00    +0.277 C 
ENDBRANCH  31   3
ENDBRANCH   6  24
ENDBRANCH  15   4
ENDBRANCH   9  15
BRANCH  11  16
ATOM     16  C   UNL     1     -12.933   7.444  32.702  0.00  0.00    +0.103 C 
BRANCH  16  20
ATOM      1  O   UNL     1     -15.297   6.983  32.928  0.00  0.00    -0.276 OA
ATOM      5  N   UNL     1     -13.769   5.238  33.087  0.00  0.00    -0.311 N 
ATOM     20  C   UNL     1     -14.143   6.562  32.913  0.00  0.00    +0.214 C 
ATOM     38  H   UNL     1     -12.790   4.986  32.985  0.00  0.00    +0.149 HD
BRANCH   5  22
ATOM     22  C   UNL     1     -14.719   4.173  33.310  0.00  0.00    +0.139 C 
BRANCH  22  23
ATOM     23  C   UNL     1     -14.477   3.003  32.400  0.00  0.00    -0.030 A 
ATOM     25  C   UNL     1     -14.918   1.732  32.767  0.00  0.00    +0.006 A 
ATOM     26  C   UNL     1     -13.813   3.189  31.188  0.00  0.00    +0.006 A 
ATOM     29  C   UNL     1     -14.694   0.646  31.921  0.00  0.00    +0.019 A 
ATOM     30  C   UNL     1     -13.589   2.102  30.342  0.00  0.00    +0.019 A 
ATOM     32  C   UNL     1     -14.029   0.831  30.709  0.00  0.00    +0.052 A 
BRANCH  32  35
ATOM      7  N   UNL     1     -13.614  -1.188  29.141  0.00  0.00    -0.191 NA
ATOM     35  C   UNL     1     -13.800  -0.283  29.843  0.00  0.00    +0.099 C 
ENDBRANCH  32  35
ENDBRANCH  22  23
ENDBRANCH   5  22
ENDBRANCH  16  20
ENDBRANCH  11  16
TORSDOF 10
ENDMDL
