MODEL 1
REMARK VINA RESULT:      -7.1      0.000      0.000
REMARK  Name = 26744558
REMARK  6 active torsions:
REMARK  status: ('A' for Active; 'I' for Inactive)
REMARK    1  A    between atoms: O_3  and  C_10
REMARK    2  A    between atoms: N_5  and  C_12
REMARK    3  A    between atoms: C_8  and  C_13
REMARK    4  A    between atoms: C_12  and  C_14
REMARK    5  A    between atoms: C_15  and  C_18
REMARK    6  A    between atoms: C_18  and  C_21
REMARK                            x       y       z     vdW  Elec       q    Type
REMARK                         _______ _______ _______ _____ _____    ______ ____
ROOT
ATOM      5  N   UNL     1      13.435   7.823  20.011  0.00  0.00    -0.285 NA
ATOM      8  C   UNL     1      12.334   8.733  19.629  0.00  0.00    +0.149 C 
ATOM      9  C   UNL     1      11.125   8.256  20.455  0.00  0.00    +0.061 C 
ATOM     10  C   UNL     1      11.630   7.049  21.236  0.00  0.00    +0.130 C 
ATOM     11  C   UNL     1      12.810   6.565  20.414  0.00  0.00    +0.116 C 
ENDROOT
BRANCH   8  13
ATOM      4  O   UNL     1      12.986  10.927  18.773  0.00  0.00    -0.336 OA
ATOM      6  N   UNL     1      12.709  10.857  20.995  0.00  0.00    -0.194 NA
ATOM      7  N   UNL     1      13.257  12.219  19.240  0.00  0.00    -0.061 NA
ATOM     13  C   UNL     1      12.671  10.189  19.870  0.00  0.00    +0.245 A 
ATOM     15  C   UNL     1      13.072  12.097  20.558  0.00  0.00    +0.176 A 
BRANCH  15  18
ATOM     18  C   UNL     1      13.252  13.227  21.476  0.00  0.00    +0.116 C 
BRANCH  18  21
ATOM      1 CL   UNL     1      10.315  14.200  21.315  0.00  0.00    -0.083 Cl
ATOM      2  F   UNL     1      10.179  12.962  26.215  0.00  0.00    -0.205 F 
ATOM     21  C   UNL     1      12.398  13.169  22.738  0.00  0.00    -0.021 A 
ATOM     23  C   UNL     1      11.068  13.589  22.743  0.00  0.00    +0.047 A 
ATOM     24  C   UNL     1      12.978  12.677  23.908  0.00  0.00    +0.008 A 
ATOM     25  C   UNL     1      10.318  13.520  23.917  0.00  0.00    +0.058 A 
ATOM     26  C   UNL     1      12.228  12.607  25.082  0.00  0.00    +0.039 A 
ATOM     27  C   UNL     1      10.898  13.028  25.087  0.00  0.00    +0.125 A 
ENDBRANCH  18  21
ENDBRANCH  15  18
ENDBRANCH   8  13
BRANCH  10   3
ATOM      3  O   UNL     1      10.623   6.062  21.341  0.00  0.00    -0.390 OA
ATOM     28  H   UNL     1      10.095   6.267  22.132  0.00  0.00    +0.210 HD
ENDBRANCH  10   3
BRANCH   5  12
ATOM     12  C   UNL     1      14.418   7.635  18.953  0.00  0.00    +0.120 C 
BRANCH  12  14
ATOM     14  C   UNL     1      15.777   7.293  19.505  0.00  0.00    -0.033 A 
ATOM     16  C   UNL     1      16.477   6.196  19.002  0.00  0.00    +0.005 A 
ATOM     17  C   UNL     1      16.334   8.073  20.518  0.00  0.00    +0.005 A 
ATOM     19  C   UNL     1      17.736   5.880  19.514  0.00  0.00    +0.000 A 
ATOM     20  C   UNL     1      17.593   7.756  21.029  0.00  0.00    +0.000 A 
ATOM     22  C   UNL     1      18.294   6.659  20.527  0.00  0.00    +0.000 A 
ENDBRANCH  12  14
ENDBRANCH   5  12
TORSDOF 6
ENDMDL
MODEL 2
REMARK VINA RESULT:      -6.9     26.295     28.806
REMARK  Name = 26744558
REMARK  6 active torsions:
REMARK  status: ('A' for Active; 'I' for Inactive)
REMARK    1  A    between atoms: O_3  and  C_10
REMARK    2  A    between atoms: N_5  and  C_12
REMARK    3  A    between atoms: C_8  and  C_13
REMARK    4  A    between atoms: C_12  and  C_14
REMARK    5  A    between atoms: C_15  and  C_18
REMARK    6  A    between atoms: C_18  and  C_21
REMARK                            x       y       z     vdW  Elec       q    Type
REMARK                         _______ _______ _______ _____ _____    ______ ____
ROOT
ATOM      5  N   UNL     1      -3.030 -10.485  13.869  0.00  0.00    -0.285 NA
ATOM      8  C   UNL     1      -3.526 -11.187  15.071  0.00  0.00    +0.149 C 
ATOM      9  C   UNL     1      -2.504 -10.850  16.173  0.00  0.00    +0.061 C 
ATOM     10  C   UNL     1      -1.449  -9.994  15.485  0.00  0.00    +0.130 C 
ATOM     11  C   UNL     1      -1.580 -10.376  14.023  0.00  0.00    +0.116 C 
ENDROOT
BRANCH   8  13
ATOM      4  O   UNL     1      -5.941 -11.460  14.820  0.00  0.00    -0.336 OA
ATOM      6  N   UNL     1      -5.348  -9.864  16.276  0.00  0.00    -0.194 NA
ATOM      7  N   UNL     1      -7.136 -10.918  15.312  0.00  0.00    -0.061 NA
ATOM     13  C   UNL     1      -4.939 -10.784  15.439  0.00  0.00    +0.245 A 
ATOM     15  C   UNL     1      -6.703  -9.984  16.164  0.00  0.00    +0.176 A 
BRANCH  15  18
ATOM     18  C   UNL     1      -7.627  -9.141  16.929  0.00  0.00    +0.116 C 
BRANCH  18  21
ATOM      1 CL   UNL     1     -10.609  -8.342  17.195  0.00  0.00    -0.083 Cl
ATOM      2  F   UNL     1     -10.738 -11.984  20.699  0.00  0.00    -0.205 F 
ATOM     21  C   UNL     1      -8.491  -9.889  17.939  0.00  0.00    -0.021 A 
ATOM     23  C   UNL     1      -9.841  -9.585  18.114  0.00  0.00    +0.047 A 
ATOM     24  C   UNL     1      -7.901 -10.902  18.695  0.00  0.00    +0.008 A 
ATOM     25  C   UNL     1     -10.601 -10.293  19.046  0.00  0.00    +0.058 A 
ATOM     26  C   UNL     1      -8.660 -11.609  19.627  0.00  0.00    +0.039 A 
ATOM     27  C   UNL     1     -10.010 -11.305  19.803  0.00  0.00    +0.125 A 
ENDBRANCH  18  21
ENDBRANCH  15  18
ENDBRANCH   8  13
BRANCH  10   3
ATOM      3  O   UNL     1      -0.160 -10.285  15.990  0.00  0.00    -0.390 OA
ATOM     28  H   UNL     1       0.488  -9.907  15.371  0.00  0.00    +0.210 HD
ENDBRANCH  10   3
BRANCH   5  12
ATOM     12  C   UNL     1      -3.402 -11.144  12.624  0.00  0.00    +0.120 C 
BRANCH  12  14
ATOM     14  C   UNL     1      -3.979 -10.174  11.627  0.00  0.00    -0.033 A 
ATOM     16  C   UNL     1      -5.243  -9.623  11.844  0.00  0.00    +0.005 A 
ATOM     17  C   UNL     1      -3.252  -9.827  10.489  0.00  0.00    +0.005 A 
ATOM     19  C   UNL     1      -5.778  -8.724  10.920  0.00  0.00    +0.000 A 
ATOM     20  C   UNL     1      -3.788  -8.928   9.567  0.00  0.00    +0.000 A 
ATOM     22  C   UNL     1      -5.051  -8.377   9.782  0.00  0.00    +0.000 A 
ENDBRANCH  12  14
ENDBRANCH   5  12
TORSDOF 6
ENDMDL
MODEL 3
REMARK VINA RESULT:      -6.8     26.367     28.680
REMARK  Name = 26744558
REMARK  6 active torsions:
REMARK  status: ('A' for Active; 'I' for Inactive)
REMARK    1  A    between atoms: O_3  and  C_10
REMARK    2  A    between atoms: N_5  and  C_12
REMARK    3  A    between atoms: C_8  and  C_13
REMARK    4  A    between atoms: C_12  and  C_14
REMARK    5  A    between atoms: C_15  and  C_18
REMARK    6  A    between atoms: C_18  and  C_21
REMARK                            x       y       z     vdW  Elec       q    Type
REMARK                         _______ _______ _______ _____ _____    ______ ____
ROOT
ATOM      5  N   UNL     1      -3.258 -10.584  14.052  0.00  0.00    -0.285 NA
ATOM      8  C   UNL     1      -3.730 -11.242  15.288  0.00  0.00    +0.149 C 
ATOM      9  C   UNL     1      -2.653 -10.918  16.341  0.00  0.00    +0.061 C 
ATOM     10  C   UNL     1      -1.597 -10.115  15.593  0.00  0.00    +0.130 C 
ATOM     11  C   UNL     1      -1.800 -10.524  14.146  0.00  0.00    +0.116 C 
ENDROOT
BRANCH   8  13
ATOM      4  O   UNL     1      -5.183  -9.585  16.344  0.00  0.00    -0.336 OA
ATOM      6  N   UNL     1      -6.268 -11.370  15.537  0.00  0.00    -0.194 NA
ATOM      7  N   UNL     1      -6.539  -9.375  16.624  0.00  0.00    -0.061 NA
ATOM     13  C   UNL     1      -5.111 -10.780  15.703  0.00  0.00    +0.245 A 
ATOM     15  C   UNL     1      -7.113 -10.470  16.118  0.00  0.00    +0.176 A 
BRANCH  15  18
ATOM     18  C   UNL     1      -8.562 -10.691  16.185  0.00  0.00    +0.116 C 
BRANCH  18  21
ATOM      1 CL   UNL     1      -9.455  -9.498  13.470  0.00  0.00    -0.083 Cl
ATOM      2  F   UNL     1     -11.680  -5.976  16.334  0.00  0.00    -0.205 F 
ATOM     21  C   UNL     1      -9.404  -9.419  16.194  0.00  0.00    -0.021 A 
ATOM     23  C   UNL     1      -9.842  -8.824  15.010  0.00  0.00    +0.047 A 
ATOM     24  C   UNL     1      -9.735  -8.851  17.424  0.00  0.00    +0.008 A 
ATOM     25  C   UNL     1     -10.611  -7.661  15.057  0.00  0.00    +0.058 A 
ATOM     26  C   UNL     1     -10.504  -7.688  17.471  0.00  0.00    +0.039 A 
ATOM     27  C   UNL     1     -10.943  -7.093  16.288  0.00  0.00    +0.125 A 
ENDBRANCH  18  21
ENDBRANCH  15  18
ENDBRANCH   8  13
BRANCH  10   3
ATOM      3  O   UNL     1      -0.300 -10.441  16.052  0.00  0.00    -0.390 OA
ATOM     28  H   UNL     1      -0.218 -10.104  16.961  0.00  0.00    +0.210 HD
ENDBRANCH  10   3
BRANCH   5  12
ATOM     12  C   UNL     1      -3.703 -11.256  12.838  0.00  0.00    +0.120 C 
BRANCH  12  14
ATOM     14  C   UNL     1      -4.108 -10.274  11.770  0.00  0.00    -0.033 A 
ATOM     16  C   UNL     1      -3.253 -10.023  10.696  0.00  0.00    +0.005 A 
ATOM     17  C   UNL     1      -5.334  -9.617  11.855  0.00  0.00    +0.005 A 
ATOM     19  C   UNL     1      -3.628  -9.113   9.706  0.00  0.00    +0.000 A 
ATOM     20  C   UNL     1      -5.708  -8.708  10.865  0.00  0.00    +0.000 A 
ATOM     22  C   UNL     1      -4.855  -8.456   9.791  0.00  0.00    +0.000 A 
ENDBRANCH  12  14
ENDBRANCH   5  12
TORSDOF 6
ENDMDL
MODEL 4
REMARK VINA RESULT:      -6.7     26.693     29.036
REMARK  Name = 26744558
REMARK  6 active torsions:
REMARK  status: ('A' for Active; 'I' for Inactive)
REMARK    1  A    between atoms: O_3  and  C_10
REMARK    2  A    between atoms: N_5  and  C_12
REMARK    3  A    between atoms: C_8  and  C_13
REMARK    4  A    between atoms: C_12  and  C_14
REMARK    5  A    between atoms: C_15  and  C_18
REMARK    6  A    between atoms: C_18  and  C_21
REMARK                            x       y       z     vdW  Elec       q    Type
REMARK                         _______ _______ _______ _____ _____    ______ ____
ROOT
ATOM      5  N   UNL     1      -5.451 -11.060  17.092  0.00  0.00    -0.285 NA
ATOM      8  C   UNL     1      -6.825 -11.464  16.725  0.00  0.00    +0.149 C 
ATOM      9  C   UNL     1      -7.717 -10.881  17.837  0.00  0.00    +0.061 C 
ATOM     10  C   UNL     1      -6.753 -10.206  18.804  0.00  0.00    +0.130 C 
ATOM     11  C   UNL     1      -5.437 -10.917  18.547  0.00  0.00    +0.116 C 
ENDROOT
BRANCH   8  13
ATOM      4  O   UNL     1      -8.083  -9.938  15.291  0.00  0.00    -0.336 OA
ATOM      6  N   UNL     1      -6.860 -11.444  14.172  0.00  0.00    -0.194 NA
ATOM      7  N   UNL     1      -8.301  -9.684  13.931  0.00  0.00    -0.061 NA
ATOM     13  C   UNL     1      -7.223 -10.988  15.344  0.00  0.00    +0.245 A 
ATOM     15  C   UNL     1      -7.547 -10.613  13.337  0.00  0.00    +0.176 A 
BRANCH  15  18
ATOM     18  C   UNL     1      -7.465 -10.730  11.877  0.00  0.00    +0.116 C 
BRANCH  18  21
ATOM      1 CL   UNL     1      -5.369 -12.864  11.069  0.00  0.00    -0.083 Cl
ATOM      2  F   UNL     1      -2.620  -8.872   9.631  0.00  0.00    -0.205 F 
ATOM     21  C   UNL     1      -6.148 -10.259  11.269  0.00  0.00    -0.021 A 
ATOM     23  C   UNL     1      -5.157 -11.162  10.882  0.00  0.00    +0.047 A 
ATOM     24  C   UNL     1      -5.948  -8.889  11.102  0.00  0.00    +0.008 A 
ATOM     25  C   UNL     1      -3.965 -10.694  10.328  0.00  0.00    +0.058 A 
ATOM     26  C   UNL     1      -4.756  -8.421  10.548  0.00  0.00    +0.039 A 
ATOM     27  C   UNL     1      -3.764  -9.323  10.162  0.00  0.00    +0.125 A 
ENDBRANCH  18  21
ENDBRANCH  15  18
ENDBRANCH   8  13
BRANCH  10   3
ATOM      3  O   UNL     1      -7.185 -10.371  20.141  0.00  0.00    -0.390 OA
ATOM     28  H   UNL     1      -8.144 -10.205  20.160  0.00  0.00    +0.210 HD
ENDBRANCH  10   3
BRANCH   5  12
ATOM     12  C   UNL     1      -4.433 -11.990  16.622  0.00  0.00    +0.120 C 
BRANCH  12  14
ATOM     14  C   UNL     1      -3.369 -11.294  15.814  0.00  0.00    -0.033 A 
ATOM     16  C   UNL     1      -3.549 -11.103  14.444  0.00  0.00    +0.005 A 
ATOM     17  C   UNL     1      -2.206 -10.843  16.436  0.00  0.00    +0.005 A 
ATOM     19  C   UNL     1      -2.563 -10.459  13.696  0.00  0.00    +0.000 A 
ATOM     20  C   UNL     1      -1.221 -10.198  15.687  0.00  0.00    +0.000 A 
ATOM     22  C   UNL     1      -1.399 -10.007  14.317  0.00  0.00    +0.000 A 
ENDBRANCH  12  14
ENDBRANCH   5  12
TORSDOF 6
ENDMDL
MODEL 5
REMARK VINA RESULT:      -6.7     27.528     29.247
REMARK  Name = 26744558
REMARK  6 active torsions:
REMARK  status: ('A' for Active; 'I' for Inactive)
REMARK    1  A    between atoms: O_3  and  C_10
REMARK    2  A    between atoms: N_5  and  C_12
REMARK    3  A    between atoms: C_8  and  C_13
REMARK    4  A    between atoms: C_12  and  C_14
REMARK    5  A    between atoms: C_15  and  C_18
REMARK    6  A    between atoms: C_18  and  C_21
REMARK                            x       y       z     vdW  Elec       q    Type
REMARK                         _______ _______ _______ _____ _____    ______ ____
ROOT
ATOM      5  N   UNL     1      -5.806 -10.910  16.608  0.00  0.00    -0.285 NA
ATOM      8  C   UNL     1      -4.456 -10.885  17.209  0.00  0.00    +0.149 C 
ATOM      9  C   UNL     1      -4.513 -11.920  18.348  0.00  0.00    +0.061 C 
ATOM     10  C   UNL     1      -5.945 -12.440  18.338  0.00  0.00    +0.130 C 
ATOM     11  C   UNL     1      -6.723 -11.322  17.670  0.00  0.00    +0.116 C 
ENDROOT
BRANCH   8  13
ATOM      4  O   UNL     1      -2.110 -10.778  16.533  0.00  0.00    -0.336 OA
ATOM      6  N   UNL     1      -3.447 -11.775  15.039  0.00  0.00    -0.194 NA
ATOM      7  N   UNL     1      -1.287 -11.155  15.464  0.00  0.00    -0.061 NA
ATOM     13  C   UNL     1      -3.364 -11.181  16.202  0.00  0.00    +0.245 A 
ATOM     15  C   UNL     1      -2.148 -11.735  14.624  0.00  0.00    +0.176 A 
BRANCH  15  18
ATOM     18  C   UNL     1      -1.722 -12.293  13.336  0.00  0.00    +0.116 C 
BRANCH  18  21
ATOM      1 CL   UNL     1      -3.522 -14.068  11.545  0.00  0.00    -0.083 Cl
ATOM      2  F   UNL     1      -4.111  -9.840   8.837  0.00  0.00    -0.205 F 
ATOM     21  C   UNL     1      -2.380 -11.660  12.114  0.00  0.00    -0.021 A 
ATOM     23  C   UNL     1      -3.202 -12.396  11.262  0.00  0.00    +0.047 A 
ATOM     24  C   UNL     1      -2.143 -10.308  11.861  0.00  0.00    +0.008 A 
ATOM     25  C   UNL     1      -3.787 -11.782  10.154  0.00  0.00    +0.058 A 
ATOM     26  C   UNL     1      -2.728  -9.694  10.753  0.00  0.00    +0.039 A 
ATOM     27  C   UNL     1      -3.550 -10.430   9.900  0.00  0.00    +0.125 A 
ENDBRANCH  18  21
ENDBRANCH  15  18
ENDBRANCH   8  13
BRANCH  10   3
ATOM      3  O   UNL     1      -6.400 -12.680  19.655  0.00  0.00    -0.390 OA
ATOM     28  H   UNL     1      -7.035 -11.978  19.878  0.00  0.00    +0.210 HD
ENDBRANCH  10   3
BRANCH   5  12
ATOM     12  C   UNL     1      -6.192  -9.638  16.012  0.00  0.00    +0.120 C 
BRANCH  12  14
ATOM     14  C   UNL     1      -6.717  -9.813  14.611  0.00  0.00    -0.033 A 
ATOM     16  C   UNL     1      -5.829  -9.859  13.536  0.00  0.00    +0.005 A 
ATOM     17  C   UNL     1      -8.089  -9.927  14.390  0.00  0.00    +0.005 A 
ATOM     19  C   UNL     1      -6.316 -10.021  12.238  0.00  0.00    +0.000 A 
ATOM     20  C   UNL     1      -8.575 -10.089  13.092  0.00  0.00    +0.000 A 
ATOM     22  C   UNL     1      -7.688 -10.136  12.016  0.00  0.00    +0.000 A 
ENDBRANCH  12  14
ENDBRANCH   5  12
TORSDOF 6
ENDMDL
MODEL 6
REMARK VINA RESULT:      -6.7     18.361     20.535
REMARK  Name = 26744558
REMARK  6 active torsions:
REMARK  status: ('A' for Active; 'I' for Inactive)
REMARK    1  A    between atoms: O_3  and  C_10
REMARK    2  A    between atoms: N_5  and  C_12
REMARK    3  A    between atoms: C_8  and  C_13
REMARK    4  A    between atoms: C_12  and  C_14
REMARK    5  A    between atoms: C_15  and  C_18
REMARK    6  A    between atoms: C_18  and  C_21
REMARK                            x       y       z     vdW  Elec       q    Type
REMARK                         _______ _______ _______ _____ _____    ______ ____
ROOT
ATOM      5  N   UNL     1      13.437   3.901  -0.455  0.00  0.00    -0.285 NA
ATOM      8  C   UNL     1      13.701   3.598   0.968  0.00  0.00    +0.149 C 
ATOM      9  C   UNL     1      15.056   4.268   1.267  0.00  0.00    +0.061 C 
ATOM     10  C   UNL     1      15.494   4.882  -0.056  0.00  0.00    +0.130 C 
ATOM     11  C   UNL     1      14.743   4.067  -1.091  0.00  0.00    +0.116 C 
ENDROOT
BRANCH   8  13
ATOM      4  O   UNL     1      11.715   3.139   2.315  0.00  0.00    -0.336 OA
ATOM      6  N   UNL     1      12.349   5.287   2.323  0.00  0.00    -0.194 NA
ATOM      7  N   UNL     1      10.797   3.813   3.131  0.00  0.00    -0.061 NA
ATOM     13  C   UNL     1      12.594   4.080   1.881  0.00  0.00    +0.245 A 
ATOM     15  C   UNL     1      11.238   5.073   3.085  0.00  0.00    +0.176 A 
BRANCH  15  18
ATOM     18  C   UNL     1      10.567   6.158   3.809  0.00  0.00    +0.116 C 
BRANCH  18  21
ATOM      1 CL   UNL     1      13.003   7.325   5.325  0.00  0.00    -0.083 Cl
ATOM      2  F   UNL     1      10.597   5.641   9.440  0.00  0.00    -0.205 F 
ATOM     21  C   UNL     1      10.603   6.033   5.329  0.00  0.00    -0.021 A 
ATOM     23  C   UNL     1      11.668   6.534   6.079  0.00  0.00    +0.047 A 
ATOM     24  C   UNL     1       9.537   5.401   5.968  0.00  0.00    +0.008 A 
ATOM     25  C   UNL     1      11.667   6.402   7.467  0.00  0.00    +0.058 A 
ATOM     26  C   UNL     1       9.535   5.269   7.357  0.00  0.00    +0.039 A 
ATOM     27  C   UNL     1      10.600   5.769   8.107  0.00  0.00    +0.125 A 
ENDBRANCH  18  21
ENDBRANCH  15  18
ENDBRANCH   8  13
BRANCH  10   3
ATOM      3  O   UNL     1      16.895   4.774  -0.219  0.00  0.00    -0.390 OA
ATOM     28  H   UNL     1      17.102   3.833  -0.353  0.00  0.00    +0.210 HD
ENDBRANCH  10   3
BRANCH   5  12
ATOM     12  C   UNL     1      12.627   2.887  -1.117  0.00  0.00    +0.120 C 
BRANCH  12  14
ATOM     14  C   UNL     1      11.442   3.490  -1.823  0.00  0.00    -0.033 A 
ATOM     16  C   UNL     1      10.852   4.653  -1.325  0.00  0.00    +0.005 A 
ATOM     17  C   UNL     1      10.934   2.887  -2.973  0.00  0.00    +0.005 A 
ATOM     19  C   UNL     1       9.753   5.212  -1.979  0.00  0.00    +0.000 A 
ATOM     20  C   UNL     1       9.836   3.447  -3.627  0.00  0.00    +0.000 A 
ATOM     22  C   UNL     1       9.245   4.608  -3.130  0.00  0.00    +0.000 A 
ENDBRANCH  12  14
ENDBRANCH   5  12
TORSDOF 6
ENDMDL
MODEL 7
REMARK VINA RESULT:      -6.6     16.803     19.376
REMARK  Name = 26744558
REMARK  6 active torsions:
REMARK  status: ('A' for Active; 'I' for Inactive)
REMARK    1  A    between atoms: O_3  and  C_10
REMARK    2  A    between atoms: N_5  and  C_12
REMARK    3  A    between atoms: C_8  and  C_13
REMARK    4  A    between atoms: C_12  and  C_14
REMARK    5  A    between atoms: C_15  and  C_18
REMARK    6  A    between atoms: C_18  and  C_21
REMARK                            x       y       z     vdW  Elec       q    Type
REMARK                         _______ _______ _______ _____ _____    ______ ____
ROOT
ATOM      5  N   UNL     1      10.956   7.033   6.221  0.00  0.00    -0.285 NA
ATOM      8  C   UNL     1      10.336   5.841   5.605  0.00  0.00    +0.149 C 
ATOM      9  C   UNL     1       8.844   6.199   5.471  0.00  0.00    +0.061 C 
ATOM     10  C   UNL     1       8.715   7.590   6.079  0.00  0.00    +0.130 C 
ATOM     11  C   UNL     1       9.910   7.682   7.009  0.00  0.00    +0.116 C 
ENDROOT
BRANCH   8  13
ATOM      4  O   UNL     1      11.711   6.438   3.675  0.00  0.00    -0.336 OA
ATOM      6  N   UNL     1      10.913   4.346   3.616  0.00  0.00    -0.194 NA
ATOM      7  N   UNL     1      12.186   5.873   2.485  0.00  0.00    -0.061 NA
ATOM     13  C   UNL     1      10.971   5.473   4.280  0.00  0.00    +0.245 A 
ATOM     15  C   UNL     1      11.673   4.640   2.522  0.00  0.00    +0.176 A 
BRANCH  15  18
ATOM     18  C   UNL     1      11.912   3.665   1.453  0.00  0.00    +0.116 C 
BRANCH  18  21
ATOM      1 CL   UNL     1      11.978   4.453  -1.542  0.00  0.00    -0.083 Cl
ATOM      2  F   UNL     1      16.991   4.098  -0.995  0.00  0.00    -0.205 F 
ATOM     21  C   UNL     1      13.268   3.789   0.765  0.00  0.00    -0.021 A 
ATOM     23  C   UNL     1      13.376   4.139  -0.581  0.00  0.00    +0.047 A 
ATOM     24  C   UNL     1      14.417   3.544   1.517  0.00  0.00    +0.008 A 
ATOM     25  C   UNL     1      14.634   4.244  -1.176  0.00  0.00    +0.058 A 
ATOM     26  C   UNL     1      15.675   3.648   0.922  0.00  0.00    +0.039 A 
ATOM     27  C   UNL     1      15.784   3.998  -0.424  0.00  0.00    +0.125 A 
ENDBRANCH  18  21
ENDBRANCH  15  18
ENDBRANCH   8  13
BRANCH  10   3
ATOM      3  O   UNL     1       7.494   7.720   6.779  0.00  0.00    -0.390 OA
ATOM     28  H   UNL     1       6.955   6.935   6.577  0.00  0.00    +0.210 HD
ENDBRANCH  10   3
BRANCH   5  12
ATOM     12  C   UNL     1      12.132   6.719   7.022  0.00  0.00    +0.120 C 
BRANCH  12  14
ATOM     14  C   UNL     1      13.266   7.673   6.750  0.00  0.00    -0.033 A 
ATOM     16  C   UNL     1      13.051   9.049   6.831  0.00  0.00    +0.005 A 
ATOM     17  C   UNL     1      14.528   7.181   6.419  0.00  0.00    +0.005 A 
ATOM     19  C   UNL     1      14.101   9.933   6.579  0.00  0.00    +0.000 A 
ATOM     20  C   UNL     1      15.577   8.065   6.168  0.00  0.00    +0.000 A 
ATOM     22  C   UNL     1      15.363   9.441   6.248  0.00  0.00    +0.000 A 
ENDBRANCH  12  14
ENDBRANCH   5  12
TORSDOF 6
ENDMDL
MODEL 8
REMARK VINA RESULT:      -6.6     26.336     28.756
REMARK  Name = 26744558
REMARK  6 active torsions:
REMARK  status: ('A' for Active; 'I' for Inactive)
REMARK    1  A    between atoms: O_3  and  C_10
REMARK    2  A    between atoms: N_5  and  C_12
REMARK    3  A    between atoms: C_8  and  C_13
REMARK    4  A    between atoms: C_12  and  C_14
REMARK    5  A    between atoms: C_15  and  C_18
REMARK    6  A    between atoms: C_18  and  C_21
REMARK                            x       y       z     vdW  Elec       q    Type
REMARK                         _______ _______ _______ _____ _____    ______ ____
ROOT
ATOM      5  N   UNL     1      -3.239 -10.709  14.323  0.00  0.00    -0.285 NA
ATOM      8  C   UNL     1      -3.356 -11.547  15.535  0.00  0.00    +0.149 C 
ATOM      9  C   UNL     1      -2.180 -11.111  16.429  0.00  0.00    +0.061 C 
ATOM     10  C   UNL     1      -1.435 -10.059  15.618  0.00  0.00    +0.130 C 
ATOM     11  C   UNL     1      -1.822 -10.377  14.186  0.00  0.00    +0.116 C 
ENDROOT
BRANCH   8  13
ATOM      4  O   UNL     1      -5.734 -12.089  15.677  0.00  0.00    -0.336 OA
ATOM      6  N   UNL     1      -5.020 -10.687  17.271  0.00  0.00    -0.194 NA
ATOM      7  N   UNL     1      -6.853 -11.796  16.467  0.00  0.00    -0.061 NA
ATOM     13  C   UNL     1      -4.699 -11.397  16.219  0.00  0.00    +0.245 A 
ATOM     15  C   UNL     1      -6.351 -10.964  17.384  0.00  0.00    +0.176 A 
BRANCH  15  18
ATOM     18  C   UNL     1      -7.182 -10.384  18.446  0.00  0.00    +0.116 C 
BRANCH  18  21
ATOM      1 CL   UNL     1      -9.845 -11.305  19.733  0.00  0.00    -0.083 Cl
ATOM      2  F   UNL     1     -11.930  -7.938  16.590  0.00  0.00    -0.205 F 
ATOM     21  C   UNL     1      -8.479  -9.743  17.965  0.00  0.00    -0.021 A 
ATOM     23  C   UNL     1      -9.716 -10.107  18.498  0.00  0.00    +0.047 A 
ATOM     24  C   UNL     1      -8.408  -8.769  16.969  0.00  0.00    +0.008 A 
ATOM     25  C   UNL     1     -10.882  -9.498  18.034  0.00  0.00    +0.058 A 
ATOM     26  C   UNL     1      -9.574  -8.160  16.505  0.00  0.00    +0.039 A 
ATOM     27  C   UNL     1     -10.811  -8.523  17.037  0.00  0.00    +0.125 A 
ENDBRANCH  18  21
ENDBRANCH  15  18
ENDBRANCH   8  13
BRANCH  10   3
ATOM      3  O   UNL     1      -0.039 -10.166  15.819  0.00  0.00    -0.390 OA
ATOM     28  H   UNL     1       0.350  -9.294  15.635  0.00  0.00    +0.210 HD
ENDBRANCH  10   3
BRANCH   5  12
ATOM     12  C   UNL     1      -3.772 -11.350  13.128  0.00  0.00    +0.120 C 
BRANCH  12  14
ATOM     14  C   UNL     1      -4.063 -10.352  12.039  0.00  0.00    -0.033 A 
ATOM     16  C   UNL     1      -5.238  -9.601  12.079  0.00  0.00    +0.005 A 
ATOM     17  C   UNL     1      -3.158 -10.179  10.992  0.00  0.00    +0.005 A 
ATOM     19  C   UNL     1      -5.508  -8.676  11.069  0.00  0.00    +0.000 A 
ATOM     20  C   UNL     1      -3.428  -9.254   9.983  0.00  0.00    +0.000 A 
ATOM     22  C   UNL     1      -4.603  -8.503  10.022  0.00  0.00    +0.000 A 
ENDBRANCH  12  14
ENDBRANCH   5  12
TORSDOF 6
ENDMDL
MODEL 9
REMARK VINA RESULT:      -6.6      3.953      7.693
REMARK  Name = 26744558
REMARK  6 active torsions:
REMARK  status: ('A' for Active; 'I' for Inactive)
REMARK    1  A    between atoms: O_3  and  C_10
REMARK    2  A    between atoms: N_5  and  C_12
REMARK    3  A    between atoms: C_8  and  C_13
REMARK    4  A    between atoms: C_12  and  C_14
REMARK    5  A    between atoms: C_15  and  C_18
REMARK    6  A    between atoms: C_18  and  C_21
REMARK                            x       y       z     vdW  Elec       q    Type
REMARK                         _______ _______ _______ _____ _____    ______ ____
ROOT
ATOM      5  N   UNL     1      12.265   9.093  21.678  0.00  0.00    -0.285 NA
ATOM      8  C   UNL     1      12.922   7.794  21.934  0.00  0.00    +0.149 C 
ATOM      9  C   UNL     1      11.814   6.745  21.719  0.00  0.00    +0.061 C 
ATOM     10  C   UNL     1      10.564   7.551  21.392  0.00  0.00    +0.130 C 
ATOM     11  C   UNL     1      10.850   8.912  22.000  0.00  0.00    +0.116 C 
ENDROOT
BRANCH   8  13
ATOM      4  O   UNL     1      14.135   8.226  19.858  0.00  0.00    -0.336 OA
ATOM      6  N   UNL     1      15.176   6.811  21.247  0.00  0.00    -0.194 NA
ATOM      7  N   UNL     1      15.327   7.861  19.220  0.00  0.00    -0.061 NA
ATOM     13  C   UNL     1      14.126   7.565  21.044  0.00  0.00    +0.245 A 
ATOM     15  C   UNL     1      15.885   7.025  20.101  0.00  0.00    +0.176 A 
BRANCH  15  18
ATOM     18  C   UNL     1      17.177   6.379  19.849  0.00  0.00    +0.116 C 
BRANCH  18  21
ATOM      1 CL   UNL     1      19.767   4.697  20.089  0.00  0.00    -0.083 Cl
ATOM      2  F   UNL     1      21.452   8.622  22.793  0.00  0.00    -0.205 F 
ATOM     21  C   UNL     1      18.347   6.957  20.638  0.00  0.00    -0.021 A 
ATOM     23  C   UNL     1      19.545   6.258  20.789  0.00  0.00    +0.047 A 
ATOM     24  C   UNL     1      18.199   8.219  21.214  0.00  0.00    +0.008 A 
ATOM     25  C   UNL     1      20.594   6.820  21.517  0.00  0.00    +0.058 A 
ATOM     26  C   UNL     1      19.248   8.781  21.942  0.00  0.00    +0.039 A 
ATOM     27  C   UNL     1      20.446   8.082  22.094  0.00  0.00    +0.125 A 
ENDBRANCH  18  21
ENDBRANCH  15  18
ENDBRANCH   8  13
BRANCH  10   3
ATOM      3  O   UNL     1       9.417   6.953  21.964  0.00  0.00    -0.390 OA
ATOM     28  H   UNL     1       9.711   6.432  22.731  0.00  0.00    +0.210 HD
ENDBRANCH  10   3
BRANCH   5  12
ATOM     12  C   UNL     1      12.860  10.194  22.424  0.00  0.00    +0.120 C 
BRANCH  12  14
ATOM     14  C   UNL     1      12.268  11.522  22.032  0.00  0.00    -0.033 A 
ATOM     16  C   UNL     1      11.398  12.180  22.902  0.00  0.00    +0.005 A 
ATOM     17  C   UNL     1      12.587  12.092  20.800  0.00  0.00    +0.005 A 
ATOM     19  C   UNL     1      10.849  13.411  22.539  0.00  0.00    +0.000 A 
ATOM     20  C   UNL     1      12.038  13.322  20.438  0.00  0.00    +0.000 A 
ATOM     22  C   UNL     1      11.169  13.981  21.307  0.00  0.00    +0.000 A 
ENDBRANCH  12  14
ENDBRANCH   5  12
TORSDOF 6
ENDMDL
MODEL 10
REMARK VINA RESULT:      -6.5      4.034      7.820
REMARK  Name = 26744558
REMARK  6 active torsions:
REMARK  status: ('A' for Active; 'I' for Inactive)
REMARK    1  A    between atoms: O_3  and  C_10
REMARK    2  A    between atoms: N_5  and  C_12
REMARK    3  A    between atoms: C_8  and  C_13
REMARK    4  A    between atoms: C_12  and  C_14
REMARK    5  A    between atoms: C_15  and  C_18
REMARK    6  A    between atoms: C_18  and  C_21
REMARK                            x       y       z     vdW  Elec       q    Type
REMARK                         _______ _______ _______ _____ _____    ______ ____
ROOT
ATOM      5  N   UNL     1      11.845   9.797  21.873  0.00  0.00    -0.285 NA
ATOM      8  C   UNL     1      12.847   8.777  22.249  0.00  0.00    +0.149 C 
ATOM      9  C   UNL     1      12.223   7.436  21.819  0.00  0.00    +0.061 C 
ATOM     10  C   UNL     1      10.856   7.799  21.254  0.00  0.00    +0.130 C 
ATOM     11  C   UNL     1      10.544   9.131  21.910  0.00  0.00    +0.116 C 
ENDROOT
BRANCH   8  13
ATOM      4  O   UNL     1      14.190   9.460  20.326  0.00  0.00    -0.336 OA
ATOM      6  N   UNL     1      15.395   8.882  22.123  0.00  0.00    -0.194 NA
ATOM      7  N   UNL     1      15.533   9.615  19.960  0.00  0.00    -0.061 NA
ATOM     13  C   UNL     1      14.198   9.026  21.613  0.00  0.00    +0.245 A 
ATOM     15  C   UNL     1      16.181   9.255  21.072  0.00  0.00    +0.176 A 
BRANCH  15  18
ATOM     18  C   UNL     1      17.645   9.260  21.155  0.00  0.00    +0.116 C 
BRANCH  18  21
ATOM      1 CL   UNL     1      20.426   8.706  22.402  0.00  0.00    -0.083 Cl
ATOM      2  F   UNL     1      20.002   4.232  20.087  0.00  0.00    -0.205 F 
ATOM     21  C   UNL     1      18.306   7.912  20.884  0.00  0.00    -0.021 A 
ATOM     23  C   UNL     1      19.558   7.592  21.411  0.00  0.00    +0.047 A 
ATOM     24  C   UNL     1      17.628   6.989  20.088  0.00  0.00    +0.008 A 
ATOM     25  C   UNL     1      20.131   6.349  21.143  0.00  0.00    +0.058 A 
ATOM     26  C   UNL     1      18.201   5.746  19.820  0.00  0.00    +0.039 A 
ATOM     27  C   UNL     1      19.452   5.425  20.346  0.00  0.00    +0.125 A 
ENDBRANCH  18  21
ENDBRANCH  15  18
ENDBRANCH   8  13
BRANCH  10   3
ATOM      3  O   UNL     1       9.898   6.813  21.588  0.00  0.00    -0.390 OA
ATOM     28  H   UNL     1       9.874   6.170  20.859  0.00  0.00    +0.210 HD
ENDBRANCH  10   3
BRANCH   5  12
ATOM     12  C   UNL     1      11.881  10.979  22.723  0.00  0.00    +0.120 C 
BRANCH  12  14
ATOM     14  C   UNL     1      11.633  12.241  21.940  0.00  0.00    -0.033 A 
ATOM     16  C   UNL     1      10.618  13.115  22.330  0.00  0.00    +0.005 A 
ATOM     17  C   UNL     1      12.418  12.535  20.825  0.00  0.00    +0.005 A 
ATOM     19  C   UNL     1      10.389  14.285  21.604  0.00  0.00    +0.000 A 
ATOM     20  C   UNL     1      12.188  13.704  20.099  0.00  0.00    +0.000 A 
ATOM     22  C   UNL     1      11.173  14.579  20.489  0.00  0.00    +0.000 A 
ENDBRANCH  12  14
ENDBRANCH   5  12
TORSDOF 6
ENDMDL
