MODEL 1
REMARK VINA RESULT:      -7.9      0.000      0.000
REMARK  Name = 26745413
REMARK  8 active torsions:
REMARK  status: ('A' for Active; 'I' for Inactive)
REMARK    1  A    between atoms: O_5  and  C_32
REMARK    2  A    between atoms: N_7  and  C_16
REMARK    3  A    between atoms: N_10  and  C_20
REMARK    4  A    between atoms: C_11  and  C_17
REMARK    5  A    between atoms: C_16  and  C_18
REMARK    6  A    between atoms: C_20  and  C_23
REMARK    7  A    between atoms: C_26  and  C_32
REMARK    8  A    between atoms: C_31  and  C_33
REMARK                            x       y       z     vdW  Elec       q    Type
REMARK                         _______ _______ _______ _____ _____    ______ ____
ROOT
ATOM      7  N   UNL     1      13.652   8.408  19.428  0.00  0.00    -0.281 NA
ATOM      8  N   UNL     1      10.446   8.541  17.465  0.00  0.00    -0.347 N 
ATOM      9  N   UNL     1      11.769   8.878  15.693  0.00  0.00    -0.240 NA
ATOM     11  C   UNL     1      14.415   9.192  18.421  0.00  0.00    +0.150 C 
ATOM     12  C   UNL     1      13.975   9.025  16.938  0.00  0.00    +0.085 C 
ATOM     13  C   UNL     1      12.178   8.602  19.349  0.00  0.00    +0.140 C 
ATOM     14  C   UNL     1      11.715   8.656  17.945  0.00  0.00    +0.053 A 
ATOM     15  C   UNL     1      12.506   8.866  16.843  0.00  0.00    +0.065 A 
ATOM     19  C   UNL     1      10.531   8.681  16.101  0.00  0.00    +0.197 A 
ATOM     34  H   UNL     1       9.604   8.386  18.002  0.00  0.00    +0.167 HD
ENDROOT
BRANCH  11  17
ATOM      4  O   UNL     1      13.879  11.500  18.096  0.00  0.00    -0.274 OA
ATOM     10  N   UNL     1      14.850  10.841  20.108  0.00  0.00    -0.310 N 
ATOM     17  C   UNL     1      14.337  10.635  18.839  0.00  0.00    +0.231 C 
ATOM     35  H   UNL     1      15.191  10.043  20.638  0.00  0.00    +0.149 HD
BRANCH  10  20
ATOM     20  C   UNL     1      14.912  12.142  20.733  0.00  0.00    +0.139 C 
BRANCH  20  23
ATOM     23  C   UNL     1      13.899  12.281  21.839  0.00  0.00    -0.030 A 
ATOM     27  C   UNL     1      12.537  12.196  21.551  0.00  0.00    +0.006 A 
ATOM     28  C   UNL     1      14.324  12.497  23.150  0.00  0.00    +0.006 A 
ATOM     29  C   UNL     1      11.599  12.326  22.576  0.00  0.00    +0.013 A 
ATOM     30  C   UNL     1      13.386  12.626  24.174  0.00  0.00    +0.013 A 
ATOM     31  C   UNL     1      12.023  12.540  23.887  0.00  0.00    +0.055 A 
BRANCH  31  33
ATOM      1  F   UNL     1      10.750  11.504  25.628  0.00  0.00    -0.166 F 
ATOM      2  F   UNL     1       9.815  13.135  24.536  0.00  0.00    -0.166 F 
ATOM      3  F   UNL     1      11.400  13.546  25.966  0.00  0.00    -0.166 F 
ATOM     33  C   UNL     1      11.020  12.678  24.982  0.00  0.00    +0.417 C 
ENDBRANCH  31  33
ENDBRANCH  20  23
ENDBRANCH  10  20
ENDBRANCH  11  17
BRANCH   7  16
ATOM     16  C   UNL     1      14.000   6.986  19.355  0.00  0.00    +0.120 C 
BRANCH  16  18
ATOM     18  C   UNL     1      15.445   6.744  19.702  0.00  0.00    -0.033 A 
ATOM     21  C   UNL     1      15.945   7.165  20.935  0.00  0.00    +0.006 A 
ATOM     22  C   UNL     1      16.283   6.101  18.792  0.00  0.00    +0.006 A 
ATOM     24  C   UNL     1      17.284   6.941  21.257  0.00  0.00    +0.015 A 
ATOM     25  C   UNL     1      17.622   5.877  19.113  0.00  0.00    +0.015 A 
ATOM     26  C   UNL     1      18.122   6.297  20.346  0.00  0.00    +0.059 A 
BRANCH  26  32
ATOM      6  O   UNL     1      20.150   6.652  21.565  0.00  0.00    -0.245 OA
ATOM     32  C   UNL     1      19.518   6.063  20.682  0.00  0.00    +0.337 C 
BRANCH  32   5
ATOM      5  O   UNL     1      20.085   5.100  19.906  0.00  0.00    -0.477 OA
ATOM     36  H   UNL     1      19.436   4.692  19.296  0.00  0.00    +0.295 HD
ENDBRANCH  32   5
ENDBRANCH  26  32
ENDBRANCH  16  18
ENDBRANCH   7  16
TORSDOF 8
ENDMDL
MODEL 2
REMARK VINA RESULT:      -7.7      1.815      2.544
REMARK  Name = 26745413
REMARK  8 active torsions:
REMARK  status: ('A' for Active; 'I' for Inactive)
REMARK    1  A    between atoms: O_5  and  C_32
REMARK    2  A    between atoms: N_7  and  C_16
REMARK    3  A    between atoms: N_10  and  C_20
REMARK    4  A    between atoms: C_11  and  C_17
REMARK    5  A    between atoms: C_16  and  C_18
REMARK    6  A    between atoms: C_20  and  C_23
REMARK    7  A    between atoms: C_26  and  C_32
REMARK    8  A    between atoms: C_31  and  C_33
REMARK                            x       y       z     vdW  Elec       q    Type
REMARK                         _______ _______ _______ _____ _____    ______ ____
ROOT
ATOM      7  N   UNL     1      14.963   8.353  20.002  0.00  0.00    -0.281 NA
ATOM      8  N   UNL     1      11.726   8.254  21.915  0.00  0.00    -0.347 N 
ATOM      9  N   UNL     1      10.756   8.372  19.903  0.00  0.00    -0.240 NA
ATOM     11  C   UNL     1      14.354   9.008  18.814  0.00  0.00    +0.150 C 
ATOM     12  C   UNL     1      12.865   8.664  18.524  0.00  0.00    +0.085 C 
ATOM     13  C   UNL     1      14.184   8.539  21.256  0.00  0.00    +0.140 C 
ATOM     14  C   UNL     1      12.729   8.423  21.010  0.00  0.00    +0.053 A 
ATOM     15  C   UNL     1      12.111   8.498  19.787  0.00  0.00    +0.065 A 
ATOM     19  C   UNL     1      10.555   8.228  21.199  0.00  0.00    +0.197 A 
ATOM     34  H   UNL     1      11.820   8.167  22.918  0.00  0.00    +0.167 HD
ENDROOT
BRANCH  11  17
ATOM      4  O   UNL     1      15.618  10.982  19.287  0.00  0.00    -0.274 OA
ATOM     10  N   UNL     1      13.349  11.186  18.808  0.00  0.00    -0.310 N 
ATOM     17  C   UNL     1      14.531  10.491  18.992  0.00  0.00    +0.231 C 
ATOM     35  H   UNL     1      12.509  10.673  18.551  0.00  0.00    +0.149 HD
BRANCH  10  20
ATOM     20  C   UNL     1      13.246  12.620  18.945  0.00  0.00    +0.139 C 
BRANCH  20  23
ATOM     23  C   UNL     1      12.406  13.012  20.132  0.00  0.00    -0.030 A 
ATOM     27  C   UNL     1      12.226  12.115  21.185  0.00  0.00    +0.006 A 
ATOM     28  C   UNL     1      11.808  14.271  20.178  0.00  0.00    +0.006 A 
ATOM     29  C   UNL     1      11.448  12.478  22.285  0.00  0.00    +0.013 A 
ATOM     30  C   UNL     1      11.031  14.634  21.278  0.00  0.00    +0.013 A 
ATOM     31  C   UNL     1      10.851  13.737  22.332  0.00  0.00    +0.055 A 
BRANCH  31  33
ATOM      1  F   UNL     1      10.666  14.950  24.385  0.00  0.00    -0.166 F 
ATOM      2  F   UNL     1       9.620  13.049  24.246  0.00  0.00    -0.166 F 
ATOM      3  F   UNL     1       8.874  14.788  23.173  0.00  0.00    -0.166 F 
ATOM     33  C   UNL     1      10.021  14.126  23.508  0.00  0.00    +0.417 C 
ENDBRANCH  31  33
ENDBRANCH  20  23
ENDBRANCH  10  20
ENDBRANCH  11  17
BRANCH   7  16
ATOM     16  C   UNL     1      15.213   6.932  19.743  0.00  0.00    +0.120 C 
BRANCH  16  18
ATOM     18  C   UNL     1      16.649   6.559  19.997  0.00  0.00    -0.033 A 
ATOM     21  C   UNL     1      17.292   7.010  21.149  0.00  0.00    +0.006 A 
ATOM     22  C   UNL     1      17.336   5.765  19.080  0.00  0.00    +0.006 A 
ATOM     24  C   UNL     1      18.624   6.666  21.385  0.00  0.00    +0.015 A 
ATOM     25  C   UNL     1      18.667   5.420  19.314  0.00  0.00    +0.015 A 
ATOM     26  C   UNL     1      19.311   5.871  20.467  0.00  0.00    +0.059 A 
BRANCH  26  32
ATOM      6  O   UNL     1      21.359   5.839  21.704  0.00  0.00    -0.245 OA
ATOM     32  C   UNL     1      20.698   5.511  20.713  0.00  0.00    +0.337 C 
BRANCH  32   5
ATOM      5  O   UNL     1      21.224   4.751  19.714  0.00  0.00    -0.477 OA
ATOM     36  H   UNL     1      22.143   5.016  19.497  0.00  0.00    +0.295 HD
ENDBRANCH  32   5
ENDBRANCH  26  32
ENDBRANCH  16  18
ENDBRANCH   7  16
TORSDOF 8
ENDMDL
MODEL 3
REMARK VINA RESULT:      -7.5     14.105     16.380
REMARK  Name = 26745413
REMARK  8 active torsions:
REMARK  status: ('A' for Active; 'I' for Inactive)
REMARK    1  A    between atoms: O_5  and  C_32
REMARK    2  A    between atoms: N_7  and  C_16
REMARK    3  A    between atoms: N_10  and  C_20
REMARK    4  A    between atoms: C_11  and  C_17
REMARK    5  A    between atoms: C_16  and  C_18
REMARK    6  A    between atoms: C_20  and  C_23
REMARK    7  A    between atoms: C_26  and  C_32
REMARK    8  A    between atoms: C_31  and  C_33
REMARK                            x       y       z     vdW  Elec       q    Type
REMARK                         _______ _______ _______ _____ _____    ______ ____
ROOT
ATOM      7  N   UNL     1      10.681   7.289   5.749  0.00  0.00    -0.281 NA
ATOM      8  N   UNL     1      10.714   4.683   8.461  0.00  0.00    -0.347 N 
ATOM      9  N   UNL     1       8.791   5.618   9.119  0.00  0.00    -0.240 NA
ATOM     11  C   UNL     1       9.801   8.213   6.513  0.00  0.00    +0.150 C 
ATOM     12  C   UNL     1       8.772   7.550   7.473  0.00  0.00    +0.085 C 
ATOM     13  C   UNL     1      11.400   6.303   6.601  0.00  0.00    +0.140 C 
ATOM     14  C   UNL     1      10.526   5.778   7.674  0.00  0.00    +0.053 A 
ATOM     15  C   UNL     1       9.346   6.337   8.098  0.00  0.00    +0.065 A 
ATOM     19  C   UNL     1       9.640   4.629   9.316  0.00  0.00    +0.197 A 
ATOM     34  H   UNL     1      11.490   4.036   8.429  0.00  0.00    +0.167 HD
ENDROOT
BRANCH  11  17
ATOM      4  O   UNL     1      10.433   9.537   8.402  0.00  0.00    -0.274 OA
ATOM     10  N   UNL     1      11.809   9.524   6.523  0.00  0.00    -0.310 N 
ATOM     17  C   UNL     1      10.701   9.153   7.265  0.00  0.00    +0.231 C 
ATOM     35  H   UNL     1      11.935   9.131   5.594  0.00  0.00    +0.149 HD
BRANCH  10  20
ATOM     20  C   UNL     1      12.817  10.437   7.011  0.00  0.00    +0.139 C 
BRANCH  20  23
ATOM     23  C   UNL     1      14.206   9.995   6.630  0.00  0.00    -0.030 A 
ATOM     27  C   UNL     1      14.445   8.663   6.293  0.00  0.00    +0.006 A 
ATOM     28  C   UNL     1      15.251  10.918   6.615  0.00  0.00    +0.006 A 
ATOM     29  C   UNL     1      15.732   8.255   5.941  0.00  0.00    +0.013 A 
ATOM     30  C   UNL     1      16.537  10.509   6.262  0.00  0.00    +0.013 A 
ATOM     31  C   UNL     1      16.778   9.177   5.925  0.00  0.00    +0.055 A 
BRANCH  31  33
ATOM      1  F   UNL     1      18.879   8.249   6.595  0.00  0.00    -0.166 F 
ATOM      2  F   UNL     1      18.901   9.757   5.028  0.00  0.00    -0.166 F 
ATOM      3  F   UNL     1      18.173   7.751   4.605  0.00  0.00    -0.166 F 
ATOM     33  C   UNL     1      18.153   8.740   5.547  0.00  0.00    +0.417 C 
ENDBRANCH  31  33
ENDBRANCH  20  23
ENDBRANCH  10  20
ENDBRANCH  11  17
BRANCH   7  16
ATOM     16  C   UNL     1       9.931   6.616   4.683  0.00  0.00    +0.120 C 
BRANCH  16  18
ATOM     18  C   UNL     1      10.832   5.810   3.788  0.00  0.00    -0.033 A 
ATOM     21  C   UNL     1      11.977   6.393   3.243  0.00  0.00    +0.006 A 
ATOM     22  C   UNL     1      10.523   4.480   3.501  0.00  0.00    +0.006 A 
ATOM     24  C   UNL     1      12.812   5.645   2.412  0.00  0.00    +0.015 A 
ATOM     25  C   UNL     1      11.358   3.733   2.671  0.00  0.00    +0.015 A 
ATOM     26  C   UNL     1      12.503   4.316   2.127  0.00  0.00    +0.059 A 
BRANCH  26  32
ATOM      6  O   UNL     1      13.148   3.259   0.079  0.00  0.00    -0.245 OA
ATOM     32  C   UNL     1      13.374   3.536   1.261  0.00  0.00    +0.337 C 
BRANCH  32   5
ATOM      5  O   UNL     1      14.505   3.124   1.897  0.00  0.00    -0.477 OA
ATOM     36  H   UNL     1      15.312   3.508   1.493  0.00  0.00    +0.295 HD
ENDBRANCH  32   5
ENDBRANCH  26  32
ENDBRANCH  16  18
ENDBRANCH   7  16
TORSDOF 8
ENDMDL
MODEL 4
REMARK VINA RESULT:      -7.2     27.578     29.807
REMARK  Name = 26745413
REMARK  8 active torsions:
REMARK  status: ('A' for Active; 'I' for Inactive)
REMARK    1  A    between atoms: O_5  and  C_32
REMARK    2  A    between atoms: N_7  and  C_16
REMARK    3  A    between atoms: N_10  and  C_20
REMARK    4  A    between atoms: C_11  and  C_17
REMARK    5  A    between atoms: C_16  and  C_18
REMARK    6  A    between atoms: C_20  and  C_23
REMARK    7  A    between atoms: C_26  and  C_32
REMARK    8  A    between atoms: C_31  and  C_33
REMARK                            x       y       z     vdW  Elec       q    Type
REMARK                         _______ _______ _______ _____ _____    ______ ____
ROOT
ATOM      7  N   UNL     1      -9.192  -8.827  16.085  0.00  0.00    -0.281 NA
ATOM      8  N   UNL     1     -12.044  -6.374  16.079  0.00  0.00    -0.347 N 
ATOM      9  N   UNL     1     -13.338  -8.173  15.774  0.00  0.00    -0.240 NA
ATOM     11  C   UNL     1      -9.946  -9.855  15.320  0.00  0.00    +0.150 C 
ATOM     12  C   UNL     1     -11.485  -9.891  15.544  0.00  0.00    +0.085 C 
ATOM     13  C   UNL     1      -9.724  -7.447  15.922  0.00  0.00    +0.140 C 
ATOM     14  C   UNL     1     -11.204  -7.435  15.924  0.00  0.00    +0.053 A 
ATOM     15  C   UNL     1     -12.018  -8.523  15.734  0.00  0.00    +0.065 A 
ATOM     19  C   UNL     1     -13.320  -6.870  15.982  0.00  0.00    +0.197 A 
ATOM     34  H   UNL     1     -11.784  -5.409  16.232  0.00  0.00    +0.167 HD
ENDROOT
BRANCH  11  17
ATOM      4  O   UNL     1     -10.507  -9.464  13.028  0.00  0.00    -0.274 OA
ATOM     10  N   UNL     1      -8.266  -9.692  13.616  0.00  0.00    -0.310 N 
ATOM     17  C   UNL     1      -9.626  -9.641  13.866  0.00  0.00    +0.231 C 
ATOM     35  H   UNL     1      -7.626  -9.830  14.394  0.00  0.00    +0.149 HD
BRANCH  10  20
ATOM     20  C   UNL     1      -7.699  -9.538  12.297  0.00  0.00    +0.139 C 
BRANCH  20  23
ATOM     23  C   UNL     1      -6.208  -9.757  12.297  0.00  0.00    -0.030 A 
ATOM     27  C   UNL     1      -5.457  -9.440  11.166  0.00  0.00    +0.006 A 
ATOM     28  C   UNL     1      -5.581 -10.278  13.429  0.00  0.00    +0.006 A 
ATOM     29  C   UNL     1      -4.077  -9.644  11.167  0.00  0.00    +0.013 A 
ATOM     30  C   UNL     1      -4.201 -10.481  13.429  0.00  0.00    +0.013 A 
ATOM     31  C   UNL     1      -3.449 -10.164  12.298  0.00  0.00    +0.055 A 
BRANCH  31  33
ATOM      1  F   UNL     1      -1.612 -11.692  12.176  0.00  0.00    -0.166 F 
ATOM      2  F   UNL     1      -1.381  -9.945  13.449  0.00  0.00    -0.166 F 
ATOM      3  F   UNL     1      -1.324  -9.734  11.285  0.00  0.00    -0.166 F 
ATOM     33  C   UNL     1      -1.973 -10.380  12.299  0.00  0.00    +0.417 C 
ENDBRANCH  31  33
ENDBRANCH  20  23
ENDBRANCH  10  20
ENDBRANCH  11  17
BRANCH   7  16
ATOM     16  C   UNL     1      -9.103  -9.193  17.502  0.00  0.00    +0.120 C 
BRANCH  16  18
ATOM     18  C   UNL     1      -7.782  -9.835  17.833  0.00  0.00    -0.033 A 
ATOM     21  C   UNL     1      -6.684  -9.641  16.994  0.00  0.00    +0.006 A 
ATOM     22  C   UNL     1      -7.656 -10.623  18.976  0.00  0.00    +0.006 A 
ATOM     24  C   UNL     1      -5.459 -10.236  17.300  0.00  0.00    +0.015 A 
ATOM     25  C   UNL     1      -6.432 -11.218  19.283  0.00  0.00    +0.015 A 
ATOM     26  C   UNL     1      -5.334 -11.024  18.444  0.00  0.00    +0.059 A 
BRANCH  26  32
ATOM      6  O   UNL     1      -3.726 -12.070  19.876  0.00  0.00    -0.245 OA
ATOM     32  C   UNL     1      -4.057 -11.644  18.764  0.00  0.00    +0.337 C 
BRANCH  32   5
ATOM      5  O   UNL     1      -3.228 -11.714  17.687  0.00  0.00    -0.477 OA
ATOM     36  H   UNL     1      -2.297 -11.869  17.951  0.00  0.00    +0.295 HD
ENDBRANCH  32   5
ENDBRANCH  26  32
ENDBRANCH  16  18
ENDBRANCH   7  16
TORSDOF 8
ENDMDL
MODEL 5
REMARK VINA RESULT:      -7.1     25.287     27.975
REMARK  Name = 26745413
REMARK  8 active torsions:
REMARK  status: ('A' for Active; 'I' for Inactive)
REMARK    1  A    between atoms: O_5  and  C_32
REMARK    2  A    between atoms: N_7  and  C_16
REMARK    3  A    between atoms: N_10  and  C_20
REMARK    4  A    between atoms: C_11  and  C_17
REMARK    5  A    between atoms: C_16  and  C_18
REMARK    6  A    between atoms: C_20  and  C_23
REMARK    7  A    between atoms: C_26  and  C_32
REMARK    8  A    between atoms: C_31  and  C_33
REMARK                            x       y       z     vdW  Elec       q    Type
REMARK                         _______ _______ _______ _____ _____    ______ ____
ROOT
ATOM      7  N   UNL     1     -14.731   7.588  21.619  0.00  0.00    -0.281 NA
ATOM      8  N   UNL     1     -14.360   4.692  23.990  0.00  0.00    -0.347 N 
ATOM      9  N   UNL     1     -16.590   4.566  23.883  0.00  0.00    -0.240 NA
ATOM     11  C   UNL     1     -16.137   7.862  22.020  0.00  0.00    +0.150 C 
ATOM     12  C   UNL     1     -16.980   6.632  22.463  0.00  0.00    +0.085 C 
ATOM     13  C   UNL     1     -13.955   6.826  22.635  0.00  0.00    +0.140 C 
ATOM     14  C   UNL     1     -14.773   5.756  23.249  0.00  0.00    +0.053 A 
ATOM     15  C   UNL     1     -16.141   5.661  23.201  0.00  0.00    +0.065 A 
ATOM     19  C   UNL     1     -15.493   4.003  24.349  0.00  0.00    +0.197 A 
ATOM     34  H   UNL     1     -13.408   4.453  24.235  0.00  0.00    +0.167 HD
ENDROOT
BRANCH  11  17
ATOM      4  O   UNL     1     -16.709   8.754  24.164  0.00  0.00    -0.274 OA
ATOM     10  N   UNL     1     -15.300   9.980  22.772  0.00  0.00    -0.310 N 
ATOM     17  C   UNL     1     -16.088   8.894  23.112  0.00  0.00    +0.231 C 
ATOM     35  H   UNL     1     -14.821   9.981  21.876  0.00  0.00    +0.149 HD
BRANCH  10  20
ATOM     20  C   UNL     1     -15.107  11.118  23.640  0.00  0.00    +0.139 C 
BRANCH  20  23
ATOM     23  C   UNL     1     -13.926  10.932  24.555  0.00  0.00    -0.030 A 
ATOM     27  C   UNL     1     -12.638  11.203  24.095  0.00  0.00    +0.006 A 
ATOM     28  C   UNL     1     -14.120  10.488  25.863  0.00  0.00    +0.006 A 
ATOM     29  C   UNL     1     -11.543  11.030  24.942  0.00  0.00    +0.013 A 
ATOM     30  C   UNL     1     -13.026  10.316  26.711  0.00  0.00    +0.013 A 
ATOM     31  C   UNL     1     -11.737  10.587  26.250  0.00  0.00    +0.055 A 
BRANCH  31  33
ATOM      1  F   UNL     1      -9.363  10.450  26.514  0.00  0.00    -0.166 F 
ATOM      2  F   UNL     1     -10.589   9.202  27.804  0.00  0.00    -0.166 F 
ATOM      3  F   UNL     1     -10.484  11.348  28.140  0.00  0.00    -0.166 F 
ATOM     33  C   UNL     1     -10.567  10.403  27.157  0.00  0.00    +0.417 C 
ENDBRANCH  31  33
ENDBRANCH  20  23
ENDBRANCH  10  20
ENDBRANCH  11  17
BRANCH   7  16
ATOM     16  C   UNL     1     -14.681   6.926  20.312  0.00  0.00    +0.120 C 
BRANCH  16  18
ATOM     18  C   UNL     1     -13.564   7.460  19.456  0.00  0.00    -0.033 A 
ATOM     21  C   UNL     1     -12.237   7.237  19.823  0.00  0.00    +0.006 A 
ATOM     22  C   UNL     1     -13.855   8.178  18.296  0.00  0.00    +0.006 A 
ATOM     24  C   UNL     1     -11.201   7.732  19.030  0.00  0.00    +0.015 A 
ATOM     25  C   UNL     1     -12.821   8.673  17.503  0.00  0.00    +0.015 A 
ATOM     26  C   UNL     1     -11.494   8.450  17.871  0.00  0.00    +0.059 A 
BRANCH  26  32
ATOM      6  O   UNL     1     -10.425   9.027  15.809  0.00  0.00    -0.245 OA
ATOM     32  C   UNL     1     -10.414   8.965  17.043  0.00  0.00    +0.337 C 
BRANCH  32   5
ATOM      5  O   UNL     1      -9.351   9.390  17.779  0.00  0.00    -0.477 OA
ATOM     36  H   UNL     1      -8.815   8.639  18.113  0.00  0.00    +0.295 HD
ENDBRANCH  32   5
ENDBRANCH  26  32
ENDBRANCH  16  18
ENDBRANCH   7  16
TORSDOF 8
ENDMDL
MODEL 6
REMARK VINA RESULT:      -6.8     28.084     29.748
REMARK  Name = 26745413
REMARK  8 active torsions:
REMARK  status: ('A' for Active; 'I' for Inactive)
REMARK    1  A    between atoms: O_5  and  C_32
REMARK    2  A    between atoms: N_7  and  C_16
REMARK    3  A    between atoms: N_10  and  C_20
REMARK    4  A    between atoms: C_11  and  C_17
REMARK    5  A    between atoms: C_16  and  C_18
REMARK    6  A    between atoms: C_20  and  C_23
REMARK    7  A    between atoms: C_26  and  C_32
REMARK    8  A    between atoms: C_31  and  C_33
REMARK                            x       y       z     vdW  Elec       q    Type
REMARK                         _______ _______ _______ _____ _____    ______ ____
ROOT
ATOM      7  N   UNL     1      -4.062 -11.392  13.957  0.00  0.00    -0.281 NA
ATOM      8  N   UNL     1      -2.941 -14.897  14.737  0.00  0.00    -0.347 N 
ATOM      9  N   UNL     1      -1.190 -14.423  13.429  0.00  0.00    -0.240 NA
ATOM     11  C   UNL     1      -3.278 -11.319  12.695  0.00  0.00    +0.150 C 
ATOM     12  C   UNL     1      -1.951 -12.129  12.659  0.00  0.00    +0.085 C 
ATOM     13  C   UNL     1      -4.346 -12.782  14.406  0.00  0.00    +0.140 C 
ATOM     14  C   UNL     1      -3.174 -13.664  14.209  0.00  0.00    +0.053 A 
ATOM     15  C   UNL     1      -2.092 -13.398  13.408  0.00  0.00    +0.065 A 
ATOM     19  C   UNL     1      -1.732 -15.313  14.238  0.00  0.00    +0.197 A 
ATOM     34  H   UNL     1      -3.539 -15.411  15.370  0.00  0.00    +0.167 HD
ENDROOT
BRANCH  11  17
ATOM      4  O   UNL     1      -3.828 -12.531  10.708  0.00  0.00    -0.274 OA
ATOM     10  N   UNL     1      -5.442 -11.157  11.672  0.00  0.00    -0.310 N 
ATOM     17  C   UNL     1      -4.195 -11.751  11.584  0.00  0.00    +0.231 C 
ATOM     35  H   UNL     1      -5.639 -10.536  12.452  0.00  0.00    +0.149 HD
BRANCH  10  20
ATOM     20  C   UNL     1      -6.498 -11.390  10.714  0.00  0.00    +0.139 C 
BRANCH  20  23
ATOM     23  C   UNL     1      -6.956 -10.111  10.062  0.00  0.00    -0.030 A 
ATOM     27  C   UNL     1      -8.304  -9.757  10.095  0.00  0.00    +0.006 A 
ATOM     28  C   UNL     1      -6.031  -9.283   9.426  0.00  0.00    +0.006 A 
ATOM     29  C   UNL     1      -8.728  -8.573   9.491  0.00  0.00    +0.013 A 
ATOM     30  C   UNL     1      -6.456  -8.099   8.823  0.00  0.00    +0.013 A 
ATOM     31  C   UNL     1      -7.805  -7.744   8.856  0.00  0.00    +0.055 A 
BRANCH  31  33
ATOM      1  F   UNL     1      -7.323  -5.481   8.245  0.00  0.00    -0.166 F 
ATOM      2  F   UNL     1      -9.369  -5.955   8.805  0.00  0.00    -0.166 F 
ATOM      3  F   UNL     1      -8.579  -6.620   6.891  0.00  0.00    -0.166 F 
ATOM     33  C   UNL     1      -8.257  -6.477   8.211  0.00  0.00    +0.417 C 
ENDBRANCH  31  33
ENDBRANCH  20  23
ENDBRANCH  10  20
ENDBRANCH  11  17
BRANCH   7  16
ATOM     16  C   UNL     1      -3.415 -10.617  15.019  0.00  0.00    +0.120 C 
BRANCH  16  18
ATOM     18  C   UNL     1      -4.187 -10.681  16.309  0.00  0.00    -0.033 A 
ATOM     21  C   UNL     1      -3.650 -11.349  17.410  0.00  0.00    +0.006 A 
ATOM     22  C   UNL     1      -5.439 -10.073  16.404  0.00  0.00    +0.006 A 
ATOM     24  C   UNL     1      -4.366 -11.408  18.607  0.00  0.00    +0.015 A 
ATOM     25  C   UNL     1      -6.155 -10.133  17.600  0.00  0.00    +0.015 A 
ATOM     26  C   UNL     1      -5.618 -10.800  18.701  0.00  0.00    +0.059 A 
BRANCH  26  32
ATOM      6  O   UNL     1      -5.955 -11.356  21.004  0.00  0.00    -0.245 OA
ATOM     32  C   UNL     1      -6.364 -10.861  19.948  0.00  0.00    +0.337 C 
BRANCH  32   5
ATOM      5  O   UNL     1      -7.601 -10.303  19.843  0.00  0.00    -0.477 OA
ATOM     36  H   UNL     1      -7.940 -10.337  18.923  0.00  0.00    +0.295 HD
ENDBRANCH  32   5
ENDBRANCH  26  32
ENDBRANCH  16  18
ENDBRANCH   7  16
TORSDOF 8
ENDMDL
MODEL 7
REMARK VINA RESULT:      -6.8     27.688     30.864
REMARK  Name = 26745413
REMARK  8 active torsions:
REMARK  status: ('A' for Active; 'I' for Inactive)
REMARK    1  A    between atoms: O_5  and  C_32
REMARK    2  A    between atoms: N_7  and  C_16
REMARK    3  A    between atoms: N_10  and  C_20
REMARK    4  A    between atoms: C_11  and  C_17
REMARK    5  A    between atoms: C_16  and  C_18
REMARK    6  A    between atoms: C_20  and  C_23
REMARK    7  A    between atoms: C_26  and  C_32
REMARK    8  A    between atoms: C_31  and  C_33
REMARK                            x       y       z     vdW  Elec       q    Type
REMARK                         _______ _______ _______ _____ _____    ______ ____
ROOT
ATOM      7  N   UNL     1      -8.556 -12.137  17.495  0.00  0.00    -0.281 NA
ATOM      8  N   UNL     1      -8.986 -15.447  19.229  0.00  0.00    -0.347 N 
ATOM      9  N   UNL     1      -9.679 -14.227  20.971  0.00  0.00    -0.240 NA
ATOM     11  C   UNL     1      -8.433 -11.376  18.767  0.00  0.00    +0.150 C 
ATOM     12  C   UNL     1      -9.224 -11.934  19.984  0.00  0.00    +0.085 C 
ATOM     13  C   UNL     1      -8.250 -13.587  17.631  0.00  0.00    +0.140 C 
ATOM     14  C   UNL     1      -8.809 -14.142  18.884  0.00  0.00    +0.053 A 
ATOM     15  C   UNL     1      -9.235 -13.414  19.967  0.00  0.00    +0.065 A 
ATOM     19  C   UNL     1      -9.514 -15.446  20.497  0.00  0.00    +0.197 A 
ATOM     34  H   UNL     1      -8.769 -16.260  18.669  0.00  0.00    +0.167 HD
ENDROOT
BRANCH  11  17
ATOM      4  O   UNL     1      -6.532 -11.507  20.211  0.00  0.00    -0.274 OA
ATOM     10  N   UNL     1      -6.214 -10.916  17.981  0.00  0.00    -0.310 N 
ATOM     17  C   UNL     1      -6.966 -11.286  19.083  0.00  0.00    +0.231 C 
ATOM     35  H   UNL     1      -6.682 -10.773  17.090  0.00  0.00    +0.149 HD
BRANCH  10  20
ATOM     20  C   UNL     1      -4.781 -10.738  18.026  0.00  0.00    +0.139 C 
BRANCH  20  23
ATOM     23  C   UNL     1      -4.177 -10.699  16.647  0.00  0.00    -0.030 A 
ATOM     27  C   UNL     1      -2.792 -10.739  16.492  0.00  0.00    +0.006 A 
ATOM     28  C   UNL     1      -5.003 -10.623  15.526  0.00  0.00    +0.006 A 
ATOM     29  C   UNL     1      -2.232 -10.703  15.214  0.00  0.00    +0.013 A 
ATOM     30  C   UNL     1      -4.443 -10.588  14.249  0.00  0.00    +0.013 A 
ATOM     31  C   UNL     1      -3.057 -10.628  14.093  0.00  0.00    +0.055 A 
BRANCH  31  33
ATOM      1  F   UNL     1      -3.310 -10.115  11.770  0.00  0.00    -0.166 F 
ATOM      2  F   UNL     1      -2.072 -11.825  12.291  0.00  0.00    -0.166 F 
ATOM      3  F   UNL     1      -1.346  -9.804  12.638  0.00  0.00    -0.166 F 
ATOM     33  C   UNL     1      -2.459 -10.591  12.727  0.00  0.00    +0.417 C 
ENDBRANCH  31  33
ENDBRANCH  20  23
ENDBRANCH  10  20
ENDBRANCH  11  17
BRANCH   7  16
ATOM     16  C   UNL     1      -9.876 -11.932  16.890  0.00  0.00    +0.120 C 
BRANCH  16  18
ATOM     18  C   UNL     1     -10.143 -10.477  16.609  0.00  0.00    -0.033 A 
ATOM     21  C   UNL     1     -11.294  -9.871  17.113  0.00  0.00    +0.006 A 
ATOM     22  C   UNL     1      -9.242  -9.736  15.845  0.00  0.00    +0.006 A 
ATOM     24  C   UNL     1     -11.543  -8.522  16.852  0.00  0.00    +0.015 A 
ATOM     25  C   UNL     1      -9.490  -8.389  15.585  0.00  0.00    +0.015 A 
ATOM     26  C   UNL     1     -10.640  -7.782  16.089  0.00  0.00    +0.059 A 
BRANCH  26  32
ATOM      6  O   UNL     1     -11.993  -5.814  15.935  0.00  0.00    -0.245 OA
ATOM     32  C   UNL     1     -10.899  -6.377  15.818  0.00  0.00    +0.337 C 
BRANCH  32   5
ATOM      5  O   UNL     1      -9.784  -5.711  15.410  0.00  0.00    -0.477 OA
ATOM     36  H   UNL     1      -9.834  -4.753  15.614  0.00  0.00    +0.295 HD
ENDBRANCH  32   5
ENDBRANCH  26  32
ENDBRANCH  16  18
ENDBRANCH   7  16
TORSDOF 8
ENDMDL
MODEL 8
REMARK VINA RESULT:      -6.8     27.969     30.948
REMARK  Name = 26745413
REMARK  8 active torsions:
REMARK  status: ('A' for Active; 'I' for Inactive)
REMARK    1  A    between atoms: O_5  and  C_32
REMARK    2  A    between atoms: N_7  and  C_16
REMARK    3  A    between atoms: N_10  and  C_20
REMARK    4  A    between atoms: C_11  and  C_17
REMARK    5  A    between atoms: C_16  and  C_18
REMARK    6  A    between atoms: C_20  and  C_23
REMARK    7  A    between atoms: C_26  and  C_32
REMARK    8  A    between atoms: C_31  and  C_33
REMARK                            x       y       z     vdW  Elec       q    Type
REMARK                         _______ _______ _______ _____ _____    ______ ____
ROOT
ATOM      7  N   UNL     1     -15.265   5.728  32.822  0.00  0.00    -0.281 NA
ATOM      8  N   UNL     1     -17.576   8.661  33.277  0.00  0.00    -0.347 N 
ATOM      9  N   UNL     1     -15.811   9.899  32.685  0.00  0.00    -0.240 NA
ATOM     11  C   UNL     1     -14.036   6.541  33.023  0.00  0.00    +0.150 C 
ATOM     12  C   UNL     1     -14.106   8.024  32.559  0.00  0.00    +0.085 C 
ATOM     13  C   UNL     1     -16.493   6.344  33.396  0.00  0.00    +0.140 C 
ATOM     14  C   UNL     1     -16.524   7.805  33.162  0.00  0.00    +0.053 A 
ATOM     15  C   UNL     1     -15.453   8.586  32.804  0.00  0.00    +0.065 A 
ATOM     19  C   UNL     1     -17.096   9.912  32.979  0.00  0.00    +0.197 A 
ATOM     34  H   UNL     1     -18.526   8.427  33.534  0.00  0.00    +0.167 HD
ENDROOT
BRANCH  11  17
ATOM      4  O   UNL     1     -13.944   5.460  35.154  0.00  0.00    -0.274 OA
ATOM     10  N   UNL     1     -13.094   7.618  34.948  0.00  0.00    -0.310 N 
ATOM     17  C   UNL     1     -13.690   6.458  34.484  0.00  0.00    +0.231 C 
ATOM     35  H   UNL     1     -12.919   8.378  34.296  0.00  0.00    +0.149 HD
BRANCH  10  20
ATOM     20  C   UNL     1     -12.685   7.801  36.321  0.00  0.00    +0.139 C 
BRANCH  20  23
ATOM     23  C   UNL     1     -11.244   8.225  36.427  0.00  0.00    -0.030 A 
ATOM     27  C   UNL     1     -10.407   7.624  37.366  0.00  0.00    +0.006 A 
ATOM     28  C   UNL     1     -10.747   9.219  35.584  0.00  0.00    +0.006 A 
ATOM     29  C   UNL     1      -9.072   8.017  37.464  0.00  0.00    +0.013 A 
ATOM     30  C   UNL     1      -9.412   9.612  35.681  0.00  0.00    +0.013 A 
ATOM     31  C   UNL     1      -8.574   9.011  36.622  0.00  0.00    +0.055 A 
BRANCH  31  33
ATOM      1  F   UNL     1      -6.368   8.555  37.426  0.00  0.00    -0.166 F 
ATOM      2  F   UNL     1      -6.998  10.634  37.350  0.00  0.00    -0.166 F 
ATOM      3  F   UNL     1      -6.528   9.567  35.514  0.00  0.00    -0.166 F 
ATOM     33  C   UNL     1      -7.147   9.430  36.724  0.00  0.00    +0.417 C 
ENDBRANCH  31  33
ENDBRANCH  20  23
ENDBRANCH  10  20
ENDBRANCH  11  17
BRANCH   7  16
ATOM     16  C   UNL     1     -15.451   5.406  31.404  0.00  0.00    +0.120 C 
BRANCH  16  18
ATOM     18  C   UNL     1     -15.247   3.939  31.132  0.00  0.00    -0.033 A 
ATOM     21  C   UNL     1     -15.131   3.484  29.818  0.00  0.00    +0.006 A 
ATOM     22  C   UNL     1     -15.175   3.036  32.192  0.00  0.00    +0.006 A 
ATOM     24  C   UNL     1     -14.943   2.125  29.565  0.00  0.00    +0.015 A 
ATOM     25  C   UNL     1     -14.987   1.677  31.940  0.00  0.00    +0.015 A 
ATOM     26  C   UNL     1     -14.870   1.222  30.626  0.00  0.00    +0.059 A 
BRANCH  26  32
ATOM      6  O   UNL     1     -14.243  -0.674  29.308  0.00  0.00    -0.245 OA
ATOM     32  C   UNL     1     -14.673  -0.195  30.363  0.00  0.00    +0.337 C 
BRANCH  32   5
ATOM      5  O   UNL     1     -15.017  -0.974  31.423  0.00  0.00    -0.477 OA
ATOM     36  H   UNL     1     -15.594  -1.722  31.156  0.00  0.00    +0.295 HD
ENDBRANCH  32   5
ENDBRANCH  26  32
ENDBRANCH  16  18
ENDBRANCH   7  16
TORSDOF 8
ENDMDL
MODEL 9
REMARK VINA RESULT:      -6.7      5.142      7.971
REMARK  Name = 26745413
REMARK  8 active torsions:
REMARK  status: ('A' for Active; 'I' for Inactive)
REMARK    1  A    between atoms: O_5  and  C_32
REMARK    2  A    between atoms: N_7  and  C_16
REMARK    3  A    between atoms: N_10  and  C_20
REMARK    4  A    between atoms: C_11  and  C_17
REMARK    5  A    between atoms: C_16  and  C_18
REMARK    6  A    between atoms: C_20  and  C_23
REMARK    7  A    between atoms: C_26  and  C_32
REMARK    8  A    between atoms: C_31  and  C_33
REMARK                            x       y       z     vdW  Elec       q    Type
REMARK                         _______ _______ _______ _____ _____    ______ ____
ROOT
ATOM      7  N   UNL     1      13.317  11.926  23.474  0.00  0.00    -0.281 NA
ATOM      8  N   UNL     1      13.113  13.279  26.977  0.00  0.00    -0.347 N 
ATOM      9  N   UNL     1      12.671  15.237  25.991  0.00  0.00    -0.240 NA
ATOM     11  C   UNL     1      13.617  13.254  22.874  0.00  0.00    +0.150 C 
ATOM     12  C   UNL     1      12.997  14.489  23.588  0.00  0.00    +0.085 C 
ATOM     13  C   UNL     1      13.632  11.838  24.926  0.00  0.00    +0.140 C 
ATOM     14  C   UNL     1      13.247  13.077  25.638  0.00  0.00    +0.053 A 
ATOM     15  C   UNL     1      12.977  14.290  25.055  0.00  0.00    +0.065 A 
ATOM     19  C   UNL     1      12.764  14.598  27.140  0.00  0.00    +0.197 A 
ATOM     34  H   UNL     1      13.246  12.598  27.712  0.00  0.00    +0.167 HD
ENDROOT
BRANCH  11  17
ATOM      4  O   UNL     1      15.712  14.312  23.330  0.00  0.00    -0.274 OA
ATOM     10  N   UNL     1      15.692  12.343  22.087  0.00  0.00    -0.310 N 
ATOM     17  C   UNL     1      15.114  13.375  22.806  0.00  0.00    +0.231 C 
ATOM     35  H   UNL     1      15.096  11.611  21.710  0.00  0.00    +0.149 HD
BRANCH  10  20
ATOM     20  C   UNL     1      17.114  12.240  21.856  0.00  0.00    +0.139 C 
BRANCH  20  23
ATOM     23  C   UNL     1      17.553  10.809  21.687  0.00  0.00    -0.030 A 
ATOM     27  C   UNL     1      16.646   9.851  21.236  0.00  0.00    +0.006 A 
ATOM     28  C   UNL     1      18.866  10.444  21.981  0.00  0.00    +0.006 A 
ATOM     29  C   UNL     1      17.052   8.526  21.079  0.00  0.00    +0.013 A 
ATOM     30  C   UNL     1      19.272   9.118  21.823  0.00  0.00    +0.013 A 
ATOM     31  C   UNL     1      18.365   8.159  21.372  0.00  0.00    +0.055 A 
BRANCH  31  33
ATOM      1  F   UNL     1      17.781   5.890  20.889  0.00  0.00    -0.166 F 
ATOM      2  F   UNL     1      19.369   6.231  22.334  0.00  0.00    -0.166 F 
ATOM      3  F   UNL     1      19.728   6.570  20.215  0.00  0.00    -0.166 F 
ATOM     33  C   UNL     1      18.801   6.743  21.204  0.00  0.00    +0.417 C 
ENDBRANCH  31  33
ENDBRANCH  20  23
ENDBRANCH  10  20
ENDBRANCH  11  17
BRANCH   7  16
ATOM     16  C   UNL     1      11.928  11.537  23.212  0.00  0.00    +0.120 C 
BRANCH  16  18
ATOM     18  C   UNL     1      11.831  10.138  22.666  0.00  0.00    -0.033 A 
ATOM     21  C   UNL     1      12.957   9.527  22.112  0.00  0.00    +0.006 A 
ATOM     22  C   UNL     1      10.618   9.453  22.712  0.00  0.00    +0.006 A 
ATOM     24  C   UNL     1      12.867   8.230  21.605  0.00  0.00    +0.015 A 
ATOM     25  C   UNL     1      10.528   8.156  22.206  0.00  0.00    +0.015 A 
ATOM     26  C   UNL     1      11.653   7.545  21.653  0.00  0.00    +0.059 A 
BRANCH  26  32
ATOM      6  O   UNL     1      11.055   5.229  21.712  0.00  0.00    -0.245 OA
ATOM     32  C   UNL     1      11.560   6.192  21.126  0.00  0.00    +0.337 C 
BRANCH  32   5
ATOM      5  O   UNL     1      12.101   6.080  19.882  0.00  0.00    -0.477 OA
ATOM     36  H   UNL     1      13.022   6.416  19.851  0.00  0.00    +0.295 HD
ENDBRANCH  32   5
ENDBRANCH  26  32
ENDBRANCH  16  18
ENDBRANCH   7  16
TORSDOF 8
ENDMDL
MODEL 10
REMARK VINA RESULT:      -6.6     13.056     16.631
REMARK  Name = 26745413
REMARK  8 active torsions:
REMARK  status: ('A' for Active; 'I' for Inactive)
REMARK    1  A    between atoms: O_5  and  C_32
REMARK    2  A    between atoms: N_7  and  C_16
REMARK    3  A    between atoms: N_10  and  C_20
REMARK    4  A    between atoms: C_11  and  C_17
REMARK    5  A    between atoms: C_16  and  C_18
REMARK    6  A    between atoms: C_20  and  C_23
REMARK    7  A    between atoms: C_26  and  C_32
REMARK    8  A    between atoms: C_31  and  C_33
REMARK                            x       y       z     vdW  Elec       q    Type
REMARK                         _______ _______ _______ _____ _____    ______ ____
ROOT
ATOM      7  N   UNL     1      10.687   6.039   4.105  0.00  0.00    -0.281 NA
ATOM      8  N   UNL     1      11.429   5.842   7.787  0.00  0.00    -0.347 N 
ATOM      9  N   UNL     1       9.207   5.834   8.040  0.00  0.00    -0.240 NA
ATOM     11  C   UNL     1       9.332   6.617   4.310  0.00  0.00    +0.150 C 
ATOM     12  C   UNL     1       8.586   6.185   5.605  0.00  0.00    +0.085 C 
ATOM     13  C   UNL     1      11.603   6.231   5.263  0.00  0.00    +0.140 C 
ATOM     14  C   UNL     1      10.898   6.030   6.548  0.00  0.00    +0.053 A 
ATOM     15  C   UNL     1       9.537   6.026   6.729  0.00  0.00    +0.065 A 
ATOM     19  C   UNL     1      10.370   5.729   8.654  0.00  0.00    +0.197 A 
ATOM     34  H   UNL     1      12.410   5.798   8.028  0.00  0.00    +0.167 HD
ENDROOT
BRANCH  11  17
ATOM      4  O   UNL     1      10.337   8.654   3.562  0.00  0.00    -0.274 OA
ATOM     10  N   UNL     1       8.574   8.759   5.080  0.00  0.00    -0.310 N 
ATOM     17  C   UNL     1       9.481   8.112   4.257  0.00  0.00    +0.231 C 
ATOM     35  H   UNL     1       7.899   8.205   5.602  0.00  0.00    +0.149 HD
BRANCH  10  20
ATOM     20  C   UNL     1       8.525  10.195   5.226  0.00  0.00    +0.139 C 
BRANCH  20  23
ATOM     23  C   UNL     1       9.022  10.639   6.577  0.00  0.00    -0.030 A 
ATOM     27  C   UNL     1       8.983  11.989   6.924  0.00  0.00    +0.006 A 
ATOM     28  C   UNL     1       9.522   9.701   7.479  0.00  0.00    +0.006 A 
ATOM     29  C   UNL     1       9.444  12.401   8.175  0.00  0.00    +0.013 A 
ATOM     30  C   UNL     1       9.982  10.112   8.729  0.00  0.00    +0.013 A 
ATOM     31  C   UNL     1       9.944  11.463   9.077  0.00  0.00    +0.055 A 
BRANCH  31  33
ATOM      1  F   UNL     1      10.394  13.256  10.596  0.00  0.00    -0.166 F 
ATOM      2  F   UNL     1      11.732  11.543  10.641  0.00  0.00    -0.166 F 
ATOM      3  F   UNL     1       9.723  11.381  11.458  0.00  0.00    -0.166 F 
ATOM     33  C   UNL     1      10.435  11.902  10.415  0.00  0.00    +0.417 C 
ENDBRANCH  31  33
ENDBRANCH  20  23
ENDBRANCH  10  20
ENDBRANCH  11  17
BRANCH   7  16
ATOM     16  C   UNL     1      10.599   4.624   3.732  0.00  0.00    +0.120 C 
BRANCH  16  18
ATOM     18  C   UNL     1      10.995   4.398   2.297  0.00  0.00    -0.033 A 
ATOM     21  C   UNL     1      12.172   3.712   1.998  0.00  0.00    +0.006 A 
ATOM     22  C   UNL     1      10.184   4.874   1.267  0.00  0.00    +0.006 A 
ATOM     24  C   UNL     1      12.539   3.503   0.669  0.00  0.00    +0.015 A 
ATOM     25  C   UNL     1      10.550   4.665  -0.063  0.00  0.00    +0.015 A 
ATOM     26  C   UNL     1      11.728   3.979  -0.361  0.00  0.00    +0.059 A 
BRANCH  26  32
ATOM      6  O   UNL     1      12.168   4.632  -2.621  0.00  0.00    -0.245 OA
ATOM     32  C   UNL     1      12.110   3.760  -1.748  0.00  0.00    +0.337 C 
BRANCH  32   5
ATOM      5  O   UNL     1      12.408   2.457  -2.006  0.00  0.00    -0.477 OA
ATOM     36  H   UNL     1      11.627   1.961  -2.331  0.00  0.00    +0.295 HD
ENDBRANCH  32   5
ENDBRANCH  26  32
ENDBRANCH  16  18
ENDBRANCH   7  16
TORSDOF 8
ENDMDL
