MODEL 1
REMARK VINA RESULT:      -6.4      0.000      0.000
REMARK  Name = 11912132
REMARK  7 active torsions:
REMARK  status: ('A' for Active; 'I' for Inactive)
REMARK    1  A    between atoms: N_8  and  C_18
REMARK    2  A    between atoms: C_11  and  C_14
REMARK    3  A    between atoms: C_14  and  C_18
REMARK    4  A    between atoms: C_18  and  C_30
REMARK    5  A    between atoms: C_19  and  C_27
REMARK    6  A    between atoms: C_20  and  C_24
REMARK    7  A    between atoms: C_31  and  C_32
REMARK                            x       y       z     vdW  Elec       q    Type
REMARK                         _______ _______ _______ _____ _____    ______ ____
ROOT
ATOM      2  O   UNL     1      -3.495 -15.225  13.322  0.00  0.00    -0.275 OA
ATOM      5  O   UNL     1      -3.379  -9.235   9.733  0.00  0.00    -0.269 OA
ATOM      6  N   UNL     1      -4.455 -13.709  11.844  0.00  0.00    -0.298 N 
ATOM      7  N   UNL     1      -4.317 -11.301  10.202  0.00  0.00    -0.283 N 
ATOM     19  C   UNL     1      -3.296 -11.596  11.210  0.00  0.00    +0.179 C 
ATOM     21  C   UNL     1      -3.170 -13.086  11.513  0.00  0.00    +0.139 C 
ATOM     22  C   UNL     1      -5.645 -13.170  11.180  0.00  0.00    +0.127 C 
ATOM     23  C   UNL     1      -5.313 -12.350   9.938  0.00  0.00    +0.128 C 
ATOM     24  C   UNL     1      -4.489 -14.764  12.758  0.00  0.00    +0.219 C 
ATOM     31  C   UNL     1      -4.229 -10.089   9.480  0.00  0.00    +0.254 C 
ENDROOT
BRANCH  24  20
ATOM      9  N   UNL     1      -5.795 -16.871  15.550  0.00  0.00    -0.316 NA
ATOM     20  C   UNL     1      -5.843 -15.352  13.042  0.00  0.00    +0.078 C 
ATOM     25  C   UNL     1      -5.777 -16.880  13.077  0.00  0.00    +0.028 C 
ATOM     26  C   UNL     1      -6.414 -14.798  14.349  0.00  0.00    +0.028 C 
ATOM     28  C   UNL     1      -5.132 -17.403  14.361  0.00  0.00    +0.081 C 
ATOM     29  C   UNL     1      -5.741 -15.410  15.579  0.00  0.00    +0.081 C 
ATOM     37  H   UNL     1      -5.341 -17.241  16.384  0.00  0.00    +0.122 HD
ENDBRANCH  24  20
BRANCH  31  32
ATOM      1  S   UNL     1      -6.610  -8.954   8.748  0.00  0.00    -0.092 S 
ATOM     32  C   UNL     1      -5.202  -9.870   8.414  0.00  0.00    +0.074 A 
ATOM     33  C   UNL     1      -5.165 -10.305   7.108  0.00  0.00    +0.021 A 
ATOM     34  C   UNL     1      -6.310  -9.881   6.371  0.00  0.00    +0.008 A 
ATOM     35  C   UNL     1      -7.176  -9.138   7.142  0.00  0.00    +0.046 A 
ENDBRANCH  31  32
BRANCH  19  27
ATOM      3  O   UNL     1      -4.586 -10.035  12.481  0.00  0.00    -0.274 OA
ATOM      8  N   UNL     1      -2.808 -11.130  13.511  0.00  0.00    -0.302 N 
ATOM     27  C   UNL     1      -3.654 -10.834  12.455  0.00  0.00    +0.236 C 
ATOM     36  H   UNL     1      -2.026 -11.760  13.357  0.00  0.00    +0.150 HD
BRANCH   8  18
ATOM     18  C   UNL     1      -2.924 -10.514  14.813  0.00  0.00    +0.159 C 
BRANCH  18  30
ATOM      4  O   UNL     1      -0.803  -9.329  14.847  0.00  0.00    -0.274 OA
ATOM     10  N   UNL     1      -1.143 -11.008  16.376  0.00  0.00    -0.328 N 
ATOM     30  C   UNL     1      -1.527 -10.196  15.330  0.00  0.00    +0.231 C 
ATOM     38  H   UNL     1      -1.744 -11.736  16.753  0.00  0.00    +0.145 HD
ATOM     39  H   UNL     1      -0.231 -10.906  16.806  0.00  0.00    +0.145 HD
ENDBRANCH  18  30
BRANCH  18  14
ATOM     14  C   UNL     1      -3.737 -11.372  15.788  0.00  0.00    +0.035 C 
BRANCH  14  11
ATOM     11  C   UNL     1      -4.640 -10.571  16.724  0.00  0.00    -0.009 C 
ATOM     12  C   UNL     1      -4.844 -11.316  18.050  0.00  0.00    +0.003 C 
ATOM     13  C   UNL     1      -5.988 -10.272  16.053  0.00  0.00    +0.003 C 
ATOM     15  C   UNL     1      -5.787 -10.559  18.983  0.00  0.00    +0.000 C 
ATOM     16  C   UNL     1      -6.929  -9.518  16.989  0.00  0.00    +0.000 C 
ATOM     17  C   UNL     1      -7.121 -10.257  18.310  0.00  0.00    +0.000 C 
ENDBRANCH  14  11
ENDBRANCH  18  14
ENDBRANCH   8  18
ENDBRANCH  19  27
TORSDOF 7
ENDMDL
MODEL 2
REMARK VINA RESULT:      -6.4      4.175      7.498
REMARK  Name = 11912132
REMARK  7 active torsions:
REMARK  status: ('A' for Active; 'I' for Inactive)
REMARK    1  A    between atoms: N_8  and  C_18
REMARK    2  A    between atoms: C_11  and  C_14
REMARK    3  A    between atoms: C_14  and  C_18
REMARK    4  A    between atoms: C_18  and  C_30
REMARK    5  A    between atoms: C_19  and  C_27
REMARK    6  A    between atoms: C_20  and  C_24
REMARK    7  A    between atoms: C_31  and  C_32
REMARK                            x       y       z     vdW  Elec       q    Type
REMARK                         _______ _______ _______ _____ _____    ______ ____
ROOT
ATOM      2  O   UNL     1      -6.258 -12.742  16.396  0.00  0.00    -0.275 OA
ATOM      5  O   UNL     1     -10.947  -9.121  12.698  0.00  0.00    -0.269 OA
ATOM      6  N   UNL     1      -7.802 -11.018  16.183  0.00  0.00    -0.298 N 
ATOM      7  N   UNL     1      -9.896  -9.629  14.700  0.00  0.00    -0.283 N 
ATOM     19  C   UNL     1      -9.063 -10.652  14.065  0.00  0.00    +0.179 C 
ATOM     21  C   UNL     1      -8.493 -11.659  15.061  0.00  0.00    +0.139 C 
ATOM     22  C   UNL     1      -8.321  -9.722  16.630  0.00  0.00    +0.127 C 
ATOM     23  C   UNL     1      -9.744  -9.455  16.152  0.00  0.00    +0.128 C 
ATOM     24  C   UNL     1      -6.703 -11.653  16.763  0.00  0.00    +0.219 C 
ATOM     31  C   UNL     1     -10.853  -8.947  13.914  0.00  0.00    +0.254 C 
ENDROOT
BRANCH  24  20
ATOM      9  N   UNL     1      -3.345 -11.971  18.366  0.00  0.00    -0.316 NA
ATOM     20  C   UNL     1      -6.051 -10.934  17.911  0.00  0.00    +0.078 C 
ATOM     25  C   UNL     1      -5.722 -11.906  19.047  0.00  0.00    +0.028 C 
ATOM     26  C   UNL     1      -4.797 -10.191  17.447  0.00  0.00    +0.028 C 
ATOM     28  C   UNL     1      -4.508 -12.780  18.729  0.00  0.00    +0.081 C 
ATOM     29  C   UNL     1      -3.622 -11.138  17.196  0.00  0.00    +0.081 C 
ATOM     37  H   UNL     1      -2.557 -12.585  18.163  0.00  0.00    +0.122 HD
ENDBRANCH  24  20
BRANCH  31  32
ATOM      1  S   UNL     1     -13.273  -8.539  15.126  0.00  0.00    -0.092 S 
ATOM     32  C   UNL     1     -11.734  -8.005  14.595  0.00  0.00    +0.074 A 
ATOM     33  C   UNL     1     -11.515  -6.679  14.898  0.00  0.00    +0.021 A 
ATOM     34  C   UNL     1     -12.625  -6.094  15.575  0.00  0.00    +0.008 A 
ATOM     35  C   UNL     1     -13.650  -6.994  15.763  0.00  0.00    +0.046 A 
ENDBRANCH  31  32
BRANCH  19  27
ATOM      3  O   UNL     1      -6.980  -9.488  13.922  0.00  0.00    -0.274 OA
ATOM      8  N   UNL     1      -8.190  -9.875  11.971  0.00  0.00    -0.302 N 
ATOM     27  C   UNL     1      -7.955  -9.949  13.334  0.00  0.00    +0.236 C 
ATOM     36  H   UNL     1      -9.066 -10.234  11.600  0.00  0.00    +0.150 HD
BRANCH   8  18
ATOM     18  C   UNL     1      -7.287  -9.228  11.047  0.00  0.00    +0.159 C 
BRANCH  18  30
ATOM      4  O   UNL     1      -7.606  -8.037   8.953  0.00  0.00    -0.274 OA
ATOM     10  N   UNL     1      -9.434  -9.008   9.950  0.00  0.00    -0.328 N 
ATOM     30  C   UNL     1      -8.092  -8.698   9.868  0.00  0.00    +0.231 C 
ATOM     38  H   UNL     1      -9.826  -9.538  10.723  0.00  0.00    +0.145 HD
ATOM     39  H   UNL     1     -10.082  -8.706   9.232  0.00  0.00    +0.145 HD
ENDBRANCH  18  30
BRANCH  18  14
ATOM     14  C   UNL     1      -6.141 -10.149  10.618  0.00  0.00    +0.035 C 
BRANCH  14  11
ATOM     11  C   UNL     1      -4.783  -9.778  11.210  0.00  0.00    -0.009 C 
ATOM     12  C   UNL     1      -3.741  -9.584  10.101  0.00  0.00    +0.003 C 
ATOM     13  C   UNL     1      -4.321 -10.842  12.215  0.00  0.00    +0.003 C 
ATOM     15  C   UNL     1      -2.362  -9.264  10.672  0.00  0.00    +0.000 C 
ATOM     16  C   UNL     1      -2.940 -10.520  12.782  0.00  0.00    +0.000 C 
ATOM     17  C   UNL     1      -1.909 -10.319  11.675  0.00  0.00    +0.000 C 
ENDBRANCH  14  11
ENDBRANCH  18  14
ENDBRANCH   8  18
ENDBRANCH  19  27
TORSDOF 7
ENDMDL
MODEL 3
REMARK VINA RESULT:      -6.3      1.459      1.828
REMARK  Name = 11912132
REMARK  7 active torsions:
REMARK  status: ('A' for Active; 'I' for Inactive)
REMARK    1  A    between atoms: N_8  and  C_18
REMARK    2  A    between atoms: C_11  and  C_14
REMARK    3  A    between atoms: C_14  and  C_18
REMARK    4  A    between atoms: C_18  and  C_30
REMARK    5  A    between atoms: C_19  and  C_27
REMARK    6  A    between atoms: C_20  and  C_24
REMARK    7  A    between atoms: C_31  and  C_32
REMARK                            x       y       z     vdW  Elec       q    Type
REMARK                         _______ _______ _______ _____ _____    ______ ____
ROOT
ATOM      2  O   UNL     1      -2.224 -14.459  12.170  0.00  0.00    -0.275 OA
ATOM      5  O   UNL     1      -5.102  -8.239  10.826  0.00  0.00    -0.269 OA
ATOM      6  N   UNL     1      -3.974 -13.142  11.392  0.00  0.00    -0.298 N 
ATOM      7  N   UNL     1      -5.094 -10.549  10.656  0.00  0.00    -0.283 N 
ATOM     19  C   UNL     1      -3.837 -10.653  11.402  0.00  0.00    +0.179 C 
ATOM     21  C   UNL     1      -3.114 -11.977  11.169  0.00  0.00    +0.139 C 
ATOM     22  C   UNL     1      -5.396 -12.989  11.069  0.00  0.00    +0.127 C 
ATOM     23  C   UNL     1      -5.673 -11.804  10.152  0.00  0.00    +0.128 C 
ATOM     24  C   UNL     1      -3.417 -14.319  11.894  0.00  0.00    +0.219 C 
ATOM     31  C   UNL     1      -5.617  -9.266  10.382  0.00  0.00    +0.254 C 
ENDROOT
BRANCH  24  20
ATOM      9  N   UNL     1      -3.301 -17.339  14.087  0.00  0.00    -0.316 NA
ATOM     20  C   UNL     1      -4.364 -15.470  12.093  0.00  0.00    +0.078 C 
ATOM     25  C   UNL     1      -3.701 -16.794  11.707  0.00  0.00    +0.028 C 
ATOM     26  C   UNL     1      -4.875 -15.512  13.534  0.00  0.00    +0.028 C 
ATOM     28  C   UNL     1      -2.695 -17.265  12.758  0.00  0.00    +0.081 C 
ATOM     29  C   UNL     1      -3.819 -16.038  14.508  0.00  0.00    +0.081 C 
ATOM     37  H   UNL     1      -2.604 -17.658  14.759  0.00  0.00    +0.122 HD
ENDBRANCH  24  20
BRANCH  31  32
ATOM      1  S   UNL     1      -8.353  -9.230  10.307  0.00  0.00    -0.092 S 
ATOM     32  C   UNL     1      -6.816  -9.191   9.553  0.00  0.00    +0.074 A 
ATOM     33  C   UNL     1      -6.914  -9.087   8.184  0.00  0.00    +0.021 A 
ATOM     34  C   UNL     1      -8.270  -9.039   7.747  0.00  0.00    +0.008 A 
ATOM     35  C   UNL     1      -9.156  -9.108   8.799  0.00  0.00    +0.046 A 
ENDBRANCH  31  32
BRANCH  19  27
ATOM      3  O   UNL     1      -5.248 -10.058  13.238  0.00  0.00    -0.274 OA
ATOM      8  N   UNL     1      -3.090 -10.819  13.674  0.00  0.00    -0.302 N 
ATOM     27  C   UNL     1      -4.157 -10.478  12.859  0.00  0.00    +0.236 C 
ATOM     36  H   UNL     1      -2.210 -11.094  13.248  0.00  0.00    +0.150 HD
BRANCH   8  18
ATOM     18  C   UNL     1      -3.133 -10.718  15.115  0.00  0.00    +0.159 C 
BRANCH  18  30
ATOM      4  O   UNL     1      -1.008  -9.542  15.044  0.00  0.00    -0.274 OA
ATOM     10  N   UNL     1      -1.393 -11.005  16.773  0.00  0.00    -0.328 N 
ATOM     30  C   UNL     1      -1.748 -10.338  15.619  0.00  0.00    +0.231 C 
ATOM     38  H   UNL     1      -2.006 -11.676  17.226  0.00  0.00    +0.145 HD
ATOM     39  H   UNL     1      -0.490 -10.849  17.207  0.00  0.00    +0.145 HD
ENDBRANCH  18  30
BRANCH  18  14
ATOM     14  C   UNL     1      -3.674 -11.994  15.769  0.00  0.00    +0.035 C 
BRANCH  14  11
ATOM     11  C   UNL     1      -4.862 -11.766  16.700  0.00  0.00    -0.009 C 
ATOM     12  C   UNL     1      -5.320 -10.303  16.647  0.00  0.00    +0.003 C 
ATOM     13  C   UNL     1      -4.513 -12.177  18.136  0.00  0.00    +0.003 C 
ATOM     15  C   UNL     1      -6.475 -10.037  17.610  0.00  0.00    +0.000 C 
ATOM     16  C   UNL     1      -5.669 -11.909  19.097  0.00  0.00    +0.000 C 
ATOM     17  C   UNL     1      -6.126 -10.454  19.034  0.00  0.00    +0.000 C 
ENDBRANCH  14  11
ENDBRANCH  18  14
ENDBRANCH   8  18
ENDBRANCH  19  27
TORSDOF 7
ENDMDL
MODEL 4
REMARK VINA RESULT:      -6.3     22.005     25.268
REMARK  Name = 11912132
REMARK  7 active torsions:
REMARK  status: ('A' for Active; 'I' for Inactive)
REMARK    1  A    between atoms: N_8  and  C_18
REMARK    2  A    between atoms: C_11  and  C_14
REMARK    3  A    between atoms: C_14  and  C_18
REMARK    4  A    between atoms: C_18  and  C_30
REMARK    5  A    between atoms: C_19  and  C_27
REMARK    6  A    between atoms: C_20  and  C_24
REMARK    7  A    between atoms: C_31  and  C_32
REMARK                            x       y       z     vdW  Elec       q    Type
REMARK                         _______ _______ _______ _____ _____    ______ ____
ROOT
ATOM      2  O   UNL     1     -12.747  10.250  19.214  0.00  0.00    -0.275 OA
ATOM      5  O   UNL     1     -17.259   7.519  23.791  0.00  0.00    -0.269 OA
ATOM      6  N   UNL     1     -13.526   8.485  20.511  0.00  0.00    -0.298 N 
ATOM      7  N   UNL     1     -15.523   7.294  22.274  0.00  0.00    -0.283 N 
ATOM     19  C   UNL     1     -15.535   8.726  21.967  0.00  0.00    +0.179 C 
ATOM     21  C   UNL     1     -14.871   9.054  20.632  0.00  0.00    +0.139 C 
ATOM     22  C   UNL     1     -13.284   7.205  21.182  0.00  0.00    +0.127 C 
ATOM     23  C   UNL     1     -14.570   6.461  21.525  0.00  0.00    +0.128 C 
ATOM     24  C   UNL     1     -12.554   9.173  19.782  0.00  0.00    +0.219 C 
ATOM     31  C   UNL     1     -16.478   6.786  23.183  0.00  0.00    +0.254 C 
ENDROOT
BRANCH  24  20
ATOM      9  N   UNL     1      -9.977   9.024  17.084  0.00  0.00    -0.316 NA
ATOM     20  C   UNL     1     -11.201   8.522  19.701  0.00  0.00    +0.078 C 
ATOM     25  C   UNL     1     -11.168   7.467  18.593  0.00  0.00    +0.028 C 
ATOM     26  C   UNL     1     -10.105   9.569  19.493  0.00  0.00    +0.028 C 
ATOM     28  C   UNL     1     -11.100   8.094  17.199  0.00  0.00    +0.081 C 
ATOM     29  C   UNL     1     -10.082  10.106  18.061  0.00  0.00    +0.081 C 
ATOM     37  H   UNL     1      -9.962   9.419  16.144  0.00  0.00    +0.122 HD
ENDBRANCH  24  20
BRANCH  31  32
ATOM      1  S   UNL     1     -17.590   4.388  22.471  0.00  0.00    -0.092 S 
ATOM     32  C   UNL     1     -16.506   5.342  23.393  0.00  0.00    +0.074 A 
ATOM     33  C   UNL     1     -15.757   4.581  24.261  0.00  0.00    +0.021 A 
ATOM     34  C   UNL     1     -16.077   3.194  24.170  0.00  0.00    +0.008 A 
ATOM     35  C   UNL     1     -17.058   2.950  23.235  0.00  0.00    +0.046 A 
ENDBRANCH  31  32
BRANCH  19  27
ATOM      3  O   UNL     1     -14.684   8.918  24.193  0.00  0.00    -0.274 OA
ATOM      8  N   UNL     1     -14.432  10.713  22.731  0.00  0.00    -0.302 N 
ATOM     27  C   UNL     1     -14.837   9.438  23.091  0.00  0.00    +0.236 C 
ATOM     36  H   UNL     1     -14.670  11.066  21.809  0.00  0.00    +0.150 HD
BRANCH   8  18
ATOM     18  C   UNL     1     -13.758  11.613  23.639  0.00  0.00    +0.159 C 
BRANCH  18  30
ATOM      4  O   UNL     1     -14.421  13.311  22.032  0.00  0.00    -0.274 OA
ATOM     10  N   UNL     1     -13.119  13.941  23.816  0.00  0.00    -0.328 N 
ATOM     30  C   UNL     1     -13.825  13.023  23.068  0.00  0.00    +0.231 C 
ATOM     38  H   UNL     1     -12.614  13.686  24.660  0.00  0.00    +0.145 HD
ATOM     39  H   UNL     1     -13.076  14.915  23.539  0.00  0.00    +0.145 HD
ENDBRANCH  18  30
BRANCH  18  14
ATOM     14  C   UNL     1     -12.325  11.163  23.943  0.00  0.00    +0.035 C 
BRANCH  14  11
ATOM     11  C   UNL     1     -12.139  10.562  25.334  0.00  0.00    -0.009 C 
ATOM     12  C   UNL     1     -13.093  11.218  26.341  0.00  0.00    +0.003 C 
ATOM     13  C   UNL     1     -10.681  10.698  25.794  0.00  0.00    +0.003 C 
ATOM     15  C   UNL     1     -12.889  10.671  27.751  0.00  0.00    +0.000 C 
ATOM     16  C   UNL     1     -10.481  10.151  27.206  0.00  0.00    +0.000 C 
ATOM     17  C   UNL     1     -11.438  10.801  28.201  0.00  0.00    +0.000 C 
ENDBRANCH  14  11
ENDBRANCH  18  14
ENDBRANCH   8  18
ENDBRANCH  19  27
TORSDOF 7
ENDMDL
MODEL 5
REMARK VINA RESULT:      -6.2      2.428      3.469
REMARK  Name = 11912132
REMARK  7 active torsions:
REMARK  status: ('A' for Active; 'I' for Inactive)
REMARK    1  A    between atoms: N_8  and  C_18
REMARK    2  A    between atoms: C_11  and  C_14
REMARK    3  A    between atoms: C_14  and  C_18
REMARK    4  A    between atoms: C_18  and  C_30
REMARK    5  A    between atoms: C_19  and  C_27
REMARK    6  A    between atoms: C_20  and  C_24
REMARK    7  A    between atoms: C_31  and  C_32
REMARK                            x       y       z     vdW  Elec       q    Type
REMARK                         _______ _______ _______ _____ _____    ______ ____
ROOT
ATOM      2  O   UNL     1      -1.349 -13.258  13.959  0.00  0.00    -0.275 OA
ATOM      5  O   UNL     1      -5.950  -8.898  11.026  0.00  0.00    -0.269 OA
ATOM      6  N   UNL     1      -2.809 -12.677  12.246  0.00  0.00    -0.298 N 
ATOM      7  N   UNL     1      -4.582 -10.766  10.935  0.00  0.00    -0.283 N 
ATOM     19  C   UNL     1      -4.096 -10.544  12.298  0.00  0.00    +0.179 C 
ATOM     21  C   UNL     1      -2.774 -11.252  12.583  0.00  0.00    +0.139 C 
ATOM     22  C   UNL     1      -3.649 -13.072  11.112  0.00  0.00    +0.127 C 
ATOM     23  C   UNL     1      -4.004 -11.902  10.200  0.00  0.00    +0.128 C 
ATOM     24  C   UNL     1      -2.059 -13.579  13.004  0.00  0.00    +0.219 C 
ATOM     31  C   UNL     1      -5.488  -9.837  10.376  0.00  0.00    +0.254 C 
ENDROOT
BRANCH  24  20
ATOM      9  N   UNL     1      -1.385 -16.768  14.824  0.00  0.00    -0.316 NA
ATOM     20  C   UNL     1      -2.145 -15.022  12.594  0.00  0.00    +0.078 C 
ATOM     25  C   UNL     1      -0.773 -15.696  12.681  0.00  0.00    +0.028 C 
ATOM     26  C   UNL     1      -3.176 -15.769  13.441  0.00  0.00    +0.028 C 
ATOM     28  C   UNL     1      -0.363 -15.990  14.124  0.00  0.00    +0.081 C 
ATOM     29  C   UNL     1      -2.664 -16.060  14.853  0.00  0.00    +0.081 C 
ATOM     37  H   UNL     1      -1.077 -16.946  15.780  0.00  0.00    +0.122 HD
ENDBRANCH  24  20
BRANCH  31  32
ATOM      1  S   UNL     1      -7.362 -10.807   8.633  0.00  0.00    -0.092 S 
ATOM     32  C   UNL     1      -5.876 -10.030   8.982  0.00  0.00    +0.074 A 
ATOM     33  C   UNL     1      -5.201  -9.667   7.838  0.00  0.00    +0.021 A 
ATOM     34  C   UNL     1      -5.913 -10.032   6.659  0.00  0.00    +0.008 A 
ATOM     35  C   UNL     1      -7.105 -10.659   6.946  0.00  0.00    +0.046 A 
ENDBRANCH  31  32
BRANCH  19  27
ATOM      3  O   UNL     1      -5.380 -12.214  13.428  0.00  0.00    -0.274 OA
ATOM      8  N   UNL     1      -5.846  -9.969  13.833  0.00  0.00    -0.302 N 
ATOM     27  C   UNL     1      -5.162 -11.020  13.244  0.00  0.00    +0.236 C 
ATOM     36  H   UNL     1      -5.624  -9.017  13.557  0.00  0.00    +0.150 HD
BRANCH   8  18
ATOM     18  C   UNL     1      -6.934 -10.159  14.765  0.00  0.00    +0.159 C 
BRANCH  18  30
ATOM      4  O   UNL     1      -8.543  -9.689  13.006  0.00  0.00    -0.274 OA
ATOM     10  N   UNL     1      -8.892  -8.771  15.082  0.00  0.00    -0.328 N 
ATOM     30  C   UNL     1      -8.195  -9.542  14.175  0.00  0.00    +0.231 C 
ATOM     38  H   UNL     1      -8.583  -8.642  16.041  0.00  0.00    +0.145 HD
ATOM     39  H   UNL     1      -9.747  -8.297  14.813  0.00  0.00    +0.145 HD
ENDBRANCH  18  30
BRANCH  18  14
ATOM     14  C   UNL     1      -6.603  -9.616  16.159  0.00  0.00    +0.035 C 
BRANCH  14  11
ATOM     11  C   UNL     1      -6.182 -10.685  17.164  0.00  0.00    -0.009 C 
ATOM     12  C   UNL     1      -6.734 -10.366  18.560  0.00  0.00    +0.003 C 
ATOM     13  C   UNL     1      -4.654 -10.824  17.200  0.00  0.00    +0.003 C 
ATOM     15  C   UNL     1      -6.282 -11.393  19.595  0.00  0.00    +0.000 C 
ATOM     16  C   UNL     1      -4.205 -11.851  18.237  0.00  0.00    +0.000 C 
ATOM     17  C   UNL     1      -4.764 -11.534  19.621  0.00  0.00    +0.000 C 
ENDBRANCH  14  11
ENDBRANCH  18  14
ENDBRANCH   8  18
ENDBRANCH  19  27
TORSDOF 7
ENDMDL
MODEL 6
REMARK VINA RESULT:      -6.2      4.143      7.472
REMARK  Name = 11912132
REMARK  7 active torsions:
REMARK  status: ('A' for Active; 'I' for Inactive)
REMARK    1  A    between atoms: N_8  and  C_18
REMARK    2  A    between atoms: C_11  and  C_14
REMARK    3  A    between atoms: C_14  and  C_18
REMARK    4  A    between atoms: C_18  and  C_30
REMARK    5  A    between atoms: C_19  and  C_27
REMARK    6  A    between atoms: C_20  and  C_24
REMARK    7  A    between atoms: C_31  and  C_32
REMARK                            x       y       z     vdW  Elec       q    Type
REMARK                         _______ _______ _______ _____ _____    ______ ____
ROOT
ATOM      2  O   UNL     1      -6.596 -12.776  17.134  0.00  0.00    -0.275 OA
ATOM      5  O   UNL     1     -11.441  -9.705  13.149  0.00  0.00    -0.269 OA
ATOM      6  N   UNL     1      -8.003 -10.994  16.635  0.00  0.00    -0.298 N 
ATOM      7  N   UNL     1     -10.162  -9.797  15.079  0.00  0.00    -0.283 N 
ATOM     19  C   UNL     1      -9.519 -11.044  14.657  0.00  0.00    +0.179 C 
ATOM     21  C   UNL     1      -8.899 -11.817  15.819  0.00  0.00    +0.139 C 
ATOM     22  C   UNL     1      -8.340  -9.573  16.766  0.00  0.00    +0.127 C 
ATOM     23  C   UNL     1      -9.789  -9.271  16.401  0.00  0.00    +0.128 C 
ATOM     24  C   UNL     1      -6.890 -11.583  17.237  0.00  0.00    +0.219 C 
ATOM     31  C   UNL     1     -11.159  -9.233  14.252  0.00  0.00    +0.254 C 
ENDROOT
BRANCH  24  20
ATOM      9  N   UNL     1      -3.324 -11.796  18.326  0.00  0.00    -0.316 NA
ATOM     20  C   UNL     1      -6.021 -10.674  18.061  0.00  0.00    +0.078 C 
ATOM     25  C   UNL     1      -5.545 -11.380  19.333  0.00  0.00    +0.028 C 
ATOM     26  C   UNL     1      -4.834 -10.164  17.241  0.00  0.00    +0.028 C 
ATOM     28  C   UNL     1      -4.442 -12.401  19.050  0.00  0.00    +0.081 C 
ATOM     29  C   UNL     1      -3.761 -11.237  17.047  0.00  0.00    +0.081 C 
ATOM     37  H   UNL     1      -2.610 -12.504  18.157  0.00  0.00    +0.122 HD
ENDBRANCH  24  20
BRANCH  31  32
ATOM      1  S   UNL     1     -13.277  -8.241  15.675  0.00  0.00    -0.092 S 
ATOM     32  C   UNL     1     -11.851  -8.047  14.745  0.00  0.00    +0.074 A 
ATOM     33  C   UNL     1     -11.522  -6.721  14.575  0.00  0.00    +0.021 A 
ATOM     34  C   UNL     1     -12.452  -5.852  15.215  0.00  0.00    +0.008 A 
ATOM     35  C   UNL     1     -13.457  -6.547  15.851  0.00  0.00    +0.046 A 
ENDBRANCH  31  32
BRANCH  19  27
ATOM      3  O   UNL     1      -8.336  -9.549  13.214  0.00  0.00    -0.274 OA
ATOM      8  N   UNL     1      -7.730 -11.797  13.250  0.00  0.00    -0.302 N 
ATOM     27  C   UNL     1      -8.471 -10.693  13.640  0.00  0.00    +0.236 C 
ATOM     36  H   UNL     1      -7.972 -12.712  13.621  0.00  0.00    +0.150 HD
BRANCH   8  18
ATOM     18  C   UNL     1      -6.674 -11.733  12.265  0.00  0.00    +0.159 C 
BRANCH  18  30
ATOM      4  O   UNL     1      -7.014 -14.125  12.007  0.00  0.00    -0.274 OA
ATOM     10  N   UNL     1      -6.011 -12.970  10.293  0.00  0.00    -0.328 N 
ATOM     30  C   UNL     1      -6.608 -13.066  11.533  0.00  0.00    +0.231 C 
ATOM     38  H   UNL     1      -5.661 -12.092   9.922  0.00  0.00    +0.145 HD
ATOM     39  H   UNL     1      -5.897 -13.789   9.707  0.00  0.00    +0.145 HD
ENDBRANCH  18  30
BRANCH  18  14
ATOM     14  C   UNL     1      -5.332 -11.325  12.881  0.00  0.00    +0.035 C 
BRANCH  14  11
ATOM     11  C   UNL     1      -4.633 -10.178  12.156  0.00  0.00    -0.009 C 
ATOM     12  C   UNL     1      -5.569  -9.538  11.123  0.00  0.00    +0.003 C 
ATOM     13  C   UNL     1      -3.338 -10.665  11.491  0.00  0.00    +0.003 C 
ATOM     15  C   UNL     1      -4.875  -8.421  10.346  0.00  0.00    +0.000 C 
ATOM     16  C   UNL     1      -2.647  -9.547  10.714  0.00  0.00    +0.000 C 
ATOM     17  C   UNL     1      -3.585  -8.908   9.694  0.00  0.00    +0.000 C 
ENDBRANCH  14  11
ENDBRANCH  18  14
ENDBRANCH   8  18
ENDBRANCH  19  27
TORSDOF 7
ENDMDL
MODEL 7
REMARK VINA RESULT:      -6.2     22.569     26.856
REMARK  Name = 11912132
REMARK  7 active torsions:
REMARK  status: ('A' for Active; 'I' for Inactive)
REMARK    1  A    between atoms: N_8  and  C_18
REMARK    2  A    between atoms: C_11  and  C_14
REMARK    3  A    between atoms: C_14  and  C_18
REMARK    4  A    between atoms: C_18  and  C_30
REMARK    5  A    between atoms: C_19  and  C_27
REMARK    6  A    between atoms: C_20  and  C_24
REMARK    7  A    between atoms: C_31  and  C_32
REMARK                            x       y       z     vdW  Elec       q    Type
REMARK                         _______ _______ _______ _____ _____    ______ ____
ROOT
ATOM      2  O   UNL     1       3.525  -9.641  35.637  0.00  0.00    -0.275 OA
ATOM      5  O   UNL     1       8.575  -6.049  38.856  0.00  0.00    -0.269 OA
ATOM      6  N   UNL     1       5.333  -9.514  37.092  0.00  0.00    -0.298 N 
ATOM      7  N   UNL     1       7.317  -7.974  38.578  0.00  0.00    -0.283 N 
ATOM     19  C   UNL     1       6.516  -7.362  37.515  0.00  0.00    +0.179 C 
ATOM     21  C   UNL     1       5.183  -8.070  37.290  0.00  0.00    +0.139 C 
ATOM     22  C   UNL     1       6.428 -10.173  37.810  0.00  0.00    +0.127 C 
ATOM     23  C   UNL     1       6.959  -9.345  38.974  0.00  0.00    +0.128 C 
ATOM     24  C   UNL     1       4.449 -10.185  36.245  0.00  0.00    +0.219 C 
ATOM     31  C   UNL     1       8.305  -7.194  39.220  0.00  0.00    +0.254 C 
ENDROOT
BRANCH  24  20
ATOM      9  N   UNL     1       2.143 -13.011  35.445  0.00  0.00    -0.316 NA
ATOM     20  C   UNL     1       4.666 -11.665  36.096  0.00  0.00    +0.078 C 
ATOM     25  C   UNL     1       3.856 -12.442  37.137  0.00  0.00    +0.028 C 
ATOM     26  C   UNL     1       4.323 -12.127  34.679  0.00  0.00    +0.028 C 
ATOM     28  C   UNL     1       2.367 -12.490  36.793  0.00  0.00    +0.081 C 
ATOM     29  C   UNL     1       2.814 -12.187  34.440  0.00  0.00    +0.081 C 
ATOM     37  H   UNL     1       1.143 -13.030  35.252  0.00  0.00    +0.122 HD
ENDBRANCH  24  20
BRANCH  31  32
ATOM      1  S   UNL     1      10.481  -8.638  40.041  0.00  0.00    -0.092 S 
ATOM     32  C   UNL     1       9.017  -7.800  40.340  0.00  0.00    +0.074 A 
ATOM     33  C   UNL     1       8.683  -7.804  41.676  0.00  0.00    +0.021 A 
ATOM     34  C   UNL     1       9.640  -8.506  42.465  0.00  0.00    +0.008 A 
ATOM     35  C   UNL     1      10.670  -9.010  41.702  0.00  0.00    +0.046 A 
ENDBRANCH  31  32
BRANCH  19  27
ATOM      3  O   UNL     1       8.380  -8.026  36.173  0.00  0.00    -0.274 OA
ATOM      8  N   UNL     1       6.797  -6.578  35.267  0.00  0.00    -0.302 N 
ATOM     27  C   UNL     1       7.340  -7.379  36.259  0.00  0.00    +0.236 C 
ATOM     36  H   UNL     1       5.964  -6.034  35.471  0.00  0.00    +0.150 HD
BRANCH   8  18
ATOM     18  C   UNL     1       7.409  -6.405  33.969  0.00  0.00    +0.159 C 
BRANCH  18  30
ATOM      4  O   UNL     1       8.871  -4.472  33.791  0.00  0.00    -0.274 OA
ATOM     10  N   UNL     1       6.604  -4.150  33.612  0.00  0.00    -0.328 N 
ATOM     30  C   UNL     1       7.730  -4.929  33.775  0.00  0.00    +0.231 C 
ATOM     38  H   UNL     1       5.665  -4.538  33.621  0.00  0.00    +0.145 HD
ATOM     39  H   UNL     1       6.680  -3.147  33.482  0.00  0.00    +0.145 HD
ENDBRANCH  18  30
BRANCH  18  14
ATOM     14  C   UNL     1       6.545  -6.978  32.840  0.00  0.00    +0.035 C 
BRANCH  14  11
ATOM     11  C   UNL     1       7.054  -8.302  32.274  0.00  0.00    -0.009 C 
ATOM     12  C   UNL     1       6.531  -8.518  30.848  0.00  0.00    +0.003 C 
ATOM     13  C   UNL     1       6.653  -9.470  33.185  0.00  0.00    +0.003 C 
ATOM     15  C   UNL     1       6.982  -9.861  30.279  0.00  0.00    +0.000 C 
ATOM     16  C   UNL     1       7.105 -10.812  32.612  0.00  0.00    +0.000 C 
ATOM     17  C   UNL     1       6.590 -11.019  31.191  0.00  0.00    +0.000 C 
ENDBRANCH  14  11
ENDBRANCH  18  14
ENDBRANCH   8  18
ENDBRANCH  19  27
TORSDOF 7
ENDMDL
MODEL 8
REMARK VINA RESULT:      -6.1     25.114     27.036
REMARK  Name = 11912132
REMARK  7 active torsions:
REMARK  status: ('A' for Active; 'I' for Inactive)
REMARK    1  A    between atoms: N_8  and  C_18
REMARK    2  A    between atoms: C_11  and  C_14
REMARK    3  A    between atoms: C_14  and  C_18
REMARK    4  A    between atoms: C_18  and  C_30
REMARK    5  A    between atoms: C_19  and  C_27
REMARK    6  A    between atoms: C_20  and  C_24
REMARK    7  A    between atoms: C_31  and  C_32
REMARK                            x       y       z     vdW  Elec       q    Type
REMARK                         _______ _______ _______ _____ _____    ______ ____
ROOT
ATOM      2  O   UNL     1       8.511   7.636   3.987  0.00  0.00    -0.275 OA
ATOM      5  O   UNL     1      13.754   3.823   1.389  0.00  0.00    -0.269 OA
ATOM      6  N   UNL     1       9.723   6.778   2.199  0.00  0.00    -0.298 N 
ATOM      7  N   UNL     1      11.796   5.032   1.117  0.00  0.00    -0.283 N 
ATOM     19  C   UNL     1      11.701   5.303   2.553  0.00  0.00    +0.179 C 
ATOM     21  C   UNL     1      10.291   5.687   2.994  0.00  0.00    +0.139 C 
ATOM     22  C   UNL     1      10.121   6.848   0.789  0.00  0.00    +0.127 C 
ATOM     23  C   UNL     1      10.705   5.539   0.271  0.00  0.00    +0.128 C 
ATOM     24  C   UNL     1       8.852   7.686   2.803  0.00  0.00    +0.219 C 
ATOM     31  C   UNL     1      12.858   4.228   0.646  0.00  0.00    +0.254 C 
ENDROOT
BRANCH  24  20
ATOM      9  N   UNL     1       7.823  11.211   3.477  0.00  0.00    -0.316 NA
ATOM     20  C   UNL     1       8.310   8.775   1.919  0.00  0.00    +0.078 C 
ATOM     25  C   UNL     1       6.909   9.196   2.371  0.00  0.00    +0.028 C 
ATOM     26  C   UNL     1       9.259   9.974   1.888  0.00  0.00    +0.028 C 
ATOM     28  C   UNL     1       6.943  10.054   3.636  0.00  0.00    +0.081 C 
ATOM     29  C   UNL     1       9.193  10.798   3.174  0.00  0.00    +0.081 C 
ATOM     37  H   UNL     1       7.819  11.759   4.337  0.00  0.00    +0.122 HD
ENDBRANCH  24  20
BRANCH  31  32
ATOM      1  S   UNL     1      13.703   4.920  -1.864  0.00  0.00    -0.092 S 
ATOM     32  C   UNL     1      12.870   3.893  -0.774  0.00  0.00    +0.074 A 
ATOM     33  C   UNL     1      12.287   2.823  -1.415  0.00  0.00    +0.021 A 
ATOM     34  C   UNL     1      12.527   2.846  -2.820  0.00  0.00    +0.008 A 
ATOM     35  C   UNL     1      13.284   3.932  -3.199  0.00  0.00    +0.046 A 
ENDBRANCH  31  32
BRANCH  19  27
ATOM      3  O   UNL     1      13.428   6.869   2.026  0.00  0.00    -0.274 OA
ATOM      8  N   UNL     1      12.609   6.785   4.204  0.00  0.00    -0.302 N 
ATOM     27  C   UNL     1      12.671   6.404   2.874  0.00  0.00    +0.236 C 
ATOM     36  H   UNL     1      11.988   6.285   4.834  0.00  0.00    +0.150 HD
BRANCH   8  18
ATOM     18  C   UNL     1      13.455   7.810   4.772  0.00  0.00    +0.159 C 
BRANCH  18  30
ATOM      4  O   UNL     1      14.918   7.090   6.575  0.00  0.00    -0.274 OA
ATOM     10  N   UNL     1      15.547   6.647   4.411  0.00  0.00    -0.328 N 
ATOM     30  C   UNL     1      14.690   7.148   5.368  0.00  0.00    +0.231 C 
ATOM     38  H   UNL     1      15.357   6.719   3.416  0.00  0.00    +0.145 HD
ATOM     39  H   UNL     1      16.412   6.189   4.676  0.00  0.00    +0.145 HD
ENDBRANCH  18  30
BRANCH  18  14
ATOM     14  C   UNL     1      12.705   8.686   5.781  0.00  0.00    +0.035 C 
BRANCH  14  11
ATOM     11  C   UNL     1      11.276   8.230   6.066  0.00  0.00    -0.009 C 
ATOM     12  C   UNL     1      10.393   9.423   6.453  0.00  0.00    +0.003 C 
ATOM     13  C   UNL     1      11.258   7.158   7.165  0.00  0.00    +0.003 C 
ATOM     15  C   UNL     1       8.971   8.986   6.795  0.00  0.00    +0.000 C 
ATOM     16  C   UNL     1       9.833   6.724   7.505  0.00  0.00    +0.000 C 
ATOM     17  C   UNL     1       8.957   7.915   7.881  0.00  0.00    +0.000 C 
ENDBRANCH  14  11
ENDBRANCH  18  14
ENDBRANCH   8  18
ENDBRANCH  19  27
TORSDOF 7
ENDMDL
MODEL 9
REMARK VINA RESULT:      -6.0     20.849     24.068
REMARK  Name = 11912132
REMARK  7 active torsions:
REMARK  status: ('A' for Active; 'I' for Inactive)
REMARK    1  A    between atoms: N_8  and  C_18
REMARK    2  A    between atoms: C_11  and  C_14
REMARK    3  A    between atoms: C_14  and  C_18
REMARK    4  A    between atoms: C_18  and  C_30
REMARK    5  A    between atoms: C_19  and  C_27
REMARK    6  A    between atoms: C_20  and  C_24
REMARK    7  A    between atoms: C_31  and  C_32
REMARK                            x       y       z     vdW  Elec       q    Type
REMARK                         _______ _______ _______ _____ _____    ______ ____
ROOT
ATOM      2  O   UNL     1       6.598 -13.243  32.362  0.00  0.00    -0.275 OA
ATOM      5  O   UNL     1       7.298  -7.567  36.372  0.00  0.00    -0.269 OA
ATOM      6  N   UNL     1       7.139 -11.001  32.655  0.00  0.00    -0.298 N 
ATOM      7  N   UNL     1       7.613  -8.686  34.368  0.00  0.00    -0.283 N 
ATOM     19  C   UNL     1       6.985  -9.904  34.887  0.00  0.00    +0.179 C 
ATOM     21  C   UNL     1       7.362 -11.153  34.095  0.00  0.00    +0.139 C 
ATOM     22  C   UNL     1       7.330  -9.661  32.091  0.00  0.00    +0.127 C 
ATOM     23  C   UNL     1       8.144  -8.745  32.998  0.00  0.00    +0.128 C 
ATOM     24  C   UNL     1       6.762 -12.112  31.899  0.00  0.00    +0.219 C 
ATOM     31  C   UNL     1       7.760  -7.577  35.230  0.00  0.00    +0.254 C 
ENDROOT
BRANCH  24  20
ATOM      9  N   UNL     1       7.645 -14.108  28.869  0.00  0.00    -0.316 NA
ATOM     20  C   UNL     1       6.556 -11.876  30.429  0.00  0.00    +0.078 C 
ATOM     25  C   UNL     1       7.897 -11.791  29.697  0.00  0.00    +0.028 C 
ATOM     26  C   UNL     1       5.668 -12.964  29.821  0.00  0.00    +0.028 C 
ATOM     28  C   UNL     1       8.550 -13.163  29.522  0.00  0.00    +0.081 C 
ATOM     29  C   UNL     1       6.416 -14.286  29.641  0.00  0.00    +0.081 C 
ATOM     37  H   UNL     1       8.113 -15.008  28.768  0.00  0.00    +0.122 HD
ENDBRANCH  24  20
BRANCH  31  32
ATOM      1  S   UNL     1      10.182  -6.352  34.873  0.00  0.00    -0.092 S 
ATOM     32  C   UNL     1       8.477  -6.415  34.715  0.00  0.00    +0.074 A 
ATOM     33  C   UNL     1       7.975  -5.298  34.085  0.00  0.00    +0.021 A 
ATOM     34  C   UNL     1       9.002  -4.377  33.728  0.00  0.00    +0.008 A 
ATOM     35  C   UNL     1      10.251  -4.826  34.097  0.00  0.00    +0.046 A 
ENDBRANCH  31  32
BRANCH  19  27
ATOM      3  O   UNL     1       4.976  -8.818  34.178  0.00  0.00    -0.274 OA
ATOM      8  N   UNL     1       4.832 -10.572  35.703  0.00  0.00    -0.302 N 
ATOM     27  C   UNL     1       5.498  -9.694  34.864  0.00  0.00    +0.236 C 
ATOM     36  H   UNL     1       5.372 -11.216  36.275  0.00  0.00    +0.150 HD
BRANCH   8  18
ATOM     18  C   UNL     1       3.398 -10.563  35.879  0.00  0.00    +0.159 C 
BRANCH  18  30
ATOM      4  O   UNL     1       3.626 -10.225  38.274  0.00  0.00    -0.274 OA
ATOM     10  N   UNL     1       2.071  -8.976  37.135  0.00  0.00    -0.328 N 
ATOM     30  C   UNL     1       3.074  -9.919  37.220  0.00  0.00    +0.231 C 
ATOM     38  H   UNL     1       1.609  -8.747  36.260  0.00  0.00    +0.145 HD
ATOM     39  H   UNL     1       1.754  -8.479  37.960  0.00  0.00    +0.145 HD
ENDBRANCH  18  30
BRANCH  18  14
ATOM     14  C   UNL     1       2.787 -11.961  35.729  0.00  0.00    +0.035 C 
BRANCH  14  11
ATOM     11  C   UNL     1       3.454 -12.824  34.660  0.00  0.00    -0.009 C 
ATOM     12  C   UNL     1       2.572 -12.914  33.408  0.00  0.00    +0.003 C 
ATOM     13  C   UNL     1       3.767 -14.222  35.210  0.00  0.00    +0.003 C 
ATOM     15  C   UNL     1       3.194 -13.816  32.344  0.00  0.00    +0.000 C 
ATOM     16  C   UNL     1       4.386 -15.123  34.143  0.00  0.00    +0.000 C 
ATOM     17  C   UNL     1       3.510 -15.202  32.896  0.00  0.00    +0.000 C 
ENDBRANCH  14  11
ENDBRANCH  18  14
ENDBRANCH   8  18
ENDBRANCH  19  27
TORSDOF 7
ENDMDL
MODEL 10
REMARK VINA RESULT:      -5.9      2.963      4.039
REMARK  Name = 11912132
REMARK  7 active torsions:
REMARK  status: ('A' for Active; 'I' for Inactive)
REMARK    1  A    between atoms: N_8  and  C_18
REMARK    2  A    between atoms: C_11  and  C_14
REMARK    3  A    between atoms: C_14  and  C_18
REMARK    4  A    between atoms: C_18  and  C_30
REMARK    5  A    between atoms: C_19  and  C_27
REMARK    6  A    between atoms: C_20  and  C_24
REMARK    7  A    between atoms: C_31  and  C_32
REMARK                            x       y       z     vdW  Elec       q    Type
REMARK                         _______ _______ _______ _____ _____    ______ ____
ROOT
ATOM      2  O   UNL     1      -8.557 -11.984  15.400  0.00  0.00    -0.275 OA
ATOM      5  O   UNL     1      -3.416 -12.189  10.677  0.00  0.00    -0.269 OA
ATOM      6  N   UNL     1      -7.688 -11.487  13.302  0.00  0.00    -0.298 N 
ATOM      7  N   UNL     1      -5.612 -11.741  11.268  0.00  0.00    -0.283 N 
ATOM     19  C   UNL     1      -5.388 -12.185  12.646  0.00  0.00    +0.179 C 
ATOM     21  C   UNL     1      -6.680 -12.547  13.373  0.00  0.00    +0.139 C 
ATOM     22  C   UNL     1      -7.708 -10.669  12.086  0.00  0.00    +0.127 C 
ATOM     23  C   UNL     1      -6.977 -11.322  10.919  0.00  0.00    +0.128 C 
ATOM     24  C   UNL     1      -8.565 -11.302  14.373  0.00  0.00    +0.219 C 
ATOM     31  C   UNL     1      -4.548 -11.834  10.343  0.00  0.00    +0.254 C 
ENDROOT
BRANCH  24  20
ATOM      9  N   UNL     1     -11.911 -10.704  15.918  0.00  0.00    -0.316 NA
ATOM     20  C   UNL     1      -9.572 -10.196  14.223  0.00  0.00    +0.078 C 
ATOM     25  C   UNL     1     -10.892 -10.733  13.664  0.00  0.00    +0.028 C 
ATOM     26  C   UNL     1      -9.794  -9.477  15.555  0.00  0.00    +0.028 C 
ATOM     28  C   UNL     1     -11.694 -11.504  14.713  0.00  0.00    +0.081 C 
ATOM     29  C   UNL     1     -10.643 -10.303  16.524  0.00  0.00    +0.081 C 
ATOM     37  H   UNL     1     -12.449 -11.248  16.591  0.00  0.00    +0.122 HD
ENDBRANCH  24  20
BRANCH  31  32
ATOM      1  S   UNL     1      -5.109 -12.727   7.817  0.00  0.00    -0.092 S 
ATOM     32  C   UNL     1      -4.829 -11.478   8.956  0.00  0.00    +0.074 A 
ATOM     33  C   UNL     1      -4.913 -10.229   8.384  0.00  0.00    +0.021 A 
ATOM     34  C   UNL     1      -5.209 -10.297   6.991  0.00  0.00    +0.008 A 
ATOM     35  C   UNL     1      -5.342 -11.595   6.552  0.00  0.00    +0.046 A 
ENDBRANCH  31  32
BRANCH  19  27
ATOM      3  O   UNL     1      -4.682  -9.922  12.959  0.00  0.00    -0.274 OA
ATOM      8  N   UNL     1      -4.003 -11.537  14.493  0.00  0.00    -0.302 N 
ATOM     27  C   UNL     1      -4.670 -11.080  13.368  0.00  0.00    +0.236 C 
ATOM     36  H   UNL     1      -4.008 -12.532  14.701  0.00  0.00    +0.150 HD
BRANCH   8  18
ATOM     18  C   UNL     1      -3.218 -10.678  15.350  0.00  0.00    +0.159 C 
BRANCH  18  30
ATOM      4  O   UNL     1      -1.490 -10.037  13.766  0.00  0.00    -0.274 OA
ATOM     10  N   UNL     1      -0.892 -11.303  15.588  0.00  0.00    -0.328 N 
ATOM     30  C   UNL     1      -1.797 -10.615  14.807  0.00  0.00    +0.231 C 
ATOM     38  H   UNL     1      -1.162 -11.793  16.435  0.00  0.00    +0.145 HD
ATOM     39  H   UNL     1       0.088 -11.346  15.331  0.00  0.00    +0.145 HD
ENDBRANCH  18  30
BRANCH  18  14
ATOM     14  C   UNL     1      -3.275 -11.115  16.817  0.00  0.00    +0.035 C 
BRANCH  14  11
ATOM     11  C   UNL     1      -4.688 -11.221  17.385  0.00  0.00    -0.009 C 
ATOM     12  C   UNL     1      -5.466  -9.920  17.149  0.00  0.00    +0.003 C 
ATOM     13  C   UNL     1      -4.647 -11.569  18.880  0.00  0.00    +0.003 C 
ATOM     15  C   UNL     1      -6.866  -9.982  17.756  0.00  0.00    +0.000 C 
ATOM     16  C   UNL     1      -6.049 -11.628  19.484  0.00  0.00    +0.000 C 
ATOM     17  C   UNL     1      -6.822 -10.336  19.238  0.00  0.00    +0.000 C 
ENDBRANCH  14  11
ENDBRANCH  18  14
ENDBRANCH   8  18
ENDBRANCH  19  27
TORSDOF 7
ENDMDL
