MODEL 1
REMARK VINA RESULT:      -8.4      0.000      0.000
REMARK  Name = 45360646
REMARK  8 active torsions:
REMARK  status: ('A' for Active; 'I' for Inactive)
REMARK    1  A    between atoms: O_3  and  C_32
REMARK    2  A    between atoms: O_3  and  C_33
REMARK    3  A    between atoms: N_6  and  C_9
REMARK    4  A    between atoms: N_6  and  C_17
REMARK    5  A    between atoms: C_10  and  C_14
REMARK    6  A    between atoms: C_14  and  C_16
REMARK    7  A    between atoms: C_16  and  C_18
REMARK    8  A    between atoms: C_17  and  C_19
REMARK                            x       y       z     vdW  Elec       q    Type
REMARK                         _______ _______ _______ _____ _____    ______ ____
ROOT
ATOM      1  O   UNL     1      11.855   7.547  17.776  0.00  0.00    -0.274 OA
ATOM      4  N   UNL     1      13.788   6.700  20.754  0.00  0.00    -0.286 NA
ATOM      5  N   UNL     1      14.078   7.794  18.186  0.00  0.00    -0.313 N 
ATOM      8  C   UNL     1      12.644   6.606  19.838  0.00  0.00    +0.145 C 
ATOM      9  C   UNL     1      12.065   7.590  21.981  0.00  0.00    +0.070 C 
ATOM     10  C   UNL     1      15.089   6.636  20.098  0.00  0.00    +0.075 C 
ATOM     11  C   UNL     1      11.461   7.166  20.642  0.00  0.00    +0.048 C 
ATOM     12  C   UNL     1      13.532   7.825  21.650  0.00  0.00    +0.104 C 
ATOM     13  C   UNL     1      15.228   7.739  19.060  0.00  0.00    +0.123 C 
ATOM     15  C   UNL     1      12.817   7.372  18.530  0.00  0.00    +0.230 C 
ATOM     34  H   UNL     1      14.184   8.285  17.303  0.00  0.00    +0.149 HD
ENDROOT
BRANCH   9   6
ATOM      6  N   UNL     1      11.408   8.750  22.562  0.00  0.00    -0.308 NA
ATOM     35  H   UNL     1      10.413   8.552  22.663  0.00  0.00    +0.123 HD
BRANCH   6  17
ATOM     17  C   UNL     1      11.574   9.924  21.716  0.00  0.00    +0.116 C 
BRANCH  17  19
ATOM     19  C   UNL     1      11.213  11.193  22.441  0.00  0.00    -0.033 A 
ATOM     24  C   UNL     1      11.163  12.403  21.748  0.00  0.00    +0.008 A 
ATOM     25  C   UNL     1      10.929  11.160  23.807  0.00  0.00    +0.008 A 
ATOM     28  C   UNL     1      10.828  13.578  22.420  0.00  0.00    +0.046 A 
ATOM     29  C   UNL     1      10.595  12.335  24.478  0.00  0.00    +0.046 A 
ATOM     32  C   UNL     1      10.545  13.544  23.785  0.00  0.00    +0.120 A 
BRANCH  32   3
ATOM      3  O   UNL     1      10.217  14.691  24.441  0.00  0.00    -0.495 OA
ATOM     33  C   UNL     1      10.876  14.941  25.681  0.00  0.00    +0.277 C 
ENDBRANCH  32   3
ENDBRANCH  17  19
ENDBRANCH   6  17
ENDBRANCH   9   6
BRANCH  10  14
ATOM     14  C   UNL     1      16.255   6.665  21.088  0.00  0.00    +0.029 C 
BRANCH  14  16
ATOM     16  C   UNL     1      17.534   7.204  20.464  0.00  0.00    +0.098 C 
BRANCH  16  18
ATOM      2  O   UNL     1      18.547   5.272  19.537  0.00  0.00    -0.275 OA
ATOM      7  N   UNL     1      19.582   6.245  21.388  0.00  0.00    -0.271 N 
ATOM     18  C   UNL     1      18.603   6.139  20.410  0.00  0.00    +0.220 C 
ATOM     20  C   UNL     1      19.647   7.288  22.436  0.00  0.00    +0.118 C 
ATOM     21  C   UNL     1      20.684   5.381  21.554  0.00  0.00    +0.039 A 
ATOM     22  C   UNL     1      20.894   7.019  23.285  0.00  0.00    +0.056 C 
ATOM     23  C   UNL     1      21.459   5.796  22.639  0.00  0.00    -0.024 A 
ATOM     26  C   UNL     1      21.042   4.261  20.817  0.00  0.00    +0.024 A 
ATOM     27  C   UNL     1      22.605   5.110  23.012  0.00  0.00    +0.005 A 
ATOM     30  C   UNL     1      22.196   3.562  21.188  0.00  0.00    +0.002 A 
ATOM     31  C   UNL     1      22.972   3.983  22.276  0.00  0.00    +0.000 A 
ENDBRANCH  16  18
ENDBRANCH  14  16
ENDBRANCH  10  14
TORSDOF 7
ENDMDL
MODEL 2
REMARK VINA RESULT:      -7.8     27.461     31.742
REMARK  Name = 45360646
REMARK  8 active torsions:
REMARK  status: ('A' for Active; 'I' for Inactive)
REMARK    1  A    between atoms: O_3  and  C_32
REMARK    2  A    between atoms: O_3  and  C_33
REMARK    3  A    between atoms: N_6  and  C_9
REMARK    4  A    between atoms: N_6  and  C_17
REMARK    5  A    between atoms: C_10  and  C_14
REMARK    6  A    between atoms: C_14  and  C_16
REMARK    7  A    between atoms: C_16  and  C_18
REMARK    8  A    between atoms: C_17  and  C_19
REMARK                            x       y       z     vdW  Elec       q    Type
REMARK                         _______ _______ _______ _____ _____    ______ ____
ROOT
ATOM      1  O   UNL     1     -17.936   1.590  21.885  0.00  0.00    -0.274 OA
ATOM      4  N   UNL     1     -17.039   4.145  24.333  0.00  0.00    -0.286 NA
ATOM      5  N   UNL     1     -17.293   1.365  24.055  0.00  0.00    -0.313 N 
ATOM      8  C   UNL     1     -17.680   3.636  23.114  0.00  0.00    +0.145 C 
ATOM      9  C   UNL     1     -15.853   5.168  22.656  0.00  0.00    +0.070 C 
ATOM     10  C   UNL     1     -17.275   3.332  25.520  0.00  0.00    +0.075 C 
ATOM     11  C   UNL     1     -16.929   4.329  21.967  0.00  0.00    +0.048 C 
ATOM     12  C   UNL     1     -15.655   4.465  23.992  0.00  0.00    +0.104 C 
ATOM     13  C   UNL     1     -16.800   1.904  25.302  0.00  0.00    +0.123 C 
ATOM     15  C   UNL     1     -17.626   2.120  22.957  0.00  0.00    +0.230 C 
ATOM     34  H   UNL     1     -17.280   0.355  23.943  0.00  0.00    +0.149 HD
ENDROOT
BRANCH   9   6
ATOM      6  N   UNL     1     -14.632   5.284  21.875  0.00  0.00    -0.308 NA
ATOM     35  H   UNL     1     -13.975   4.563  22.175  0.00  0.00    +0.123 HD
BRANCH   6  17
ATOM     17  C   UNL     1     -14.015   6.591  22.058  0.00  0.00    +0.116 C 
BRANCH  17  19
ATOM     19  C   UNL     1     -13.305   7.056  20.815  0.00  0.00    -0.033 A 
ATOM     24  C   UNL     1     -14.041   7.509  19.719  0.00  0.00    +0.008 A 
ATOM     25  C   UNL     1     -11.912   7.033  20.757  0.00  0.00    +0.008 A 
ATOM     28  C   UNL     1     -13.383   7.940  18.568  0.00  0.00    +0.046 A 
ATOM     29  C   UNL     1     -11.255   7.464  19.605  0.00  0.00    +0.046 A 
ATOM     32  C   UNL     1     -11.990   7.917  18.510  0.00  0.00    +0.120 A 
BRANCH  32   3
ATOM      3  O   UNL     1     -11.348   8.338  17.386  0.00  0.00    -0.495 OA
ATOM     33  C   UNL     1     -10.137   9.070  17.566  0.00  0.00    +0.277 C 
ENDBRANCH  32   3
ENDBRANCH  17  19
ENDBRANCH   6  17
ENDBRANCH   9   6
BRANCH  10  14
ATOM     14  C   UNL     1     -16.652   3.930  26.783  0.00  0.00    +0.029 C 
BRANCH  14  16
ATOM     16  C   UNL     1     -15.870   2.902  27.588  0.00  0.00    +0.098 C 
BRANCH  16  18
ATOM      2  O   UNL     1     -15.855   4.537  29.304  0.00  0.00    -0.275 OA
ATOM      7  N   UNL     1     -15.380   2.335  29.912  0.00  0.00    -0.271 N 
ATOM     18  C   UNL     1     -15.702   3.348  29.021  0.00  0.00    +0.220 C 
ATOM     20  C   UNL     1     -15.197   0.908  29.570  0.00  0.00    +0.118 C 
ATOM     21  C   UNL     1     -15.171   2.488  31.299  0.00  0.00    +0.039 A 
ATOM     22  C   UNL     1     -14.860   0.157  30.862  0.00  0.00    +0.056 C 
ATOM     23  C   UNL     1     -14.867   1.253  31.876  0.00  0.00    -0.024 A 
ATOM     26  C   UNL     1     -15.230   3.636  32.076  0.00  0.00    +0.024 A 
ATOM     27  C   UNL     1     -14.618   1.134  33.235  0.00  0.00    +0.005 A 
ATOM     30  C   UNL     1     -14.979   3.524  33.448  0.00  0.00    +0.002 A 
ATOM     31  C   UNL     1     -14.675   2.283  34.023  0.00  0.00    +0.000 A 
ENDBRANCH  16  18
ENDBRANCH  14  16
ENDBRANCH  10  14
TORSDOF 7
ENDMDL
MODEL 3
REMARK VINA RESULT:      -7.5     27.078     30.133
REMARK  Name = 45360646
REMARK  8 active torsions:
REMARK  status: ('A' for Active; 'I' for Inactive)
REMARK    1  A    between atoms: O_3  and  C_32
REMARK    2  A    between atoms: O_3  and  C_33
REMARK    3  A    between atoms: N_6  and  C_9
REMARK    4  A    between atoms: N_6  and  C_17
REMARK    5  A    between atoms: C_10  and  C_14
REMARK    6  A    between atoms: C_14  and  C_16
REMARK    7  A    between atoms: C_16  and  C_18
REMARK    8  A    between atoms: C_17  and  C_19
REMARK                            x       y       z     vdW  Elec       q    Type
REMARK                         _______ _______ _______ _____ _____    ______ ____
ROOT
ATOM      1  O   UNL     1      -2.630 -14.585  14.064  0.00  0.00    -0.274 OA
ATOM      4  N   UNL     1      -2.269 -11.356  12.402  0.00  0.00    -0.286 NA
ATOM      5  N   UNL     1      -3.870 -13.660  12.398  0.00  0.00    -0.313 N 
ATOM      8  C   UNL     1      -1.806 -12.511  13.182  0.00  0.00    +0.145 C 
ATOM      9  C   UNL     1      -1.890 -10.461  14.481  0.00  0.00    +0.070 C 
ATOM     10  C   UNL     1      -3.007 -11.705  11.194  0.00  0.00    +0.075 C 
ATOM     11  C   UNL     1      -1.511 -11.939  14.577  0.00  0.00    +0.048 C 
ATOM     12  C   UNL     1      -2.895 -10.426  13.338  0.00  0.00    +0.104 C 
ATOM     13  C   UNL     1      -4.219 -12.560  11.528  0.00  0.00    +0.123 C 
ATOM     15  C   UNL     1      -2.809 -13.657  13.270  0.00  0.00    +0.230 C 
ATOM     34  H   UNL     1      -4.519 -14.439  12.452  0.00  0.00    +0.149 HD
ENDROOT
BRANCH   9   6
ATOM      6  N   UNL     1      -2.410  -9.922  15.728  0.00  0.00    -0.308 NA
ATOM     35  H   UNL     1      -1.644  -9.495  16.250  0.00  0.00    +0.123 HD
BRANCH   6  17
ATOM     17  C   UNL     1      -3.010 -10.972  16.542  0.00  0.00    +0.116 C 
BRANCH  17  19
ATOM     19  C   UNL     1      -4.421 -10.633  16.942  0.00  0.00    -0.033 A 
ATOM     24  C   UNL     1      -5.246  -9.931  16.062  0.00  0.00    +0.008 A 
ATOM     25  C   UNL     1      -4.903 -11.019  18.192  0.00  0.00    +0.008 A 
ATOM     28  C   UNL     1      -6.554  -9.618  16.433  0.00  0.00    +0.046 A 
ATOM     29  C   UNL     1      -6.211 -10.705  18.563  0.00  0.00    +0.046 A 
ATOM     32  C   UNL     1      -7.036 -10.005  17.683  0.00  0.00    +0.120 A 
BRANCH  32   3
ATOM      3  O   UNL     1      -8.312  -9.700  18.045  0.00  0.00    -0.495 OA
ATOM     33  C   UNL     1      -9.000  -8.737  17.249  0.00  0.00    +0.277 C 
ENDBRANCH  32   3
ENDBRANCH  17  19
ENDBRANCH   6  17
ENDBRANCH   9   6
BRANCH  10  14
ATOM     14  C   UNL     1      -3.411 -10.480  10.371  0.00  0.00    +0.029 C 
BRANCH  14  16
ATOM     16  C   UNL     1      -4.490 -10.798   9.346  0.00  0.00    +0.098 C 
BRANCH  16  18
ATOM      2  O   UNL     1      -5.907  -9.247  10.443  0.00  0.00    -0.275 OA
ATOM      7  N   UNL     1      -6.145  -9.474   8.133  0.00  0.00    -0.271 N 
ATOM     18  C   UNL     1      -5.586  -9.760   9.370  0.00  0.00    +0.220 C 
ATOM     20  C   UNL     1      -5.758 -10.091   6.846  0.00  0.00    +0.118 C 
ATOM     21  C   UNL     1      -7.179  -8.547   7.886  0.00  0.00    +0.039 A 
ATOM     22  C   UNL     1      -6.631  -9.471   5.749  0.00  0.00    +0.056 C 
ATOM     23  C   UNL     1      -7.485  -8.522   6.524  0.00  0.00    -0.024 A 
ATOM     26  C   UNL     1      -7.862  -7.732   8.779  0.00  0.00    +0.024 A 
ATOM     27  C   UNL     1      -8.472  -7.687   6.022  0.00  0.00    +0.005 A 
ATOM     30  C   UNL     1      -8.860  -6.888   8.280  0.00  0.00    +0.002 A 
ATOM     31  C   UNL     1      -9.163  -6.865   6.912  0.00  0.00    +0.000 A 
ENDBRANCH  16  18
ENDBRANCH  14  16
ENDBRANCH  10  14
TORSDOF 7
ENDMDL
MODEL 4
REMARK VINA RESULT:      -7.5     27.763     29.873
REMARK  Name = 45360646
REMARK  8 active torsions:
REMARK  status: ('A' for Active; 'I' for Inactive)
REMARK    1  A    between atoms: O_3  and  C_32
REMARK    2  A    between atoms: O_3  and  C_33
REMARK    3  A    between atoms: N_6  and  C_9
REMARK    4  A    between atoms: N_6  and  C_17
REMARK    5  A    between atoms: C_10  and  C_14
REMARK    6  A    between atoms: C_14  and  C_16
REMARK    7  A    between atoms: C_16  and  C_18
REMARK    8  A    between atoms: C_17  and  C_19
REMARK                            x       y       z     vdW  Elec       q    Type
REMARK                         _______ _______ _______ _____ _____    ______ ____
ROOT
ATOM      1  O   UNL     1      -8.134 -13.281  19.819  0.00  0.00    -0.274 OA
ATOM      4  N   UNL     1      -6.617 -10.413  18.148  0.00  0.00    -0.286 NA
ATOM      5  N   UNL     1      -6.426 -13.206  18.320  0.00  0.00    -0.313 N 
ATOM      8  C   UNL     1      -7.382 -11.086  19.205  0.00  0.00    +0.145 C 
ATOM      9  C   UNL     1      -8.747  -9.619  17.833  0.00  0.00    +0.070 C 
ATOM     10  C   UNL     1      -5.352 -11.059  17.818  0.00  0.00    +0.075 C 
ATOM     11  C   UNL     1      -8.813 -10.550  19.044  0.00  0.00    +0.048 C 
ATOM     12  C   UNL     1      -7.544 -10.133  17.055  0.00  0.00    +0.104 C 
ATOM     13  C   UNL     1      -5.577 -12.500  17.388  0.00  0.00    +0.123 C 
ATOM     15  C   UNL     1      -7.365 -12.609  19.125  0.00  0.00    +0.230 C 
ATOM     34  H   UNL     1      -6.411 -14.222  18.291  0.00  0.00    +0.149 HD
ENDROOT
BRANCH   9   6
ATOM      6  N   UNL     1      -9.977  -9.602  17.057  0.00  0.00    -0.308 NA
ATOM     35  H   UNL     1      -9.775  -9.246  16.123  0.00  0.00    +0.123 HD
BRANCH   6  17
ATOM     17  C   UNL     1     -10.979  -8.748  17.682  0.00  0.00    +0.116 C 
BRANCH  17  19
ATOM     19  C   UNL     1     -11.591  -7.789  16.698  0.00  0.00    -0.033 A 
ATOM     24  C   UNL     1     -12.894  -7.994  16.241  0.00  0.00    +0.008 A 
ATOM     25  C   UNL     1     -10.856  -6.695  16.240  0.00  0.00    +0.008 A 
ATOM     28  C   UNL     1     -13.461  -7.104  15.329  0.00  0.00    +0.046 A 
ATOM     29  C   UNL     1     -11.424  -5.806  15.327  0.00  0.00    +0.046 A 
ATOM     32  C   UNL     1     -12.726  -6.011  14.872  0.00  0.00    +0.120 A 
BRANCH  32   3
ATOM      3  O   UNL     1     -13.280  -5.143  13.982  0.00  0.00    -0.495 OA
ATOM     33  C   UNL     1     -12.384  -4.367  13.187  0.00  0.00    +0.277 C 
ENDBRANCH  32   3
ENDBRANCH  17  19
ENDBRANCH   6  17
ENDBRANCH   9   6
BRANCH  10  14
ATOM     14  C   UNL     1      -4.550 -10.292  16.765  0.00  0.00    +0.029 C 
BRANCH  14  16
ATOM     16  C   UNL     1      -4.201 -11.152  15.560  0.00  0.00    +0.098 C 
BRANCH  16  18
ATOM      2  O   UNL     1      -6.001 -10.334  14.252  0.00  0.00    -0.275 OA
ATOM      7  N   UNL     1      -3.888 -10.380  13.263  0.00  0.00    -0.271 N 
ATOM     18  C   UNL     1      -4.795 -10.580  14.294  0.00  0.00    +0.220 C 
ATOM     20  C   UNL     1      -2.439 -10.676  13.316  0.00  0.00    +0.118 C 
ATOM     21  C   UNL     1      -4.187  -9.861  11.987  0.00  0.00    +0.039 A 
ATOM     22  C   UNL     1      -1.835 -10.293  11.962  0.00  0.00    +0.056 C 
ATOM     23  C   UNL     1      -3.028  -9.799  11.211  0.00  0.00    -0.024 A 
ATOM     26  C   UNL     1      -5.406  -9.444  11.470  0.00  0.00    +0.024 A 
ATOM     27  C   UNL     1      -3.055  -9.321   9.910  0.00  0.00    +0.005 A 
ATOM     30  C   UNL     1      -5.442  -8.961  10.157  0.00  0.00    +0.002 A 
ATOM     31  C   UNL     1      -4.276  -8.900   9.383  0.00  0.00    +0.000 A 
ENDBRANCH  16  18
ENDBRANCH  14  16
ENDBRANCH  10  14
TORSDOF 7
ENDMDL
MODEL 5
REMARK VINA RESULT:      -7.2     28.164     30.349
REMARK  Name = 45360646
REMARK  8 active torsions:
REMARK  status: ('A' for Active; 'I' for Inactive)
REMARK    1  A    between atoms: O_3  and  C_32
REMARK    2  A    between atoms: O_3  and  C_33
REMARK    3  A    between atoms: N_6  and  C_9
REMARK    4  A    between atoms: N_6  and  C_17
REMARK    5  A    between atoms: C_10  and  C_14
REMARK    6  A    between atoms: C_14  and  C_16
REMARK    7  A    between atoms: C_16  and  C_18
REMARK    8  A    between atoms: C_17  and  C_19
REMARK                            x       y       z     vdW  Elec       q    Type
REMARK                         _______ _______ _______ _____ _____    ______ ____
ROOT
ATOM      1  O   UNL     1      -6.840 -11.652   6.857  0.00  0.00    -0.274 OA
ATOM      4  N   UNL     1      -6.395  -9.644   9.873  0.00  0.00    -0.286 NA
ATOM      5  N   UNL     1      -5.006 -11.397   8.178  0.00  0.00    -0.313 N 
ATOM      8  C   UNL     1      -7.170 -10.376   8.863  0.00  0.00    +0.145 C 
ATOM      9  C   UNL     1      -7.540  -7.977   8.790  0.00  0.00    +0.070 C 
ATOM     10  C   UNL     1      -5.248 -10.378  10.396  0.00  0.00    +0.075 C 
ATOM     11  C   UNL     1      -7.978  -9.288   8.137  0.00  0.00    +0.048 C 
ATOM     12  C   UNL     1      -6.162  -8.301   9.349  0.00  0.00    +0.104 C 
ATOM     13  C   UNL     1      -4.301 -10.774   9.274  0.00  0.00    +0.123 C 
ATOM     15  C   UNL     1      -6.327 -11.172   7.872  0.00  0.00    +0.230 C 
ATOM     34  H   UNL     1      -4.460 -11.946   7.521  0.00  0.00    +0.149 HD
ENDROOT
BRANCH   9   6
ATOM      6  N   UNL     1      -7.543  -6.851   7.868  0.00  0.00    -0.308 NA
ATOM     35  H   UNL     1      -7.450  -5.986   8.401  0.00  0.00    +0.123 HD
BRANCH   6  17
ATOM     17  C   UNL     1      -8.782  -6.805   7.102  0.00  0.00    +0.116 C 
BRANCH  17  19
ATOM     19  C   UNL     1      -9.852  -6.023   7.814  0.00  0.00    -0.033 A 
ATOM     24  C   UNL     1     -11.181  -6.444   7.753  0.00  0.00    +0.008 A 
ATOM     25  C   UNL     1      -9.517  -4.876   8.534  0.00  0.00    +0.008 A 
ATOM     28  C   UNL     1     -12.173  -5.719   8.414  0.00  0.00    +0.046 A 
ATOM     29  C   UNL     1     -10.509  -4.152   9.193  0.00  0.00    +0.046 A 
ATOM     32  C   UNL     1     -11.837  -4.573   9.133  0.00  0.00    +0.120 A 
BRANCH  32   3
ATOM      3  O   UNL     1     -12.805  -3.866   9.778  0.00  0.00    -0.495 OA
ATOM     33  C   UNL     1     -12.587  -3.576  11.157  0.00  0.00    +0.277 C 
ENDBRANCH  32   3
ENDBRANCH  17  19
ENDBRANCH   6  17
ENDBRANCH   9   6
BRANCH  10  14
ATOM     14  C   UNL     1      -4.507  -9.615  11.496  0.00  0.00    +0.029 C 
BRANCH  14  16
ATOM     16  C   UNL     1      -4.245 -10.474  12.724  0.00  0.00    +0.098 C 
BRANCH  16  18
ATOM      2  O   UNL     1      -6.353  -9.723  13.505  0.00  0.00    -0.275 OA
ATOM      7  N   UNL     1      -4.831 -10.499  15.095  0.00  0.00    -0.271 N 
ATOM     18  C   UNL     1      -5.255 -10.191  13.810  0.00  0.00    +0.220 C 
ATOM     20  C   UNL     1      -3.512 -11.062  15.458  0.00  0.00    +0.118 C 
ATOM     21  C   UNL     1      -5.582 -10.330  16.277  0.00  0.00    +0.039 A 
ATOM     22  C   UNL     1      -3.486 -11.246  16.979  0.00  0.00    +0.056 C 
ATOM     23  C   UNL     1      -4.836 -10.748  17.381  0.00  0.00    -0.024 A 
ATOM     26  C   UNL     1      -6.868  -9.834  16.440  0.00  0.00    +0.024 A 
ATOM     27  C   UNL     1      -5.352 -10.684  18.667  0.00  0.00    +0.005 A 
ATOM     30  C   UNL     1      -7.395  -9.766  17.733  0.00  0.00    +0.002 A 
ATOM     31  C   UNL     1      -6.644 -10.187  18.838  0.00  0.00    +0.000 A 
ENDBRANCH  16  18
ENDBRANCH  14  16
ENDBRANCH  10  14
TORSDOF 7
ENDMDL
MODEL 6
REMARK VINA RESULT:      -7.1     27.492     30.902
REMARK  Name = 45360646
REMARK  8 active torsions:
REMARK  status: ('A' for Active; 'I' for Inactive)
REMARK    1  A    between atoms: O_3  and  C_32
REMARK    2  A    between atoms: O_3  and  C_33
REMARK    3  A    between atoms: N_6  and  C_9
REMARK    4  A    between atoms: N_6  and  C_17
REMARK    5  A    between atoms: C_10  and  C_14
REMARK    6  A    between atoms: C_14  and  C_16
REMARK    7  A    between atoms: C_16  and  C_18
REMARK    8  A    between atoms: C_17  and  C_19
REMARK                            x       y       z     vdW  Elec       q    Type
REMARK                         _______ _______ _______ _____ _____    ______ ____
ROOT
ATOM      1  O   UNL     1      -4.116 -10.490  12.879  0.00  0.00    -0.274 OA
ATOM      4  N   UNL     1      -5.521 -11.331  16.141  0.00  0.00    -0.286 NA
ATOM      5  N   UNL     1      -3.160 -10.405  14.941  0.00  0.00    -0.313 N 
ATOM      8  C   UNL     1      -5.435 -11.380  14.676  0.00  0.00    +0.145 C 
ATOM      9  C   UNL     1      -7.424 -10.237  15.472  0.00  0.00    +0.070 C 
ATOM     10  C   UNL     1      -4.249 -11.537  16.825  0.00  0.00    +0.075 C 
ATOM     11  C   UNL     1      -6.715 -10.682  14.193  0.00  0.00    +0.048 C 
ATOM     12  C   UNL     1      -6.295 -10.142  16.489  0.00  0.00    +0.104 C 
ATOM     13  C   UNL     1      -3.222 -10.507  16.381  0.00  0.00    +0.123 C 
ATOM     15  C   UNL     1      -4.199 -10.703  14.093  0.00  0.00    +0.230 C 
ATOM     34  H   UNL     1      -2.334  -9.973  14.537  0.00  0.00    +0.149 HD
ENDROOT
BRANCH   9   6
ATOM      6  N   UNL     1      -8.167  -8.998  15.312  0.00  0.00    -0.308 NA
ATOM     35  H   UNL     1      -7.524  -8.259  15.026  0.00  0.00    +0.123 HD
BRANCH   6  17
ATOM     17  C   UNL     1      -8.810  -8.607  16.561  0.00  0.00    +0.116 C 
BRANCH  17  19
ATOM     19  C   UNL     1     -10.174  -8.016  16.328  0.00  0.00    -0.033 A 
ATOM     24  C   UNL     1     -10.296  -6.724  15.814  0.00  0.00    +0.008 A 
ATOM     25  C   UNL     1     -11.317  -8.758  16.626  0.00  0.00    +0.008 A 
ATOM     28  C   UNL     1     -11.561  -6.176  15.598  0.00  0.00    +0.046 A 
ATOM     29  C   UNL     1     -12.581  -8.209  16.410  0.00  0.00    +0.046 A 
ATOM     32  C   UNL     1     -12.703  -6.919  15.897  0.00  0.00    +0.120 A 
BRANCH  32   3
ATOM      3  O   UNL     1     -13.936  -6.384  15.685  0.00  0.00    -0.495 OA
ATOM     33  C   UNL     1     -14.347  -6.214  14.330  0.00  0.00    +0.277 C 
ENDBRANCH  32   3
ENDBRANCH  17  19
ENDBRANCH   6  17
ENDBRANCH   9   6
BRANCH  10  14
ATOM     14  C   UNL     1      -4.389 -11.551  18.348  0.00  0.00    +0.029 C 
BRANCH  14  16
ATOM     16  C   UNL     1      -5.414 -12.568  18.828  0.00  0.00    +0.098 C 
BRANCH  16  18
ATOM      2  O   UNL     1      -6.571 -11.030  20.213  0.00  0.00    -0.275 OA
ATOM      7  N   UNL     1      -7.840 -12.300  18.722  0.00  0.00    -0.271 N 
ATOM     18  C   UNL     1      -6.664 -11.884  19.329  0.00  0.00    +0.220 C 
ATOM     20  C   UNL     1      -7.949 -13.325  17.661  0.00  0.00    +0.118 C 
ATOM     21  C   UNL     1      -9.135 -11.819  19.008  0.00  0.00    +0.039 A 
ATOM     22  C   UNL     1      -9.429 -13.454  17.287  0.00  0.00    +0.056 C 
ATOM     23  C   UNL     1     -10.074 -12.465  18.201  0.00  0.00    -0.024 A 
ATOM     26  C   UNL     1      -9.534 -10.859  19.927  0.00  0.00    +0.024 A 
ATOM     27  C   UNL     1     -11.426 -12.168  18.289  0.00  0.00    +0.005 A 
ATOM     30  C   UNL     1     -10.896 -10.555  20.023  0.00  0.00    +0.002 A 
ATOM     31  C   UNL     1     -11.835 -11.204  19.211  0.00  0.00    +0.000 A 
ENDBRANCH  16  18
ENDBRANCH  14  16
ENDBRANCH  10  14
TORSDOF 7
ENDMDL
MODEL 7
REMARK VINA RESULT:      -7.0     27.477     30.332
REMARK  Name = 45360646
REMARK  8 active torsions:
REMARK  status: ('A' for Active; 'I' for Inactive)
REMARK    1  A    between atoms: O_3  and  C_32
REMARK    2  A    between atoms: O_3  and  C_33
REMARK    3  A    between atoms: N_6  and  C_9
REMARK    4  A    between atoms: N_6  and  C_17
REMARK    5  A    between atoms: C_10  and  C_14
REMARK    6  A    between atoms: C_14  and  C_16
REMARK    7  A    between atoms: C_16  and  C_18
REMARK    8  A    between atoms: C_17  and  C_19
REMARK                            x       y       z     vdW  Elec       q    Type
REMARK                         _______ _______ _______ _____ _____    ______ ____
ROOT
ATOM      1  O   UNL     1     -12.459  -9.372  18.811  0.00  0.00    -0.274 OA
ATOM      4  N   UNL     1      -9.704 -10.115  16.534  0.00  0.00    -0.286 NA
ATOM      5  N   UNL     1     -11.616  -8.140  17.096  0.00  0.00    -0.313 N 
ATOM      8  C   UNL     1     -10.772 -10.448  17.485  0.00  0.00    +0.145 C 
ATOM      9  C   UNL     1      -8.550 -10.874  18.367  0.00  0.00    +0.070 C 
ATOM     10  C   UNL     1     -10.108  -9.197  15.476  0.00  0.00    +0.075 C 
ATOM     11  C   UNL     1     -10.033 -10.993  18.717  0.00  0.00    +0.048 C 
ATOM     12  C   UNL     1      -8.520  -9.771  17.318  0.00  0.00    +0.104 C 
ATOM     13  C   UNL     1     -10.638  -7.897  16.059  0.00  0.00    +0.123 C 
ATOM     15  C   UNL     1     -11.666  -9.274  17.869  0.00  0.00    +0.230 C 
ATOM     34  H   UNL     1     -12.231  -7.372  17.349  0.00  0.00    +0.149 HD
ENDROOT
BRANCH   9   6
ATOM      6  N   UNL     1      -7.710 -10.600  19.522  0.00  0.00    -0.308 NA
ATOM     35  H   UNL     1      -7.233  -9.709  19.382  0.00  0.00    +0.123 HD
BRANCH   6  17
ATOM     17  C   UNL     1      -6.713 -11.647  19.706  0.00  0.00    +0.116 C 
BRANCH  17  19
ATOM     19  C   UNL     1      -5.725 -11.686  18.572  0.00  0.00    -0.033 A 
ATOM     24  C   UNL     1      -5.049 -10.525  18.195  0.00  0.00    +0.008 A 
ATOM     25  C   UNL     1      -5.487 -12.882  17.895  0.00  0.00    +0.008 A 
ATOM     28  C   UNL     1      -4.133 -10.562  17.144  0.00  0.00    +0.046 A 
ATOM     29  C   UNL     1      -4.571 -12.918  16.844  0.00  0.00    +0.046 A 
ATOM     32  C   UNL     1      -3.895 -11.758  16.468  0.00  0.00    +0.120 A 
BRANCH  32   3
ATOM      3  O   UNL     1      -3.001 -11.794  15.443  0.00  0.00    -0.495 OA
ATOM     33  C   UNL     1      -1.798 -11.043  15.602  0.00  0.00    +0.277 C 
ENDBRANCH  32   3
ENDBRANCH  17  19
ENDBRANCH   6  17
ENDBRANCH   9   6
BRANCH  10  14
ATOM     14  C   UNL     1      -8.991  -8.929  14.465  0.00  0.00    +0.029 C 
BRANCH  14  16
ATOM     16  C   UNL     1      -8.666 -10.151  13.620  0.00  0.00    +0.098 C 
BRANCH  16  18
ATOM      2  O   UNL     1      -6.534 -10.872  14.365  0.00  0.00    -0.275 OA
ATOM      7  N   UNL     1      -6.649  -9.830  12.280  0.00  0.00    -0.271 N 
ATOM     18  C   UNL     1      -7.174 -10.324  13.466  0.00  0.00    +0.220 C 
ATOM     20  C   UNL     1      -7.419  -9.172  11.202  0.00  0.00    +0.118 C 
ATOM     21  C   UNL     1      -5.292  -9.868  11.896  0.00  0.00    +0.039 A 
ATOM     22  C   UNL     1      -6.436  -8.798  10.088  0.00  0.00    +0.056 C 
ATOM     23  C   UNL     1      -5.134  -9.280  10.640  0.00  0.00    -0.024 A 
ATOM     26  C   UNL     1      -4.198 -10.381  12.578  0.00  0.00    +0.024 A 
ATOM     27  C   UNL     1      -3.889  -9.192  10.036  0.00  0.00    +0.005 A 
ATOM     30  C   UNL     1      -2.939 -10.296  11.976  0.00  0.00    +0.002 A 
ATOM     31  C   UNL     1      -2.784  -9.706  10.715  0.00  0.00    +0.000 A 
ENDBRANCH  16  18
ENDBRANCH  14  16
ENDBRANCH  10  14
TORSDOF 7
ENDMDL
MODEL 8
REMARK VINA RESULT:      -6.9      3.484     12.270
REMARK  Name = 45360646
REMARK  8 active torsions:
REMARK  status: ('A' for Active; 'I' for Inactive)
REMARK    1  A    between atoms: O_3  and  C_32
REMARK    2  A    between atoms: O_3  and  C_33
REMARK    3  A    between atoms: N_6  and  C_9
REMARK    4  A    between atoms: N_6  and  C_17
REMARK    5  A    between atoms: C_10  and  C_14
REMARK    6  A    between atoms: C_14  and  C_16
REMARK    7  A    between atoms: C_16  and  C_18
REMARK    8  A    between atoms: C_17  and  C_19
REMARK                            x       y       z     vdW  Elec       q    Type
REMARK                         _______ _______ _______ _____ _____    ______ ____
ROOT
ATOM      1  O   UNL     1      22.465   8.097  23.613  0.00  0.00    -0.274 OA
ATOM      4  N   UNL     1      20.147   5.927  21.812  0.00  0.00    -0.286 NA
ATOM      5  N   UNL     1      20.771   8.636  22.195  0.00  0.00    -0.313 N 
ATOM      8  C   UNL     1      21.100   6.265  22.878  0.00  0.00    +0.145 C 
ATOM      9  C   UNL     1      21.951   4.590  21.340  0.00  0.00    +0.070 C 
ATOM     10  C   UNL     1      19.113   6.932  21.591  0.00  0.00    +0.075 C 
ATOM     11  C   UNL     1      22.312   5.360  22.610  0.00  0.00    +0.048 C 
ATOM     12  C   UNL     1      20.928   5.488  20.659  0.00  0.00    +0.104 C 
ATOM     13  C   UNL     1      19.732   8.280  21.256  0.00  0.00    +0.123 C 
ATOM     15  C   UNL     1      21.518   7.731  22.910  0.00  0.00    +0.230 C 
ATOM     34  H   UNL     1      21.047   9.612  22.241  0.00  0.00    +0.149 HD
ENDROOT
BRANCH   9   6
ATOM      6  N   UNL     1      23.105   4.289  20.507  0.00  0.00    -0.308 NA
ATOM     35  H   UNL     1      23.007   3.345  20.132  0.00  0.00    +0.123 HD
BRANCH   6  17
ATOM     17  C   UNL     1      24.340   4.366  21.276  0.00  0.00    +0.116 C 
BRANCH  17  19
ATOM     19  C   UNL     1      24.903   3.002  21.571  0.00  0.00    -0.033 A 
ATOM     24  C   UNL     1      26.231   2.868  21.980  0.00  0.00    +0.008 A 
ATOM     25  C   UNL     1      24.098   1.871  21.435  0.00  0.00    +0.008 A 
ATOM     28  C   UNL     1      26.751   1.603  22.254  0.00  0.00    +0.046 A 
ATOM     29  C   UNL     1      24.620   0.607  21.709  0.00  0.00    +0.046 A 
ATOM     32  C   UNL     1      25.947   0.473  22.118  0.00  0.00    +0.120 A 
BRANCH  32   3
ATOM      3  O   UNL     1      26.455  -0.760  22.386  0.00  0.00    -0.495 OA
ATOM     33  C   UNL     1      26.827  -1.031  23.737  0.00  0.00    +0.277 C 
ENDBRANCH  32   3
ENDBRANCH  17  19
ENDBRANCH   6  17
ENDBRANCH   9   6
BRANCH  10  14
ATOM     14  C   UNL     1      18.099   6.514  20.524  0.00  0.00    +0.029 C 
BRANCH  14  16
ATOM     16  C   UNL     1      16.697   6.342  21.092  0.00  0.00    +0.098 C 
BRANCH  16  18
ATOM      2  O   UNL     1      15.838   6.242  18.885  0.00  0.00    -0.275 OA
ATOM      7  N   UNL     1      14.531   7.302  20.501  0.00  0.00    -0.271 N 
ATOM     18  C   UNL     1      15.649   6.621  20.042  0.00  0.00    +0.220 C 
ATOM     20  C   UNL     1      14.305   7.756  21.891  0.00  0.00    +0.118 C 
ATOM     21  C   UNL     1      13.415   7.682  19.725  0.00  0.00    +0.039 A 
ATOM     22  C   UNL     1      12.942   8.454  21.939  0.00  0.00    +0.056 C 
ATOM     23  C   UNL     1      12.483   8.349  20.522  0.00  0.00    -0.024 A 
ATOM     26  C   UNL     1      13.174   7.479  18.374  0.00  0.00    +0.024 A 
ATOM     27  C   UNL     1      11.293   8.825  19.994  0.00  0.00    +0.005 A 
ATOM     30  C   UNL     1      11.976   7.958  17.833  0.00  0.00    +0.002 A 
ATOM     31  C   UNL     1      11.042   8.626  18.636  0.00  0.00    +0.000 A 
ENDBRANCH  16  18
ENDBRANCH  14  16
ENDBRANCH  10  14
TORSDOF 7
ENDMDL
MODEL 9
REMARK VINA RESULT:      -6.9     27.547     30.672
REMARK  Name = 45360646
REMARK  8 active torsions:
REMARK  status: ('A' for Active; 'I' for Inactive)
REMARK    1  A    between atoms: O_3  and  C_32
REMARK    2  A    between atoms: O_3  and  C_33
REMARK    3  A    between atoms: N_6  and  C_9
REMARK    4  A    between atoms: N_6  and  C_17
REMARK    5  A    between atoms: C_10  and  C_14
REMARK    6  A    between atoms: C_14  and  C_16
REMARK    7  A    between atoms: C_16  and  C_18
REMARK    8  A    between atoms: C_17  and  C_19
REMARK                            x       y       z     vdW  Elec       q    Type
REMARK                         _______ _______ _______ _____ _____    ______ ____
ROOT
ATOM      1  O   UNL     1      -6.973 -13.059  14.542  0.00  0.00    -0.274 OA
ATOM      4  N   UNL     1      -4.173 -11.715  12.623  0.00  0.00    -0.286 NA
ATOM      5  N   UNL     1      -6.874 -11.225  13.201  0.00  0.00    -0.313 N 
ATOM      8  C   UNL     1      -4.921 -12.762  13.332  0.00  0.00    +0.145 C 
ATOM      9  C   UNL     1      -2.865 -12.135  14.461  0.00  0.00    +0.070 C 
ATOM     10  C   UNL     1      -4.971 -10.941  11.680  0.00  0.00    +0.075 C 
ATOM     11  C   UNL     1      -4.054 -13.092  14.556  0.00  0.00    +0.048 C 
ATOM     12  C   UNL     1      -3.402 -10.983  13.625  0.00  0.00    +0.104 C 
ATOM     13  C   UNL     1      -6.149 -10.282  12.380  0.00  0.00    +0.123 C 
ATOM     15  C   UNL     1      -6.327 -12.353  13.761  0.00  0.00    +0.230 C 
ATOM     34  H   UNL     1      -7.819 -10.975  13.479  0.00  0.00    +0.149 HD
ENDROOT
BRANCH   9   6
ATOM      6  N   UNL     1      -2.359 -11.723  15.761  0.00  0.00    -0.308 NA
ATOM     35  H   UNL     1      -2.509 -12.477  16.431  0.00  0.00    +0.123 HD
BRANCH   6  17
ATOM     17  C   UNL     1      -3.044 -10.526  16.234  0.00  0.00    +0.116 C 
BRANCH  17  19
ATOM     19  C   UNL     1      -4.078 -10.849  17.279  0.00  0.00    -0.033 A 
ATOM     24  C   UNL     1      -5.390 -10.401  17.124  0.00  0.00    +0.008 A 
ATOM     25  C   UNL     1      -3.723 -11.594  18.404  0.00  0.00    +0.008 A 
ATOM     28  C   UNL     1      -6.348 -10.701  18.093  0.00  0.00    +0.046 A 
ATOM     29  C   UNL     1      -4.682 -11.893  19.372  0.00  0.00    +0.046 A 
ATOM     32  C   UNL     1      -5.994 -11.446  19.217  0.00  0.00    +0.120 A 
BRANCH  32   3
ATOM      3  O   UNL     1      -6.928 -11.739  20.162  0.00  0.00    -0.495 OA
ATOM     33  C   UNL     1      -7.952 -12.663  19.798  0.00  0.00    +0.277 C 
ENDBRANCH  32   3
ENDBRANCH  17  19
ENDBRANCH   6  17
ENDBRANCH   9   6
BRANCH  10  14
ATOM     14  C   UNL     1      -4.144  -9.910  10.910  0.00  0.00    +0.029 C 
BRANCH  14  16
ATOM     16  C   UNL     1      -4.125 -10.181   9.412  0.00  0.00    +0.098 C 
BRANCH  16  18
ATOM      2  O   UNL     1      -5.791  -8.499   9.285  0.00  0.00    -0.275 OA
ATOM      7  N   UNL     1      -5.542  -9.908   7.441  0.00  0.00    -0.271 N 
ATOM     18  C   UNL     1      -5.239  -9.439   8.712  0.00  0.00    +0.220 C 
ATOM     20  C   UNL     1      -4.877 -11.037   6.755  0.00  0.00    +0.118 C 
ATOM     21  C   UNL     1      -6.535  -9.391   6.583  0.00  0.00    +0.039 A 
ATOM     22  C   UNL     1      -5.527 -11.194   5.376  0.00  0.00    +0.056 C 
ATOM     23  C   UNL     1      -6.555 -10.110   5.387  0.00  0.00    -0.024 A 
ATOM     26  C   UNL     1      -7.414  -8.337   6.789  0.00  0.00    +0.024 A 
ATOM     27  C   UNL     1      -7.446  -9.796   4.372  0.00  0.00    +0.005 A 
ATOM     30  C   UNL     1      -8.317  -8.015   5.771  0.00  0.00    +0.002 A 
ATOM     31  C   UNL     1      -8.333  -8.738   4.571  0.00  0.00    +0.000 A 
ENDBRANCH  16  18
ENDBRANCH  14  16
ENDBRANCH  10  14
TORSDOF 7
ENDMDL
MODEL 10
REMARK VINA RESULT:      -6.8     28.360     31.568
REMARK  Name = 45360646
REMARK  8 active torsions:
REMARK  status: ('A' for Active; 'I' for Inactive)
REMARK    1  A    between atoms: O_3  and  C_32
REMARK    2  A    between atoms: O_3  and  C_33
REMARK    3  A    between atoms: N_6  and  C_9
REMARK    4  A    between atoms: N_6  and  C_17
REMARK    5  A    between atoms: C_10  and  C_14
REMARK    6  A    between atoms: C_14  and  C_16
REMARK    7  A    between atoms: C_16  and  C_18
REMARK    8  A    between atoms: C_17  and  C_19
REMARK                            x       y       z     vdW  Elec       q    Type
REMARK                         _______ _______ _______ _____ _____    ______ ____
ROOT
ATOM      1  O   UNL     1     -15.449  -8.642  14.778  0.00  0.00    -0.274 OA
ATOM      4  N   UNL     1     -12.427  -7.089  16.111  0.00  0.00    -0.286 NA
ATOM      5  N   UNL     1     -13.566  -9.604  15.616  0.00  0.00    -0.313 N 
ATOM      8  C   UNL     1     -13.845  -7.134  15.735  0.00  0.00    +0.145 C 
ATOM      9  C   UNL     1     -12.544  -5.624  14.349  0.00  0.00    +0.070 C 
ATOM     10  C   UNL     1     -11.974  -8.238  16.887  0.00  0.00    +0.075 C 
ATOM     11  C   UNL     1     -13.967  -6.135  14.573  0.00  0.00    +0.048 C 
ATOM     12  C   UNL     1     -11.673  -6.739  14.910  0.00  0.00    +0.104 C 
ATOM     13  C   UNL     1     -12.217  -9.533  16.127  0.00  0.00    +0.123 C 
ATOM     15  C   UNL     1     -14.344  -8.513  15.315  0.00  0.00    +0.230 C 
ATOM     34  H   UNL     1     -13.919 -10.519  15.350  0.00  0.00    +0.149 HD
ENDROOT
BRANCH   9   6
ATOM      6  N   UNL     1     -12.262  -5.312  12.956  0.00  0.00    -0.308 NA
ATOM     35  H   UNL     1     -11.324  -5.640  12.726  0.00  0.00    +0.123 HD
BRANCH   6  17
ATOM     17  C   UNL     1     -12.334  -3.877  12.716  0.00  0.00    +0.116 C 
BRANCH  17  19
ATOM     19  C   UNL     1     -12.979  -3.561  11.393  0.00  0.00    -0.033 A 
ATOM     24  C   UNL     1     -12.258  -3.725  10.209  0.00  0.00    +0.008 A 
ATOM     25  C   UNL     1     -14.296  -3.105  11.349  0.00  0.00    +0.008 A 
ATOM     28  C   UNL     1     -12.856  -3.433   8.983  0.00  0.00    +0.046 A 
ATOM     29  C   UNL     1     -14.893  -2.813  10.123  0.00  0.00    +0.046 A 
ATOM     32  C   UNL     1     -14.173  -2.977   8.940  0.00  0.00    +0.120 A 
BRANCH  32   3
ATOM      3  O   UNL     1     -14.756  -2.692   7.744  0.00  0.00    -0.495 OA
ATOM     33  C   UNL     1     -15.666  -3.658   7.219  0.00  0.00    +0.277 C 
ENDBRANCH  32   3
ENDBRANCH  17  19
ENDBRANCH   6  17
ENDBRANCH   9   6
BRANCH  10  14
ATOM     14  C   UNL     1     -10.512  -8.122  17.321  0.00  0.00    +0.029 C 
BRANCH  14  16
ATOM     16  C   UNL     1      -9.891  -9.475  17.636  0.00  0.00    +0.098 C 
BRANCH  16  18
ATOM      2  O   UNL     1      -8.331  -9.155  15.880  0.00  0.00    -0.275 OA
ATOM      7  N   UNL     1      -7.577 -10.238  17.805  0.00  0.00    -0.271 N 
ATOM     18  C   UNL     1      -8.522  -9.604  17.012  0.00  0.00    +0.220 C 
ATOM     20  C   UNL     1      -7.808 -10.776  19.164  0.00  0.00    +0.118 C 
ATOM     21  C   UNL     1      -6.232 -10.482  17.456  0.00  0.00    +0.039 A 
ATOM     22  C   UNL     1      -6.489 -11.379  19.658  0.00  0.00    +0.056 C 
ATOM     23  C   UNL     1      -5.578 -11.140  18.499  0.00  0.00    -0.024 A 
ATOM     26  C   UNL     1      -5.555 -10.165  16.286  0.00  0.00    +0.024 A 
ATOM     27  C   UNL     1      -4.240 -11.493  18.404  0.00  0.00    +0.005 A 
ATOM     30  C   UNL     1      -4.206 -10.519  16.182  0.00  0.00    +0.002 A 
ATOM     31  C   UNL     1      -3.553 -11.178  17.231  0.00  0.00    +0.000 A 
ENDBRANCH  16  18
ENDBRANCH  14  16
ENDBRANCH  10  14
TORSDOF 7
ENDMDL
