MODEL 1
REMARK VINA RESULT:      -6.2      0.000      0.000
REMARK  Name = 11865680
REMARK  8 active torsions:
REMARK  status: ('A' for Active; 'I' for Inactive)
REMARK    1  A    between atoms: O_1  and  C_9
REMARK    2  A    between atoms: O_2  and  C_10
REMARK    3  A    between atoms: N_6  and  C_11
REMARK    4  A    between atoms: N_7  and  C_17
REMARK    5  A    between atoms: C_13  and  C_15
REMARK    6  A    between atoms: C_16  and  C_19
REMARK    7  A    between atoms: C_17  and  C_18
REMARK    8  A    between atoms: C_18  and  C_20
REMARK                            x       y       z     vdW  Elec       q    Type
REMARK                         _______ _______ _______ _____ _____    ______ ____
ROOT
ATOM      9  C   UNL     1      13.784   7.664  18.671  0.00  0.00    +0.167 C 
ATOM     10  C   UNL     1      13.184   6.840  19.817  0.00  0.00    +0.149 C 
ATOM     11  C   UNL     1      12.806   8.750  18.184  0.00  0.00    +0.127 C 
ATOM     12  C   UNL     1      12.740   7.724  20.995  0.00  0.00    +0.074 C 
ATOM     13  C   UNL     1      12.116   9.020  20.566  0.00  0.00    +0.015 C 
ATOM     14  C   UNL     1      12.130   9.488  19.309  0.00  0.00    +0.006 C 
ENDROOT
BRANCH  11   6
ATOM      4  O   UNL     1      12.828   8.787  15.282  0.00  0.00    -0.276 OA
ATOM      6  N   UNL     1      13.460   9.708  17.325  0.00  0.00    -0.307 N 
ATOM     16  C   UNL     1      13.413   9.642  15.942  0.00  0.00    +0.210 C 
ATOM     19  C   UNL     1      14.157  10.777  15.290  0.00  0.00    +0.109 C 
ATOM     21  H   UNL     1      14.010  10.444  17.759  0.00  0.00    +0.149 HD
ENDBRANCH  11   6
BRANCH  13  15
ATOM      3  O   UNL     1      10.677   9.297  22.402  0.00  0.00    -0.271 OA
ATOM      7  N   UNL     1      11.710  11.174  21.485  0.00  0.00    -0.311 N 
ATOM     15  C   UNL     1      11.424   9.823  21.579  0.00  0.00    +0.240 C 
ATOM     24  H   UNL     1      12.308  11.531  20.749  0.00  0.00    +0.149 HD
BRANCH   7  17
ATOM     17  C   UNL     1      11.146  12.164  22.373  0.00  0.00    +0.113 C 
BRANCH  17  18
ATOM     18  C   UNL     1      11.922  12.275  23.679  0.00  0.00    +0.114 C 
BRANCH  18  20
ATOM      5  O   UNL     1      10.377  12.568  25.530  0.00  0.00    -0.276 OA
ATOM      8  N   UNL     1      11.346  10.509  25.210  0.00  0.00    -0.329 N 
ATOM     20  C   UNL     1      11.125  11.833  24.893  0.00  0.00    +0.212 C 
ATOM     25  H   UNL     1      11.973   9.920  24.671  0.00  0.00    +0.145 HD
ATOM     26  H   UNL     1      10.882  10.077  26.003  0.00  0.00    +0.145 HD
ENDBRANCH  18  20
ENDBRANCH  17  18
ENDBRANCH   7  17
ENDBRANCH  13  15
BRANCH   9   1
ATOM      1  O   UNL     1      14.992   8.275  19.129  0.00  0.00    -0.387 OA
ATOM     22  H   UNL     1      14.747   9.085  19.608  0.00  0.00    +0.210 HD
ENDBRANCH   9   1
BRANCH  10   2
ATOM      2  O   UNL     1      12.082   6.069  19.343  0.00  0.00    -0.389 OA
ATOM     23  H   UNL     1      12.220   5.913  18.392  0.00  0.00    +0.210 HD
ENDBRANCH  10   2
TORSDOF 7
ENDMDL
MODEL 2
REMARK VINA RESULT:      -6.1     28.624     30.091
REMARK  Name = 11865680
REMARK  8 active torsions:
REMARK  status: ('A' for Active; 'I' for Inactive)
REMARK    1  A    between atoms: O_1  and  C_9
REMARK    2  A    between atoms: O_2  and  C_10
REMARK    3  A    between atoms: N_6  and  C_11
REMARK    4  A    between atoms: N_7  and  C_17
REMARK    5  A    between atoms: C_13  and  C_15
REMARK    6  A    between atoms: C_16  and  C_19
REMARK    7  A    between atoms: C_17  and  C_18
REMARK    8  A    between atoms: C_18  and  C_20
REMARK                            x       y       z     vdW  Elec       q    Type
REMARK                         _______ _______ _______ _____ _____    ______ ____
ROOT
ATOM      9  C   UNL     1     -13.606   2.665  31.955  0.00  0.00    +0.167 C 
ATOM     10  C   UNL     1     -14.484   3.857  32.355  0.00  0.00    +0.149 C 
ATOM     11  C   UNL     1     -14.340   1.724  30.981  0.00  0.00    +0.127 C 
ATOM     12  C   UNL     1     -14.987   4.642  31.131  0.00  0.00    +0.074 C 
ATOM     13  C   UNL     1     -15.356   3.765  29.970  0.00  0.00    +0.015 C 
ATOM     14  C   UNL     1     -15.080   2.454  29.893  0.00  0.00    +0.006 C 
ENDROOT
BRANCH  11   6
ATOM      4  O   UNL     1     -14.982  -0.914  29.952  0.00  0.00    -0.276 OA
ATOM      6  N   UNL     1     -13.436   0.776  30.375  0.00  0.00    -0.307 N 
ATOM     16  C   UNL     1     -13.838  -0.466  29.911  0.00  0.00    +0.210 C 
ATOM     19  C   UNL     1     -12.703  -1.245  29.302  0.00  0.00    +0.109 C 
ATOM     21  H   UNL     1     -12.451   1.020  30.320  0.00  0.00    +0.149 HD
ENDBRANCH  11   6
BRANCH  13  15
ATOM      3  O   UNL     1     -16.698   5.427  28.992  0.00  0.00    -0.271 OA
ATOM      7  N   UNL     1     -15.996   3.629  27.685  0.00  0.00    -0.311 N 
ATOM     15  C   UNL     1     -16.085   4.370  28.851  0.00  0.00    +0.240 C 
ATOM     24  H   UNL     1     -15.503   2.744  27.665  0.00  0.00    +0.149 HD
BRANCH   7  17
ATOM     17  C   UNL     1     -16.634   4.022  26.450  0.00  0.00    +0.113 C 
BRANCH  17  18
ATOM     18  C   UNL     1     -16.476   2.971  25.360  0.00  0.00    +0.114 C 
BRANCH  18  20
ATOM      5  O   UNL     1     -16.010   3.065  22.979  0.00  0.00    -0.276 OA
ATOM      8  N   UNL     1     -14.911   4.515  24.382  0.00  0.00    -0.329 N 
ATOM     20  C   UNL     1     -15.800   3.498  24.107  0.00  0.00    +0.212 C 
ATOM     25  H   UNL     1     -14.750   4.855  25.324  0.00  0.00    +0.145 HD
ATOM     26  H   UNL     1     -14.382   4.961  23.639  0.00  0.00    +0.145 HD
ENDBRANCH  18  20
ENDBRANCH  17  18
ENDBRANCH   7  17
ENDBRANCH  13  15
BRANCH   9   1
ATOM      1  O   UNL     1     -12.414   3.159  31.339  0.00  0.00    -0.387 OA
ATOM     22  H   UNL     1     -11.661   2.859  31.876  0.00  0.00    +0.210 HD
ENDBRANCH   9   1
BRANCH  10   2
ATOM      2  O   UNL     1     -15.590   3.411  33.137  0.00  0.00    -0.389 OA
ATOM     23  H   UNL     1     -15.810   4.120  33.765  0.00  0.00    +0.210 HD
ENDBRANCH  10   2
TORSDOF 7
ENDMDL
MODEL 3
REMARK VINA RESULT:      -6.0     13.166     17.450
REMARK  Name = 11865680
REMARK  8 active torsions:
REMARK  status: ('A' for Active; 'I' for Inactive)
REMARK    1  A    between atoms: O_1  and  C_9
REMARK    2  A    between atoms: O_2  and  C_10
REMARK    3  A    between atoms: N_6  and  C_11
REMARK    4  A    between atoms: N_7  and  C_17
REMARK    5  A    between atoms: C_13  and  C_15
REMARK    6  A    between atoms: C_16  and  C_19
REMARK    7  A    between atoms: C_17  and  C_18
REMARK    8  A    between atoms: C_18  and  C_20
REMARK                            x       y       z     vdW  Elec       q    Type
REMARK                         _______ _______ _______ _____ _____    ______ ____
ROOT
ATOM      9  C   UNL     1      12.399   7.205   6.887  0.00  0.00    +0.167 C 
ATOM     10  C   UNL     1      12.832   8.036   5.672  0.00  0.00    +0.149 C 
ATOM     11  C   UNL     1      10.997   6.601   6.686  0.00  0.00    +0.127 C 
ATOM     12  C   UNL     1      12.784   7.223   4.367  0.00  0.00    +0.074 C 
ATOM     13  C   UNL     1      11.609   6.292   4.288  0.00  0.00    +0.015 C 
ATOM     14  C   UNL     1      10.794   6.011   5.316  0.00  0.00    +0.006 C 
ENDROOT
BRANCH  11   6
ATOM      4  O   UNL     1       8.796   6.569   8.580  0.00  0.00    -0.276 OA
ATOM      6  N   UNL     1      10.706   5.591   7.676  0.00  0.00    -0.307 N 
ATOM     16  C   UNL     1       9.626   5.664   8.540  0.00  0.00    +0.210 C 
ATOM     19  C   UNL     1       9.541   4.469   9.452  0.00  0.00    +0.109 C 
ATOM     21  H   UNL     1      11.349   4.808   7.764  0.00  0.00    +0.149 HD
ENDBRANCH  11   6
BRANCH  13  15
ATOM      3  O   UNL     1      10.393   6.070   2.289  0.00  0.00    -0.271 OA
ATOM      7  N   UNL     1      12.158   4.605   2.706  0.00  0.00    -0.311 N 
ATOM     15  C   UNL     1      11.312   5.661   2.998  0.00  0.00    +0.240 C 
ATOM     24  H   UNL     1      12.867   4.307   3.365  0.00  0.00    +0.149 HD
BRANCH   7  17
ATOM     17  C   UNL     1      12.060   3.828   1.492  0.00  0.00    +0.113 C 
BRANCH  17  18
ATOM     18  C   UNL     1      13.425   3.392   0.976  0.00  0.00    +0.114 C 
BRANCH  18  20
ATOM      5  O   UNL     1      14.701   5.376   1.555  0.00  0.00    -0.276 OA
ATOM      8  N   UNL     1      15.484   3.321   2.221  0.00  0.00    -0.329 N 
ATOM     20  C   UNL     1      14.578   4.156   1.602  0.00  0.00    +0.212 C 
ATOM     25  H   UNL     1      15.364   2.313   2.244  0.00  0.00    +0.145 HD
ATOM     26  H   UNL     1      16.309   3.693   2.679  0.00  0.00    +0.145 HD
ENDBRANCH  18  20
ENDBRANCH  17  18
ENDBRANCH   7  17
ENDBRANCH  13  15
BRANCH   9   1
ATOM      1  O   UNL     1      13.350   6.157   7.088  0.00  0.00    -0.387 OA
ATOM     22  H   UNL     1      12.904   5.450   7.585  0.00  0.00    +0.210 HD
ENDBRANCH   9   1
BRANCH  10   2
ATOM      2  O   UNL     1      12.012   9.197   5.554  0.00  0.00    -0.389 OA
ATOM     23  H   UNL     1      11.374   9.181   6.288  0.00  0.00    +0.210 HD
ENDBRANCH  10   2
TORSDOF 7
ENDMDL
MODEL 4
REMARK VINA RESULT:      -6.0      2.445      3.324
REMARK  Name = 11865680
REMARK  8 active torsions:
REMARK  status: ('A' for Active; 'I' for Inactive)
REMARK    1  A    between atoms: O_1  and  C_9
REMARK    2  A    between atoms: O_2  and  C_10
REMARK    3  A    between atoms: N_6  and  C_11
REMARK    4  A    between atoms: N_7  and  C_17
REMARK    5  A    between atoms: C_13  and  C_15
REMARK    6  A    between atoms: C_16  and  C_19
REMARK    7  A    between atoms: C_17  and  C_18
REMARK    8  A    between atoms: C_18  and  C_20
REMARK                            x       y       z     vdW  Elec       q    Type
REMARK                         _______ _______ _______ _____ _____    ______ ____
ROOT
ATOM      9  C   UNL     1      13.730   6.584  19.628  0.00  0.00    +0.167 C 
ATOM     10  C   UNL     1      12.309   7.013  19.242  0.00  0.00    +0.149 C 
ATOM     11  C   UNL     1      14.767   7.657  19.247  0.00  0.00    +0.127 C 
ATOM     12  C   UNL     1      11.926   8.368  19.862  0.00  0.00    +0.074 C 
ATOM     13  C   UNL     1      13.055   9.358  19.878  0.00  0.00    +0.015 C 
ATOM     14  C   UNL     1      14.331   9.055  19.595  0.00  0.00    +0.006 C 
ENDROOT
BRANCH  11   6
ATOM      4  O   UNL     1      16.701   5.621  18.510  0.00  0.00    -0.276 OA
ATOM      6  N   UNL     1      16.048   7.401  19.861  0.00  0.00    -0.307 N 
ATOM     16  C   UNL     1      16.907   6.401  19.437  0.00  0.00    +0.210 C 
ATOM     19  C   UNL     1      18.184   6.367  20.233  0.00  0.00    +0.109 C 
ATOM     21  H   UNL     1      16.313   7.960  20.667  0.00  0.00    +0.149 HD
ENDBRANCH  11   6
BRANCH  13  15
ATOM      3  O   UNL     1      13.309  11.679  19.616  0.00  0.00    -0.271 OA
ATOM      7  N   UNL     1      11.793  10.880  21.195  0.00  0.00    -0.311 N 
ATOM     15  C   UNL     1      12.747  10.754  20.200  0.00  0.00    +0.240 C 
ATOM     24  H   UNL     1      11.407  10.064  21.655  0.00  0.00    +0.149 HD
BRANCH   7  17
ATOM     17  C   UNL     1      11.327  12.157  21.685  0.00  0.00    +0.113 C 
BRANCH  17  18
ATOM     18  C   UNL     1      10.984  12.115  23.168  0.00  0.00    +0.114 C 
BRANCH  18  20
ATOM      5  O   UNL     1      13.243  11.412  23.715  0.00  0.00    -0.276 OA
ATOM      8  N   UNL     1      11.536  10.880  25.159  0.00  0.00    -0.329 N 
ATOM     20  C   UNL     1      12.054  11.450  24.015  0.00  0.00    +0.212 C 
ATOM     25  H   UNL     1      10.547  10.920  25.385  0.00  0.00    +0.145 HD
ATOM     26  H   UNL     1      12.136  10.396  25.819  0.00  0.00    +0.145 HD
ENDBRANCH  18  20
ENDBRANCH  17  18
ENDBRANCH   7  17
ENDBRANCH  13  15
BRANCH   9   1
ATOM      1  O   UNL     1      13.774   6.352  21.037  0.00  0.00    -0.387 OA
ATOM     22  H   UNL     1      14.100   7.167  21.458  0.00  0.00    +0.210 HD
ENDBRANCH   9   1
BRANCH  10   2
ATOM      2  O   UNL     1      12.181   7.072  17.824  0.00  0.00    -0.389 OA
ATOM     23  H   UNL     1      12.018   8.000  17.582  0.00  0.00    +0.210 HD
ENDBRANCH  10   2
TORSDOF 7
ENDMDL
MODEL 5
REMARK VINA RESULT:      -5.8     13.649     18.709
REMARK  Name = 11865680
REMARK  8 active torsions:
REMARK  status: ('A' for Active; 'I' for Inactive)
REMARK    1  A    between atoms: O_1  and  C_9
REMARK    2  A    between atoms: O_2  and  C_10
REMARK    3  A    between atoms: N_6  and  C_11
REMARK    4  A    between atoms: N_7  and  C_17
REMARK    5  A    between atoms: C_13  and  C_15
REMARK    6  A    between atoms: C_16  and  C_19
REMARK    7  A    between atoms: C_17  and  C_18
REMARK    8  A    between atoms: C_18  and  C_20
REMARK                            x       y       z     vdW  Elec       q    Type
REMARK                         _______ _______ _______ _____ _____    ______ ____
ROOT
ATOM      9  C   UNL     1      11.451   6.890   6.062  0.00  0.00    +0.167 C 
ATOM     10  C   UNL     1      11.801   7.568   4.732  0.00  0.00    +0.149 C 
ATOM     11  C   UNL     1      10.309   5.870   5.892  0.00  0.00    +0.127 C 
ATOM     12  C   UNL     1      12.157   6.547   3.637  0.00  0.00    +0.074 C 
ATOM     13  C   UNL     1      11.304   5.312   3.674  0.00  0.00    +0.015 C 
ATOM     14  C   UNL     1      10.465   5.000   4.673  0.00  0.00    +0.006 C 
ENDROOT
BRANCH  11   6
ATOM      4  O   UNL     1       8.994   6.514   8.399  0.00  0.00    -0.276 OA
ATOM      6  N   UNL     1      10.174   5.024   7.054  0.00  0.00    -0.307 N 
ATOM     16  C   UNL     1       9.525   5.422   8.211  0.00  0.00    +0.210 C 
ATOM     19  C   UNL     1       9.506   4.340   9.258  0.00  0.00    +0.109 C 
ATOM     21  H   UNL     1      10.609   4.106   7.031  0.00  0.00    +0.149 HD
ENDBRANCH  11   6
BRANCH  13  15
ATOM      3  O   UNL     1      10.348   4.008   1.969  0.00  0.00    -0.271 OA
ATOM      7  N   UNL     1      12.667   4.035   2.205  0.00  0.00    -0.311 N 
ATOM     15  C   UNL     1      11.371   4.392   2.535  0.00  0.00    +0.240 C 
ATOM     24  H   UNL     1      13.455   4.366   2.749  0.00  0.00    +0.149 HD
BRANCH   7  17
ATOM     17  C   UNL     1      12.986   3.137   1.118  0.00  0.00    +0.113 C 
BRANCH  17  18
ATOM     18  C   UNL     1      13.032   3.853  -0.225  0.00  0.00    +0.114 C 
BRANCH  18  20
ATOM      5  O   UNL     1      12.326   2.527  -2.133  0.00  0.00    -0.276 OA
ATOM      8  N   UNL     1      10.765   3.802  -1.030  0.00  0.00    -0.329 N 
ATOM     20  C   UNL     1      12.036   3.308  -1.233  0.00  0.00    +0.212 C 
ATOM     25  H   UNL     1      10.548   4.451  -0.281  0.00  0.00    +0.145 HD
ATOM     26  H   UNL     1       9.996   3.527  -1.633  0.00  0.00    +0.145 HD
ENDBRANCH  18  20
ENDBRANCH  17  18
ENDBRANCH   7  17
ENDBRANCH  13  15
BRANCH   9   1
ATOM      1  O   UNL     1      12.615   6.228   6.561  0.00  0.00    -0.387 OA
ATOM     22  H   UNL     1      13.346   6.418   5.947  0.00  0.00    +0.210 HD
ENDBRANCH   9   1
BRANCH  10   2
ATOM      2  O   UNL     1      10.719   8.390   4.300  0.00  0.00    -0.389 OA
ATOM     23  H   UNL     1      10.340   7.981   3.503  0.00  0.00    +0.210 HD
ENDBRANCH  10   2
TORSDOF 7
ENDMDL
MODEL 6
REMARK VINA RESULT:      -5.7      2.005      2.271
REMARK  Name = 11865680
REMARK  8 active torsions:
REMARK  status: ('A' for Active; 'I' for Inactive)
REMARK    1  A    between atoms: O_1  and  C_9
REMARK    2  A    between atoms: O_2  and  C_10
REMARK    3  A    between atoms: N_6  and  C_11
REMARK    4  A    between atoms: N_7  and  C_17
REMARK    5  A    between atoms: C_13  and  C_15
REMARK    6  A    between atoms: C_16  and  C_19
REMARK    7  A    between atoms: C_17  and  C_18
REMARK    8  A    between atoms: C_18  and  C_20
REMARK                            x       y       z     vdW  Elec       q    Type
REMARK                         _______ _______ _______ _____ _____    ______ ____
ROOT
ATOM      9  C   UNL     1      12.349   7.092  19.449  0.00  0.00    +0.167 C 
ATOM     10  C   UNL     1      12.165   6.681  20.915  0.00  0.00    +0.149 C 
ATOM     11  C   UNL     1      11.732   8.476  19.169  0.00  0.00    +0.127 C 
ATOM     12  C   UNL     1      12.740   7.727  21.887  0.00  0.00    +0.074 C 
ATOM     13  C   UNL     1      12.505   9.143  21.445  0.00  0.00    +0.015 C 
ATOM     14  C   UNL     1      12.045   9.493  20.234  0.00  0.00    +0.006 C 
ENDROOT
BRANCH  11   6
ATOM      4  O   UNL     1      10.412   8.134  16.607  0.00  0.00    -0.276 OA
ATOM      6  N   UNL     1      12.152   8.996  17.890  0.00  0.00    -0.307 N 
ATOM     16  C   UNL     1      11.451   8.779  16.715  0.00  0.00    +0.210 C 
ATOM     19  C   UNL     1      12.094   9.454  15.533  0.00  0.00    +0.109 C 
ATOM     21  H   UNL     1      13.025   9.517  17.848  0.00  0.00    +0.149 HD
ENDBRANCH  11   6
BRANCH  13  15
ATOM      3  O   UNL     1      13.804  10.885  22.338  0.00  0.00    -0.271 OA
ATOM      7  N   UNL     1      11.763  10.372  23.339  0.00  0.00    -0.311 N 
ATOM     15  C   UNL     1      12.772  10.219  22.404  0.00  0.00    +0.240 C 
ATOM     24  H   UNL     1      10.961   9.753  23.348  0.00  0.00    +0.149 HD
BRANCH   7  17
ATOM     17  C   UNL     1      11.802  11.366  24.387  0.00  0.00    +0.113 C 
BRANCH  17  18
ATOM     18  C   UNL     1      10.577  12.271  24.368  0.00  0.00    +0.114 C 
BRANCH  18  20
ATOM      5  O   UNL     1      11.553  13.467  22.493  0.00  0.00    -0.276 OA
ATOM      8  N   UNL     1       9.423  14.007  23.165  0.00  0.00    -0.329 N 
ATOM     20  C   UNL     1      10.598  13.290  23.243  0.00  0.00    +0.212 C 
ATOM     25  H   UNL     1       8.647  13.846  23.799  0.00  0.00    +0.145 HD
ATOM     26  H   UNL     1       9.296  14.727  22.462  0.00  0.00    +0.145 HD
ENDBRANCH  18  20
ENDBRANCH  17  18
ENDBRANCH   7  17
ENDBRANCH  13  15
BRANCH   9   1
ATOM      1  O   UNL     1      13.747   7.120  19.152  0.00  0.00    -0.387 OA
ATOM     22  H   UNL     1      14.035   8.048  19.189  0.00  0.00    +0.210 HD
ENDBRANCH   9   1
BRANCH  10   2
ATOM      2  O   UNL     1      10.784   6.463  21.194  0.00  0.00    -0.389 OA
ATOM     23  H   UNL     1      10.370   6.129  20.380  0.00  0.00    +0.210 HD
ENDBRANCH  10   2
TORSDOF 7
ENDMDL
MODEL 7
REMARK VINA RESULT:      -5.6     28.897     31.080
REMARK  Name = 11865680
REMARK  8 active torsions:
REMARK  status: ('A' for Active; 'I' for Inactive)
REMARK    1  A    between atoms: O_1  and  C_9
REMARK    2  A    between atoms: O_2  and  C_10
REMARK    3  A    between atoms: N_6  and  C_11
REMARK    4  A    between atoms: N_7  and  C_17
REMARK    5  A    between atoms: C_13  and  C_15
REMARK    6  A    between atoms: C_16  and  C_19
REMARK    7  A    between atoms: C_17  and  C_18
REMARK    8  A    between atoms: C_18  and  C_20
REMARK                            x       y       z     vdW  Elec       q    Type
REMARK                         _______ _______ _______ _____ _____    ______ ____
ROOT
ATOM      9  C   UNL     1     -14.513   2.810  33.175  0.00  0.00    +0.167 C 
ATOM     10  C   UNL     1     -13.391   2.250  32.292  0.00  0.00    +0.149 C 
ATOM     11  C   UNL     1     -15.472   3.707  32.369  0.00  0.00    +0.127 C 
ATOM     12  C   UNL     1     -13.940   1.484  31.075  0.00  0.00    +0.074 C 
ATOM     13  C   UNL     1     -15.156   2.123  30.468  0.00  0.00    +0.015 C 
ATOM     14  C   UNL     1     -15.847   3.125  31.032  0.00  0.00    +0.006 C 
ENDROOT
BRANCH  11   6
ATOM      4  O   UNL     1     -16.076   6.102  33.894  0.00  0.00    -0.276 OA
ATOM      6  N   UNL     1     -16.678   3.995  33.107  0.00  0.00    -0.307 N 
ATOM     16  C   UNL     1     -16.875   5.173  33.808  0.00  0.00    +0.210 C 
ATOM     19  C   UNL     1     -18.228   5.227  34.467  0.00  0.00    +0.109 C 
ATOM     21  H   UNL     1     -17.400   3.281  33.142  0.00  0.00    +0.149 HD
ENDBRANCH  11   6
BRANCH  13  15
ATOM      3  O   UNL     1     -15.591   0.439  28.888  0.00  0.00    -0.271 OA
ATOM      7  N   UNL     1     -16.044   2.655  28.329  0.00  0.00    -0.311 N 
ATOM     15  C   UNL     1     -15.613   1.638  29.162  0.00  0.00    +0.240 C 
ATOM     24  H   UNL     1     -15.991   3.625  28.618  0.00  0.00    +0.149 HD
BRANCH   7  17
ATOM     17  C   UNL     1     -16.537   2.424  26.991  0.00  0.00    +0.113 C 
BRANCH  17  18
ATOM     18  C   UNL     1     -16.301   3.619  26.076  0.00  0.00    +0.114 C 
BRANCH  18  20
ATOM      5  O   UNL     1     -16.257   2.345  24.009  0.00  0.00    -0.276 OA
ATOM      8  N   UNL     1     -14.683   3.987  24.333  0.00  0.00    -0.329 N 
ATOM     20  C   UNL     1     -15.776   3.233  24.705  0.00  0.00    +0.212 C 
ATOM     25  H   UNL     1     -14.299   4.715  24.927  0.00  0.00    +0.145 HD
ATOM     26  H   UNL     1     -14.224   3.836  23.441  0.00  0.00    +0.145 HD
ENDBRANCH  18  20
ENDBRANCH  17  18
ENDBRANCH   7  17
ENDBRANCH  13  15
BRANCH   9   1
ATOM      1  O   UNL     1     -15.240   1.719  33.743  0.00  0.00    -0.387 OA
ATOM     22  H   UNL     1     -14.634   0.960  33.796  0.00  0.00    +0.210 HD
ENDBRANCH   9   1
BRANCH  10   2
ATOM      2  O   UNL     1     -12.533   3.303  31.859  0.00  0.00    -0.389 OA
ATOM     23  H   UNL     1     -12.587   4.015  32.520  0.00  0.00    +0.210 HD
ENDBRANCH  10   2
TORSDOF 7
ENDMDL
MODEL 8
REMARK VINA RESULT:      -5.5      6.781      8.861
REMARK  Name = 11865680
REMARK  8 active torsions:
REMARK  status: ('A' for Active; 'I' for Inactive)
REMARK    1  A    between atoms: O_1  and  C_9
REMARK    2  A    between atoms: O_2  and  C_10
REMARK    3  A    between atoms: N_6  and  C_11
REMARK    4  A    between atoms: N_7  and  C_17
REMARK    5  A    between atoms: C_13  and  C_15
REMARK    6  A    between atoms: C_16  and  C_19
REMARK    7  A    between atoms: C_17  and  C_18
REMARK    8  A    between atoms: C_18  and  C_20
REMARK                            x       y       z     vdW  Elec       q    Type
REMARK                         _______ _______ _______ _____ _____    ______ ____
ROOT
ATOM      9  C   UNL     1      21.298   6.707  21.808  0.00  0.00    +0.167 C 
ATOM     10  C   UNL     1      19.999   7.259  22.408  0.00  0.00    +0.149 C 
ATOM     11  C   UNL     1      21.073   5.339  21.136  0.00  0.00    +0.127 C 
ATOM     12  C   UNL     1      18.875   7.358  21.363  0.00  0.00    +0.074 C 
ATOM     13  C   UNL     1      18.853   6.207  20.400  0.00  0.00    +0.015 C 
ATOM     14  C   UNL     1      19.826   5.290  20.293  0.00  0.00    +0.006 C 
ENDROOT
BRANCH  11   6
ATOM      4  O   UNL     1      23.544   4.101  22.022  0.00  0.00    -0.276 OA
ATOM      6  N   UNL     1      22.201   4.954  20.322  0.00  0.00    -0.307 N 
ATOM     16  C   UNL     1      23.344   4.365  20.839  0.00  0.00    +0.210 C 
ATOM     19  C   UNL     1      24.354   4.042  19.771  0.00  0.00    +0.109 C 
ATOM     21  H   UNL     1      22.167   5.159  19.327  0.00  0.00    +0.149 HD
ENDBRANCH  11   6
BRANCH  13  15
ATOM      3  O   UNL     1      17.759   5.444  18.465  0.00  0.00    -0.271 OA
ATOM      7  N   UNL     1      16.548   6.661  20.040  0.00  0.00    -0.311 N 
ATOM     15  C   UNL     1      17.683   6.056  19.529  0.00  0.00    +0.240 C 
ATOM     24  H   UNL     1      16.580   7.181  20.909  0.00  0.00    +0.149 HD
BRANCH   7  17
ATOM     17  C   UNL     1      15.273   6.649  19.362  0.00  0.00    +0.113 C 
BRANCH  17  18
ATOM     18  C   UNL     1      14.122   7.012  20.291  0.00  0.00    +0.114 C 
BRANCH  18  20
ATOM      5  O   UNL     1      12.408   7.833  18.780  0.00  0.00    -0.276 OA
ATOM      8  N   UNL     1      11.979   5.951  20.026  0.00  0.00    -0.329 N 
ATOM     20  C   UNL     1      12.768   7.000  19.605  0.00  0.00    +0.212 C 
ATOM     25  H   UNL     1      12.296   5.275  20.714  0.00  0.00    +0.145 HD
ATOM     26  H   UNL     1      11.043   5.820  19.656  0.00  0.00    +0.145 HD
ENDBRANCH  18  20
ENDBRANCH  17  18
ENDBRANCH   7  17
ENDBRANCH  13  15
BRANCH   9   1
ATOM      1  O   UNL     1      21.792   7.640  20.845  0.00  0.00    -0.387 OA
ATOM     22  H   UNL     1      22.740   7.768  21.021  0.00  0.00    +0.210 HD
ENDBRANCH   9   1
BRANCH  10   2
ATOM      2  O   UNL     1      19.579   6.446  23.502  0.00  0.00    -0.389 OA
ATOM     23  H   UNL     1      19.829   6.906  24.322  0.00  0.00    +0.210 HD
ENDBRANCH  10   2
TORSDOF 7
ENDMDL
MODEL 9
REMARK VINA RESULT:      -5.4      3.573      7.184
REMARK  Name = 11865680
REMARK  8 active torsions:
REMARK  status: ('A' for Active; 'I' for Inactive)
REMARK    1  A    between atoms: O_1  and  C_9
REMARK    2  A    between atoms: O_2  and  C_10
REMARK    3  A    between atoms: N_6  and  C_11
REMARK    4  A    between atoms: N_7  and  C_17
REMARK    5  A    between atoms: C_13  and  C_15
REMARK    6  A    between atoms: C_16  and  C_19
REMARK    7  A    between atoms: C_17  and  C_18
REMARK    8  A    between atoms: C_18  and  C_20
REMARK                            x       y       z     vdW  Elec       q    Type
REMARK                         _______ _______ _______ _____ _____    ______ ____
ROOT
ATOM      9  C   UNL     1      14.593   7.446  21.514  0.00  0.00    +0.167 C 
ATOM     10  C   UNL     1      15.421   8.636  21.015  0.00  0.00    +0.149 C 
ATOM     11  C   UNL     1      13.170   7.461  20.924  0.00  0.00    +0.127 C 
ATOM     12  C   UNL     1      15.482   8.695  19.479  0.00  0.00    +0.074 C 
ATOM     13  C   UNL     1      14.188   8.322  18.816  0.00  0.00    +0.015 C 
ATOM     14  C   UNL     1      13.140   7.777  19.452  0.00  0.00    +0.006 C 
ENDROOT
BRANCH  11   6
ATOM      4  O   UNL     1      10.429   7.075  21.799  0.00  0.00    -0.276 OA
ATOM      6  N   UNL     1      12.489   6.208  21.146  0.00  0.00    -0.307 N 
ATOM     16  C   UNL     1      11.171   6.124  21.566  0.00  0.00    +0.210 C 
ATOM     19  C   UNL     1      10.701   4.700  21.694  0.00  0.00    +0.109 C 
ATOM     21  H   UNL     1      13.016   5.348  21.022  0.00  0.00    +0.149 HD
ENDBRANCH  11   6
BRANCH  13  15
ATOM      3  O   UNL     1      13.796   7.680  16.590  0.00  0.00    -0.271 OA
ATOM      7  N   UNL     1      14.216   9.924  17.061  0.00  0.00    -0.311 N 
ATOM     15  C   UNL     1      14.044   8.589  17.381  0.00  0.00    +0.240 C 
ATOM     24  H   UNL     1      14.457  10.605  17.771  0.00  0.00    +0.149 HD
BRANCH   7  17
ATOM     17  C   UNL     1      14.123  10.430  15.711  0.00  0.00    +0.113 C 
BRANCH  17  18
ATOM     18  C   UNL     1      15.492  10.705  15.103  0.00  0.00    +0.114 C 
BRANCH  18  20
ATOM      5  O   UNL     1      14.380  11.686  13.180  0.00  0.00    -0.276 OA
ATOM      8  N   UNL     1      16.676  11.720  13.270  0.00  0.00    -0.329 N 
ATOM     20  C   UNL     1      15.425  11.418  13.765  0.00  0.00    +0.212 C 
ATOM     25  H   UNL     1      17.528  11.485  13.769  0.00  0.00    +0.145 HD
ATOM     26  H   UNL     1      16.785  12.194  12.379  0.00  0.00    +0.145 HD
ENDBRANCH  18  20
ENDBRANCH  17  18
ENDBRANCH   7  17
ENDBRANCH  13  15
BRANCH   9   1
ATOM      1  O   UNL     1      15.255   6.236  21.140  0.00  0.00    -0.387 OA
ATOM     22  H   UNL     1      14.973   5.543  21.762  0.00  0.00    +0.210 HD
ENDBRANCH   9   1
BRANCH  10   2
ATOM      2  O   UNL     1      14.890   9.855  21.530  0.00  0.00    -0.389 OA
ATOM     23  H   UNL     1      14.895   9.790  22.500  0.00  0.00    +0.210 HD
ENDBRANCH  10   2
TORSDOF 7
ENDMDL
MODEL 10
REMARK VINA RESULT:      -5.4     14.422     17.986
REMARK  Name = 11865680
REMARK  8 active torsions:
REMARK  status: ('A' for Active; 'I' for Inactive)
REMARK    1  A    between atoms: O_1  and  C_9
REMARK    2  A    between atoms: O_2  and  C_10
REMARK    3  A    between atoms: N_6  and  C_11
REMARK    4  A    between atoms: N_7  and  C_17
REMARK    5  A    between atoms: C_13  and  C_15
REMARK    6  A    between atoms: C_16  and  C_19
REMARK    7  A    between atoms: C_17  and  C_18
REMARK    8  A    between atoms: C_18  and  C_20
REMARK                            x       y       z     vdW  Elec       q    Type
REMARK                         _______ _______ _______ _____ _____    ______ ____
ROOT
ATOM      9  C   UNL     1      15.101   4.297   1.239  0.00  0.00    +0.167 C 
ATOM     10  C   UNL     1      14.038   3.578   0.400  0.00  0.00    +0.149 C 
ATOM     11  C   UNL     1      14.568   5.625   1.808  0.00  0.00    +0.127 C 
ATOM     12  C   UNL     1      12.741   3.336   1.192  0.00  0.00    +0.074 C 
ATOM     13  C   UNL     1      12.372   4.478   2.094  0.00  0.00    +0.015 C 
ATOM     14  C   UNL     1      13.177   5.515   2.372  0.00  0.00    +0.006 C 
ENDROOT
BRANCH  11   6
ATOM      4  O   UNL     1      15.070   8.419   2.417  0.00  0.00    -0.276 OA
ATOM      6  N   UNL     1      15.442   6.157   2.826  0.00  0.00    -0.307 N 
ATOM     16  C   UNL     1      15.617   7.515   3.042  0.00  0.00    +0.210 C 
ATOM     19  C   UNL     1      16.563   7.795   4.180  0.00  0.00    +0.109 C 
ATOM     21  H   UNL     1      15.982   5.502   3.384  0.00  0.00    +0.149 HD
ENDBRANCH  11   6
BRANCH  13  15
ATOM      3  O   UNL     1      10.065   4.031   2.089  0.00  0.00    -0.271 OA
ATOM      7  N   UNL     1      11.019   5.020   3.971  0.00  0.00    -0.311 N 
ATOM     15  C   UNL     1      11.036   4.478   2.698  0.00  0.00    +0.240 C 
ATOM     24  H   UNL     1      11.859   5.405   4.386  0.00  0.00    +0.149 HD
BRANCH   7  17
ATOM     17  C   UNL     1       9.817   5.130   4.766  0.00  0.00    +0.113 C 
BRANCH  17  18
ATOM     18  C   UNL     1       9.809   4.154   5.935  0.00  0.00    +0.114 C 
BRANCH  18  20
ATOM      5  O   UNL     1       9.491   6.003   7.478  0.00  0.00    -0.276 OA
ATOM      8  N   UNL     1      10.281   4.004   8.290  0.00  0.00    -0.329 N 
ATOM     20  C   UNL     1       9.828   4.838   7.290  0.00  0.00    +0.212 C 
ATOM     25  H   UNL     1      10.559   3.043   8.111  0.00  0.00    +0.145 HD
ATOM     26  H   UNL     1      10.352   4.328   9.249  0.00  0.00    +0.145 HD
ENDBRANCH  18  20
ENDBRANCH  17  18
ENDBRANCH   7  17
ENDBRANCH  13  15
BRANCH   9   1
ATOM      1  O   UNL     1      15.497   3.439   2.312  0.00  0.00    -0.387 OA
ATOM     22  H   UNL     1      14.725   3.320   2.891  0.00  0.00    +0.210 HD
ENDBRANCH   9   1
BRANCH  10   2
ATOM      2  O   UNL     1      13.756   4.325  -0.781  0.00  0.00    -0.389 OA
ATOM     23  H   UNL     1      12.848   4.109  -1.055  0.00  0.00    +0.210 HD
ENDBRANCH  10   2
TORSDOF 7
ENDMDL
