MODEL 1
REMARK VINA RESULT:      -5.8      0.000      0.000
REMARK  Name = 75536846
REMARK  9 active torsions:
REMARK  status: ('A' for Active; 'I' for Inactive)
REMARK    1  A    between atoms: O_2  and  C_7
REMARK    2  A    between atoms: O_3  and  C_12
REMARK    3  A    between atoms: O_3  and  C_13
REMARK    4  A    between atoms: N_5  and  C_9
REMARK    5  A    between atoms: N_6  and  C_11
REMARK    6  A    between atoms: C_8  and  C_11
REMARK    7  A    between atoms: C_12  and  C_14
REMARK    8  A    between atoms: C_12  and  C_15
REMARK    9  A    between atoms: C_12  and  C_16
REMARK                            x       y       z     vdW  Elec       q    Type
REMARK                         _______ _______ _______ _____ _____    ______ ____
ROOT
ATOM      1  O   UNL     1      -3.851   2.533  23.417  0.00  0.00    -0.371 OA
ATOM      7  C   UNL     1      -3.411   3.200  25.643  0.00  0.00    +0.164 C 
ATOM      8  C   UNL     1      -2.853   3.177  24.226  0.00  0.00    +0.165 C 
ATOM      9  C   UNL     1      -4.891   3.394  25.370  0.00  0.00    +0.108 C 
ATOM     10  C   UNL     1      -5.089   2.516  24.146  0.00  0.00    +0.181 C 
ENDROOT
BRANCH   9   5
ATOM      5  N   UNL     1      -5.744   3.015  26.485  0.00  0.00    -0.323 NA
ATOM     17  H   UNL     1      -5.786   3.776  27.161  0.00  0.00    +0.119 HD
ATOM     18  H   UNL     1      -5.340   2.215  26.969  0.00  0.00    +0.119 HD
ENDBRANCH   9   5
BRANCH   7   2
ATOM      2  O   UNL     1      -2.855   4.249  26.412  0.00  0.00    -0.388 OA
ATOM     19  H   UNL     1      -2.174   4.690  25.878  0.00  0.00    +0.210 HD
ENDBRANCH   7   2
BRANCH   8  11
ATOM     11  C   UNL     1      -1.537   2.428  24.112  0.00  0.00    +0.141 C 
BRANCH  11   6
ATOM      4  O   UNL     1      -0.989   0.284  25.994  0.00  0.00    -0.226 OA
ATOM      6  N   UNL     1      -1.752   1.021  23.930  0.00  0.00    -0.279 N 
ATOM     13  C   UNL     1      -1.461   0.062  24.885  0.00  0.00    +0.401 C 
ATOM     20  H   UNL     1      -2.134   0.705  23.043  0.00  0.00    +0.152 HD
BRANCH  13   3
ATOM      3  O   UNL     1      -1.777  -1.181  24.411  0.00  0.00    -0.445 OA
BRANCH   3  12
ATOM     12  C   UNL     1      -3.092  -1.653  24.727  0.00  0.00    +0.107 C 
ATOM     14  C   UNL     1      -3.109  -3.174  24.583  0.00  0.00    +0.055 C 
ATOM     15  C   UNL     1      -4.087  -1.003  23.766  0.00  0.00    +0.055 C 
ATOM     16  C   UNL     1      -3.392  -1.246  26.169  0.00  0.00    +0.055 C 
ENDBRANCH   3  12
ENDBRANCH  13   3
ENDBRANCH  11   6
ENDBRANCH   8  11
TORSDOF 6
ENDMDL
MODEL 2
REMARK VINA RESULT:      -5.3     18.707     20.880
REMARK  Name = 75536846
REMARK  9 active torsions:
REMARK  status: ('A' for Active; 'I' for Inactive)
REMARK    1  A    between atoms: O_2  and  C_7
REMARK    2  A    between atoms: O_3  and  C_12
REMARK    3  A    between atoms: O_3  and  C_13
REMARK    4  A    between atoms: N_5  and  C_9
REMARK    5  A    between atoms: N_6  and  C_11
REMARK    6  A    between atoms: C_8  and  C_11
REMARK    7  A    between atoms: C_12  and  C_14
REMARK    8  A    between atoms: C_12  and  C_15
REMARK    9  A    between atoms: C_12  and  C_16
REMARK                            x       y       z     vdW  Elec       q    Type
REMARK                         _______ _______ _______ _____ _____    ______ ____
ROOT
ATOM      1  O   UNL     1      17.066   7.640  20.907  0.00  0.00    -0.371 OA
ATOM      7  C   UNL     1      17.511   5.845  19.432  0.00  0.00    +0.164 C 
ATOM      8  C   UNL     1      16.625   7.062  19.668  0.00  0.00    +0.165 C 
ATOM      9  C   UNL     1      18.830   6.329  20.006  0.00  0.00    +0.108 C 
ATOM     10  C   UNL     1      18.361   7.103  21.227  0.00  0.00    +0.181 C 
ENDROOT
BRANCH   9   5
ATOM      5  N   UNL     1      19.751   5.254  20.336  0.00  0.00    -0.323 NA
ATOM     17  H   UNL     1      20.374   5.552  21.086  0.00  0.00    +0.119 HD
ATOM     18  H   UNL     1      20.341   5.048  19.531  0.00  0.00    +0.119 HD
ENDBRANCH   9   5
BRANCH   7   2
ATOM      2  O   UNL     1      17.601   5.515  18.060  0.00  0.00    -0.388 OA
ATOM     19  H   UNL     1      17.065   6.152  17.558  0.00  0.00    +0.210 HD
ENDBRANCH   7   2
BRANCH   8  11
ATOM     11  C   UNL     1      15.148   6.721  19.756  0.00  0.00    +0.141 C 
BRANCH  11   6
ATOM      4  O   UNL     1      12.282   6.723  19.281  0.00  0.00    -0.226 OA
ATOM      6  N   UNL     1      14.456   7.083  18.553  0.00  0.00    -0.279 N 
ATOM     13  C   UNL     1      13.079   7.055  18.411  0.00  0.00    +0.401 C 
ATOM     20  H   UNL     1      15.009   7.370  17.750  0.00  0.00    +0.152 HD
BRANCH  13   3
ATOM      3  O   UNL     1      12.731   7.454  17.151  0.00  0.00    -0.445 OA
BRANCH   3  12
ATOM     12  C   UNL     1      12.230   8.790  17.036  0.00  0.00    +0.107 C 
ATOM     14  C   UNL     1      12.899   9.459  15.835  0.00  0.00    +0.055 C 
ATOM     15  C   UNL     1      12.550   9.543  18.327  0.00  0.00    +0.055 C 
ATOM     16  C   UNL     1      10.719   8.700  16.827  0.00  0.00    +0.055 C 
ENDBRANCH   3  12
ENDBRANCH  13   3
ENDBRANCH  11   6
ENDBRANCH   8  11
TORSDOF 6
ENDMDL
MODEL 3
REMARK VINA RESULT:      -5.3     12.092     14.393
REMARK  Name = 75536846
REMARK  9 active torsions:
REMARK  status: ('A' for Active; 'I' for Inactive)
REMARK    1  A    between atoms: O_2  and  C_7
REMARK    2  A    between atoms: O_3  and  C_12
REMARK    3  A    between atoms: O_3  and  C_13
REMARK    4  A    between atoms: N_5  and  C_9
REMARK    5  A    between atoms: N_6  and  C_11
REMARK    6  A    between atoms: C_8  and  C_11
REMARK    7  A    between atoms: C_12  and  C_14
REMARK    8  A    between atoms: C_12  and  C_15
REMARK    9  A    between atoms: C_12  and  C_16
REMARK                            x       y       z     vdW  Elec       q    Type
REMARK                         _______ _______ _______ _____ _____    ______ ____
ROOT
ATOM      1  O   UNL     1     -12.197   9.111  13.365  0.00  0.00    -0.371 OA
ATOM      7  C   UNL     1     -10.382   7.804  14.136  0.00  0.00    +0.164 C 
ATOM      8  C   UNL     1     -11.802   8.258  14.452  0.00  0.00    +0.165 C 
ATOM      9  C   UNL     1     -10.440   7.695  12.624  0.00  0.00    +0.108 C 
ATOM     10  C   UNL     1     -11.293   8.902  12.267  0.00  0.00    +0.181 C 
ENDROOT
BRANCH   9   5
ATOM      5  N   UNL     1      -9.133   7.717  11.987  0.00  0.00    -0.323 NA
ATOM     17  H   UNL     1      -8.692   6.802  12.075  0.00  0.00    +0.119 HD
ATOM     18  H   UNL     1      -8.528   8.380  12.469  0.00  0.00    +0.119 HD
ENDBRANCH   9   5
BRANCH   7   2
ATOM      2  O   UNL     1     -10.069   6.575  14.761  0.00  0.00    -0.388 OA
ATOM     19  H   UNL     1     -10.902   6.119  14.970  0.00  0.00    +0.210 HD
ENDBRANCH   7   2
BRANCH   8  11
ATOM     11  C   UNL     1     -11.914   9.012  15.765  0.00  0.00    +0.141 C 
BRANCH  11   6
ATOM      4  O   UNL     1     -10.083   8.839  18.014  0.00  0.00    -0.226 OA
ATOM      6  N   UNL     1     -11.973   8.111  16.880  0.00  0.00    -0.279 N 
ATOM     13  C   UNL     1     -11.054   8.096  17.915  0.00  0.00    +0.401 C 
ATOM     20  H   UNL     1     -12.732   7.436  16.911  0.00  0.00    +0.152 HD
BRANCH  13   3
ATOM      3  O   UNL     1     -11.385   7.127  18.820  0.00  0.00    -0.445 OA
BRANCH   3  12
ATOM     12  C   UNL     1     -12.190   7.554  19.925  0.00  0.00    +0.107 C 
ATOM     14  C   UNL     1     -11.680   8.914  20.402  0.00  0.00    +0.055 C 
ATOM     15  C   UNL     1     -12.083   6.512  21.037  0.00  0.00    +0.055 C 
ATOM     16  C   UNL     1     -13.631   7.665  19.429  0.00  0.00    +0.055 C 
ENDBRANCH   3  12
ENDBRANCH  13   3
ENDBRANCH  11   6
ENDBRANCH   8  11
TORSDOF 6
ENDMDL
MODEL 4
REMARK VINA RESULT:      -5.2     16.810     18.808
REMARK  Name = 75536846
REMARK  9 active torsions:
REMARK  status: ('A' for Active; 'I' for Inactive)
REMARK    1  A    between atoms: O_2  and  C_7
REMARK    2  A    between atoms: O_3  and  C_12
REMARK    3  A    between atoms: O_3  and  C_13
REMARK    4  A    between atoms: N_5  and  C_9
REMARK    5  A    between atoms: N_6  and  C_11
REMARK    6  A    between atoms: C_8  and  C_11
REMARK    7  A    between atoms: C_12  and  C_14
REMARK    8  A    between atoms: C_12  and  C_15
REMARK    9  A    between atoms: C_12  and  C_16
REMARK                            x       y       z     vdW  Elec       q    Type
REMARK                         _______ _______ _______ _____ _____    ______ ____
ROOT
ATOM      1  O   UNL     1      11.663   8.576  22.316  0.00  0.00    -0.371 OA
ATOM      7  C   UNL     1      13.029   7.125  21.042  0.00  0.00    +0.164 C 
ATOM      8  C   UNL     1      13.041   8.290  22.023  0.00  0.00    +0.165 C 
ATOM      9  C   UNL     1      11.828   6.339  21.536  0.00  0.00    +0.108 C 
ATOM     10  C   UNL     1      10.864   7.457  21.896  0.00  0.00    +0.181 C 
ENDROOT
BRANCH   9   5
ATOM      5  N   UNL     1      11.286   5.420  20.549  0.00  0.00    -0.323 NA
ATOM     17  H   UNL     1      10.591   5.899  19.978  0.00  0.00    +0.119 HD
ATOM     18  H   UNL     1      10.801   4.657  21.019  0.00  0.00    +0.119 HD
ENDBRANCH   9   5
BRANCH   7   2
ATOM      2  O   UNL     1      14.229   6.378  21.093  0.00  0.00    -0.388 OA
ATOM     19  H   UNL     1      14.316   5.885  20.260  0.00  0.00    +0.210 HD
ENDBRANCH   7   2
BRANCH   8  11
ATOM     11  C   UNL     1      13.719   9.532  21.472  0.00  0.00    +0.141 C 
BRANCH  11   6
ATOM      4  O   UNL     1      13.001  11.238  19.234  0.00  0.00    -0.226 OA
ATOM      6  N   UNL     1      14.070   9.365  20.092  0.00  0.00    -0.279 N 
ATOM     13  C   UNL     1      13.683  10.231  19.083  0.00  0.00    +0.401 C 
ATOM     20  H   UNL     1      14.631   8.558  19.834  0.00  0.00    +0.152 HD
BRANCH  13   3
ATOM      3  O   UNL     1      14.175   9.800  17.883  0.00  0.00    -0.445 OA
BRANCH   3  12
ATOM     12  C   UNL     1      13.348   8.878  17.164  0.00  0.00    +0.107 C 
ATOM     14  C   UNL     1      14.070   7.533  17.089  0.00  0.00    +0.055 C 
ATOM     15  C   UNL     1      13.095   9.439  15.765  0.00  0.00    +0.055 C 
ATOM     16  C   UNL     1      12.035   8.741  17.934  0.00  0.00    +0.055 C 
ENDBRANCH   3  12
ENDBRANCH  13   3
ENDBRANCH  11   6
ENDBRANCH   8  11
TORSDOF 6
ENDMDL
MODEL 5
REMARK VINA RESULT:      -5.1     17.831     19.692
REMARK  Name = 75536846
REMARK  9 active torsions:
REMARK  status: ('A' for Active; 'I' for Inactive)
REMARK    1  A    between atoms: O_2  and  C_7
REMARK    2  A    between atoms: O_3  and  C_12
REMARK    3  A    between atoms: O_3  and  C_13
REMARK    4  A    between atoms: N_5  and  C_9
REMARK    5  A    between atoms: N_6  and  C_11
REMARK    6  A    between atoms: C_8  and  C_11
REMARK    7  A    between atoms: C_12  and  C_14
REMARK    8  A    between atoms: C_12  and  C_15
REMARK    9  A    between atoms: C_12  and  C_16
REMARK                            x       y       z     vdW  Elec       q    Type
REMARK                         _______ _______ _______ _____ _____    ______ ____
ROOT
ATOM      1  O   UNL     1      14.871  11.135  17.343  0.00  0.00    -0.371 OA
ATOM      7  C   UNL     1      14.309   9.457  15.773  0.00  0.00    +0.164 C 
ATOM      8  C   UNL     1      13.989  10.016  17.154  0.00  0.00    +0.165 C 
ATOM      9  C   UNL     1      14.645  10.727  15.014  0.00  0.00    +0.108 C 
ATOM     10  C   UNL     1      15.412  11.512  16.066  0.00  0.00    +0.181 C 
ENDROOT
BRANCH   9   5
ATOM      5  N   UNL     1      15.417  10.497  13.804  0.00  0.00    -0.323 NA
ATOM     17  H   UNL     1      14.839  10.685  12.986  0.00  0.00    +0.119 HD
ATOM     18  H   UNL     1      15.687   9.516  13.751  0.00  0.00    +0.119 HD
ENDBRANCH   9   5
BRANCH   7   2
ATOM      2  O   UNL     1      13.210   8.763  15.216  0.00  0.00    -0.388 OA
ATOM     19  H   UNL     1      12.411   9.298  15.354  0.00  0.00    +0.210 HD
ENDBRANCH   7   2
BRANCH   8  11
ATOM     11  C   UNL     1      14.189   9.008  18.271  0.00  0.00    +0.141 C 
BRANCH  11   6
ATOM      4  O   UNL     1      12.428   6.722  18.607  0.00  0.00    -0.226 OA
ATOM      6  N   UNL     1      13.023   8.911  19.100  0.00  0.00    -0.279 N 
ATOM     13  C   UNL     1      12.235   7.776  19.203  0.00  0.00    +0.401 C 
ATOM     20  H   UNL     1      12.751   9.726  19.642  0.00  0.00    +0.152 HD
BRANCH  13   3
ATOM      3  O   UNL     1      11.203   8.000  20.070  0.00  0.00    -0.445 OA
BRANCH   3  12
ATOM     12  C   UNL     1      11.432   7.607  21.428  0.00  0.00    +0.107 C 
ATOM     14  C   UNL     1      11.017   6.144  21.587  0.00  0.00    +0.055 C 
ATOM     15  C   UNL     1      10.606   8.510  22.342  0.00  0.00    +0.055 C 
ATOM     16  C   UNL     1      12.924   7.776  21.710  0.00  0.00    +0.055 C 
ENDBRANCH   3  12
ENDBRANCH  13   3
ENDBRANCH  11   6
ENDBRANCH   8  11
TORSDOF 6
ENDMDL
MODEL 6
REMARK VINA RESULT:      -5.1     17.496     19.285
REMARK  Name = 75536846
REMARK  9 active torsions:
REMARK  status: ('A' for Active; 'I' for Inactive)
REMARK    1  A    between atoms: O_2  and  C_7
REMARK    2  A    between atoms: O_3  and  C_12
REMARK    3  A    between atoms: O_3  and  C_13
REMARK    4  A    between atoms: N_5  and  C_9
REMARK    5  A    between atoms: N_6  and  C_11
REMARK    6  A    between atoms: C_8  and  C_11
REMARK    7  A    between atoms: C_12  and  C_14
REMARK    8  A    between atoms: C_12  and  C_15
REMARK    9  A    between atoms: C_12  and  C_16
REMARK                            x       y       z     vdW  Elec       q    Type
REMARK                         _______ _______ _______ _____ _____    ______ ____
ROOT
ATOM      1  O   UNL     1      11.477   6.407  20.313  0.00  0.00    -0.371 OA
ATOM      7  C   UNL     1      12.219   8.631  20.634  0.00  0.00    +0.164 C 
ATOM      8  C   UNL     1      11.924   7.564  19.587  0.00  0.00    +0.165 C 
ATOM      9  C   UNL     1      11.146   8.332  21.665  0.00  0.00    +0.108 C 
ATOM     10  C   UNL     1      11.125   6.813  21.647  0.00  0.00    +0.181 C 
ENDROOT
BRANCH   9   5
ATOM      5  N   UNL     1      11.433   8.880  22.981  0.00  0.00    -0.323 NA
ATOM     17  H   UNL     1      11.744   8.135  23.603  0.00  0.00    +0.119 HD
ATOM     18  H   UNL     1      10.580   9.262  23.387  0.00  0.00    +0.119 HD
ENDBRANCH   9   5
BRANCH   7   2
ATOM      2  O   UNL     1      12.117   9.937  20.101  0.00  0.00    -0.388 OA
ATOM     19  H   UNL     1      12.149   9.873  19.132  0.00  0.00    +0.210 HD
ENDBRANCH   7   2
BRANCH   8  11
ATOM     11  C   UNL     1      13.131   7.205  18.740  0.00  0.00    +0.141 C 
BRANCH  11   6
ATOM      4  O   UNL     1      15.826   6.132  18.575  0.00  0.00    -0.226 OA
ATOM      6  N   UNL     1      14.335   7.764  19.283  0.00  0.00    -0.279 N 
ATOM     13  C   UNL     1      15.586   7.184  19.158  0.00  0.00    +0.401 C 
ATOM     20  H   UNL     1      14.268   8.636  19.800  0.00  0.00    +0.152 HD
BRANCH  13   3
ATOM      3  O   UNL     1      16.525   7.956  19.782  0.00  0.00    -0.445 OA
BRANCH   3  12
ATOM     12  C   UNL     1      17.275   7.312  20.818  0.00  0.00    +0.107 C 
ATOM     14  C   UNL     1      17.952   8.387  21.668  0.00  0.00    +0.055 C 
ATOM     15  C   UNL     1      18.312   6.396  20.169  0.00  0.00    +0.055 C 
ATOM     16  C   UNL     1      16.293   6.500  21.661  0.00  0.00    +0.055 C 
ENDBRANCH   3  12
ENDBRANCH  13   3
ENDBRANCH  11   6
ENDBRANCH   8  11
TORSDOF 6
ENDMDL
MODEL 7
REMARK VINA RESULT:      -5.0     16.315     18.641
REMARK  Name = 75536846
REMARK  9 active torsions:
REMARK  status: ('A' for Active; 'I' for Inactive)
REMARK    1  A    between atoms: O_2  and  C_7
REMARK    2  A    between atoms: O_3  and  C_12
REMARK    3  A    between atoms: O_3  and  C_13
REMARK    4  A    between atoms: N_5  and  C_9
REMARK    5  A    between atoms: N_6  and  C_11
REMARK    6  A    between atoms: C_8  and  C_11
REMARK    7  A    between atoms: C_12  and  C_14
REMARK    8  A    between atoms: C_12  and  C_15
REMARK    9  A    between atoms: C_12  and  C_16
REMARK                            x       y       z     vdW  Elec       q    Type
REMARK                         _______ _______ _______ _____ _____    ______ ____
ROOT
ATOM      1  O   UNL     1      12.768   9.711  21.989  0.00  0.00    -0.371 OA
ATOM      7  C   UNL     1      11.355   7.829  21.744  0.00  0.00    +0.164 C 
ATOM      8  C   UNL     1      11.387   9.351  21.811  0.00  0.00    +0.165 C 
ATOM      9  C   UNL     1      12.663   7.540  21.031  0.00  0.00    +0.108 C 
ATOM     10  C   UNL     1      13.583   8.574  21.659  0.00  0.00    +0.181 C 
ENDROOT
BRANCH   9   5
ATOM      5  N   UNL     1      13.136   6.177  21.211  0.00  0.00    -0.323 NA
ATOM     17  H   UNL     1      12.715   5.774  22.047  0.00  0.00    +0.119 HD
ATOM     18  H   UNL     1      14.144   6.181  21.364  0.00  0.00    +0.119 HD
ENDBRANCH   9   5
BRANCH   7   2
ATOM      2  O   UNL     1      10.229   7.355  21.033  0.00  0.00    -0.388 OA
ATOM     19  H   UNL     1       9.580   8.077  20.974  0.00  0.00    +0.210 HD
ENDBRANCH   7   2
BRANCH   8  11
ATOM     11  C   UNL     1      10.556   9.920  22.947  0.00  0.00    +0.141 C 
BRANCH  11   6
ATOM      4  O   UNL     1      10.218  12.294  24.587  0.00  0.00    -0.226 OA
ATOM      6  N   UNL     1      11.387  10.368  24.027  0.00  0.00    -0.279 N 
ATOM     13  C   UNL     1      11.153  11.519  24.761  0.00  0.00    +0.401 C 
ATOM     20  H   UNL     1      12.204   9.813  24.266  0.00  0.00    +0.152 HD
BRANCH  13   3
ATOM      3  O   UNL     1      12.119  11.669  25.715  0.00  0.00    -0.445 OA
BRANCH   3  12
ATOM     12  C   UNL     1      13.076  12.707  25.476  0.00  0.00    +0.107 C 
ATOM     14  C   UNL     1      12.574  13.993  26.132  0.00  0.00    +0.055 C 
ATOM     15  C   UNL     1      13.228  12.890  23.966  0.00  0.00    +0.055 C 
ATOM     16  C   UNL     1      14.399  12.266  26.100  0.00  0.00    +0.055 C 
ENDBRANCH   3  12
ENDBRANCH  13   3
ENDBRANCH  11   6
ENDBRANCH   8  11
TORSDOF 6
ENDMDL
MODEL 8
REMARK VINA RESULT:      -5.0     12.579     14.070
REMARK  Name = 75536846
REMARK  9 active torsions:
REMARK  status: ('A' for Active; 'I' for Inactive)
REMARK    1  A    between atoms: O_2  and  C_7
REMARK    2  A    between atoms: O_3  and  C_12
REMARK    3  A    between atoms: O_3  and  C_13
REMARK    4  A    between atoms: N_5  and  C_9
REMARK    5  A    between atoms: N_6  and  C_11
REMARK    6  A    between atoms: C_8  and  C_11
REMARK    7  A    between atoms: C_12  and  C_14
REMARK    8  A    between atoms: C_12  and  C_15
REMARK    9  A    between atoms: C_12  and  C_16
REMARK                            x       y       z     vdW  Elec       q    Type
REMARK                         _______ _______ _______ _____ _____    ______ ____
ROOT
ATOM      1  O   UNL     1     -15.855   0.166  29.188  0.00  0.00    -0.371 OA
ATOM      7  C   UNL     1     -15.411   2.483  29.363  0.00  0.00    +0.164 C 
ATOM      8  C   UNL     1     -14.773   1.100  29.342  0.00  0.00    +0.165 C 
ATOM      9  C   UNL     1     -16.561   2.289  28.391  0.00  0.00    +0.108 C 
ATOM     10  C   UNL     1     -17.018   0.883  28.743  0.00  0.00    +0.181 C 
ENDROOT
BRANCH   9   5
ATOM      5  N   UNL     1     -17.615   3.280  28.531  0.00  0.00    -0.323 NA
ATOM     17  H   UNL     1     -17.226   4.147  28.899  0.00  0.00    +0.119 HD
ATOM     18  H   UNL     1     -18.302   2.957  29.211  0.00  0.00    +0.119 HD
ENDBRANCH   9   5
BRANCH   7   2
ATOM      2  O   UNL     1     -14.508   3.488  28.948  0.00  0.00    -0.388 OA
ATOM     19  H   UNL     1     -13.843   3.079  28.368  0.00  0.00    +0.210 HD
ENDBRANCH   7   2
BRANCH   8  11
ATOM     11  C   UNL     1     -13.992   0.779  30.604  0.00  0.00    +0.141 C 
BRANCH  11   6
ATOM      4  O   UNL     1     -14.514   1.511  33.366  0.00  0.00    -0.226 OA
ATOM      6  N   UNL     1     -13.592   1.975  31.287  0.00  0.00    -0.279 N 
ATOM     13  C   UNL     1     -13.884   2.246  32.613  0.00  0.00    +0.401 C 
ATOM     20  H   UNL     1     -13.067   2.672  30.767  0.00  0.00    +0.152 HD
BRANCH  13   3
ATOM      3  O   UNL     1     -13.366   3.460  32.968  0.00  0.00    -0.445 OA
BRANCH   3  12
ATOM     12  C   UNL     1     -14.322   4.473  33.299  0.00  0.00    +0.107 C 
ATOM     14  C   UNL     1     -14.398   4.590  34.822  0.00  0.00    +0.055 C 
ATOM     15  C   UNL     1     -15.677   4.074  32.715  0.00  0.00    +0.055 C 
ATOM     16  C   UNL     1     -13.836   5.784  32.683  0.00  0.00    +0.055 C 
ENDBRANCH   3  12
ENDBRANCH  13   3
ENDBRANCH  11   6
ENDBRANCH   8  11
TORSDOF 6
ENDMDL
MODEL 9
REMARK VINA RESULT:      -4.9     16.589     18.282
REMARK  Name = 75536846
REMARK  9 active torsions:
REMARK  status: ('A' for Active; 'I' for Inactive)
REMARK    1  A    between atoms: O_2  and  C_7
REMARK    2  A    between atoms: O_3  and  C_12
REMARK    3  A    between atoms: O_3  and  C_13
REMARK    4  A    between atoms: N_5  and  C_9
REMARK    5  A    between atoms: N_6  and  C_11
REMARK    6  A    between atoms: C_8  and  C_11
REMARK    7  A    between atoms: C_12  and  C_14
REMARK    8  A    between atoms: C_12  and  C_15
REMARK    9  A    between atoms: C_12  and  C_16
REMARK                            x       y       z     vdW  Elec       q    Type
REMARK                         _______ _______ _______ _____ _____    ______ ____
ROOT
ATOM      1  O   UNL     1      11.765   9.189  19.571  0.00  0.00    -0.371 OA
ATOM      7  C   UNL     1      11.771   8.437  21.814  0.00  0.00    +0.164 C 
ATOM      8  C   UNL     1      11.322   9.560  20.887  0.00  0.00    +0.165 C 
ATOM      9  C   UNL     1      11.618   7.230  20.907  0.00  0.00    +0.108 C 
ATOM     10  C   UNL     1      12.098   7.790  19.578  0.00  0.00    +0.181 C 
ENDROOT
BRANCH   9   5
ATOM      5  N   UNL     1      12.382   6.073  21.343  0.00  0.00    -0.323 NA
ATOM     17  H   UNL     1      12.749   6.235  22.280  0.00  0.00    +0.119 HD
ATOM     18  H   UNL     1      13.188   5.943  20.732  0.00  0.00    +0.119 HD
ENDBRANCH   9   5
BRANCH   7   2
ATOM      2  O   UNL     1      10.966   8.355  22.973  0.00  0.00    -0.388 OA
ATOM     19  H   UNL     1      10.736   7.422  23.119  0.00  0.00    +0.210 HD
ENDBRANCH   7   2
BRANCH   8  11
ATOM     11  C   UNL     1      11.897  10.914  21.261  0.00  0.00    +0.141 C 
BRANCH  11   6
ATOM      4  O   UNL     1      12.131  11.236  24.138  0.00  0.00    -0.226 OA
ATOM      6  N   UNL     1      11.018  11.629  22.140  0.00  0.00    -0.279 N 
ATOM     13  C   UNL     1      11.205  11.734  23.508  0.00  0.00    +0.401 C 
ATOM     20  H   UNL     1      10.203  12.083  21.738  0.00  0.00    +0.152 HD
BRANCH  13   3
ATOM      3  O   UNL     1      10.200  12.477  24.061  0.00  0.00    -0.445 OA
BRANCH   3  12
ATOM     12  C   UNL     1      10.543  13.821  24.419  0.00  0.00    +0.107 C 
ATOM     14  C   UNL     1      11.924  14.139  23.847  0.00  0.00    +0.055 C 
ATOM     15  C   UNL     1      10.546  13.933  25.943  0.00  0.00    +0.055 C 
ATOM     16  C   UNL     1       9.485  14.742  23.814  0.00  0.00    +0.055 C 
ENDBRANCH   3  12
ENDBRANCH  13   3
ENDBRANCH  11   6
ENDBRANCH   8  11
TORSDOF 6
ENDMDL
MODEL 10
REMARK VINA RESULT:      -4.9     26.622     28.364
REMARK  Name = 75536846
REMARK  9 active torsions:
REMARK  status: ('A' for Active; 'I' for Inactive)
REMARK    1  A    between atoms: O_2  and  C_7
REMARK    2  A    between atoms: O_3  and  C_12
REMARK    3  A    between atoms: O_3  and  C_13
REMARK    4  A    between atoms: N_5  and  C_9
REMARK    5  A    between atoms: N_6  and  C_11
REMARK    6  A    between atoms: C_8  and  C_11
REMARK    7  A    between atoms: C_12  and  C_14
REMARK    8  A    between atoms: C_12  and  C_15
REMARK    9  A    between atoms: C_12  and  C_16
REMARK                            x       y       z     vdW  Elec       q    Type
REMARK                         _______ _______ _______ _____ _____    ______ ____
ROOT
ATOM      1  O   UNL     1      13.319   3.764  -0.500  0.00  0.00    -0.371 OA
ATOM      7  C   UNL     1      14.750   3.977   1.371  0.00  0.00    +0.164 C 
ATOM      8  C   UNL     1      13.579   3.192   0.792  0.00  0.00    +0.165 C 
ATOM      9  C   UNL     1      15.557   4.264   0.118  0.00  0.00    +0.108 C 
ATOM     10  C   UNL     1      14.456   4.553  -0.889  0.00  0.00    +0.181 C 
ENDROOT
BRANCH   9   5
ATOM      5  N   UNL     1      16.492   5.367   0.267  0.00  0.00    -0.323 NA
ATOM     17  H   UNL     1      15.998   6.253   0.169  0.00  0.00    +0.119 HD
ATOM     18  H   UNL     1      17.184   5.334  -0.480  0.00  0.00    +0.119 HD
ENDBRANCH   9   5
BRANCH   7   2
ATOM      2  O   UNL     1      15.472   3.221   2.324  0.00  0.00    -0.388 OA
ATOM     19  H   UNL     1      15.669   3.797   3.082  0.00  0.00    +0.210 HD
ENDBRANCH   7   2
BRANCH   8  11
ATOM     11  C   UNL     1      12.327   3.263   1.648  0.00  0.00    +0.141 C 
BRANCH  11   6
ATOM      4  O   UNL     1      10.402   5.416   1.958  0.00  0.00    -0.226 OA
ATOM      6  N   UNL     1      12.383   4.367   2.562  0.00  0.00    -0.279 N 
ATOM     13  C   UNL     1      11.416   5.355   2.645  0.00  0.00    +0.401 C 
ATOM     20  H   UNL     1      13.183   4.436   3.184  0.00  0.00    +0.152 HD
BRANCH  13   3
ATOM      3  O   UNL     1      11.756   6.263   3.609  0.00  0.00    -0.445 OA
BRANCH   3  12
ATOM     12  C   UNL     1      10.931   6.268   4.779  0.00  0.00    +0.107 C 
ATOM     14  C   UNL     1      11.803   6.609   5.987  0.00  0.00    +0.055 C 
ATOM     15  C   UNL     1      10.300   4.885   4.936  0.00  0.00    +0.055 C 
ATOM     16  C   UNL     1       9.852   7.331   4.577  0.00  0.00    +0.055 C 
ENDBRANCH   3  12
ENDBRANCH  13   3
ENDBRANCH  11   6
ENDBRANCH   8  11
TORSDOF 6
ENDMDL
