MODEL 1
REMARK VINA RESULT:      -7.8      0.000      0.000
REMARK  Name = 26744389
REMARK  5 active torsions:
REMARK  status: ('A' for Active; 'I' for Inactive)
REMARK    1  A    between atoms: O_2  and  C_10
REMARK    2  A    between atoms: N_4  and  C_12
REMARK    3  A    between atoms: C_8  and  C_13
REMARK    4  A    between atoms: C_12  and  C_14
REMARK    5  A    between atoms: C_18  and  C_22
REMARK                            x       y       z     vdW  Elec       q    Type
REMARK                         _______ _______ _______ _____ _____    ______ ____
ROOT
ATOM      4  N   UNL     1      12.355   8.645  19.854  0.00  0.00    -0.285 NA
ATOM      8  C   UNL     1      13.139   8.292  21.053  0.00  0.00    +0.149 C 
ATOM      9  C   UNL     1      12.214   7.371  21.872  0.00  0.00    +0.061 C 
ATOM     10  C   UNL     1      10.918   7.305  21.074  0.00  0.00    +0.130 C 
ATOM     11  C   UNL     1      10.948   8.573  20.243  0.00  0.00    +0.116 C 
ENDROOT
BRANCH   8  13
ATOM      3  O   UNL     1      14.432   6.668  19.762  0.00  0.00    -0.336 OA
ATOM      5  N   UNL     1      15.652   7.868  21.207  0.00  0.00    -0.190 NA
ATOM      7  N   UNL     1      15.752   6.220  19.623  0.00  0.00    -0.056 NA
ATOM     13  C   UNL     1      14.462   7.638  20.713  0.00  0.00    +0.245 A 
ATOM     18  C   UNL     1      16.410   6.974  20.509  0.00  0.00    +0.202 A 
BRANCH  18  22
ATOM      1  F   UNL     1      21.898   6.536  21.317  0.00  0.00    -0.205 F 
ATOM     22  C   UNL     1      17.825   6.861  20.717  0.00  0.00    +0.023 A 
ATOM     24  C   UNL     1      18.494   7.809  21.492  0.00  0.00    +0.014 A 
ATOM     25  C   UNL     1      18.532   5.804  20.145  0.00  0.00    +0.014 A 
ATOM     26  C   UNL     1      19.870   7.698  21.694  0.00  0.00    +0.039 A 
ATOM     27  C   UNL     1      19.908   5.693  20.348  0.00  0.00    +0.039 A 
ATOM     28  C   UNL     1      20.577   6.641  21.122  0.00  0.00    +0.123 A 
ENDBRANCH  18  22
ENDBRANCH   8  13
BRANCH  10   2
ATOM      2  O   UNL     1       9.799   7.268  21.937  0.00  0.00    -0.390 OA
ATOM     29  H   UNL     1      10.011   7.812  22.715  0.00  0.00    +0.210 HD
ENDBRANCH  10   2
BRANCH   4  12
ATOM     12  C   UNL     1      12.705   9.948  19.302  0.00  0.00    +0.122 C 
BRANCH  12  14
ATOM      6  N   UNL     1      13.219   9.222  15.731  0.00  0.00    -0.360 N 
ATOM     14  C   UNL     1      13.120   9.852  17.858  0.00  0.00    -0.008 A 
ATOM     15  C   UNL     1      14.139  10.610  17.217  0.00  0.00    +0.004 A 
ATOM     16  C   UNL     1      12.573   9.007  16.919  0.00  0.00    +0.088 A 
ATOM     17  C   UNL     1      14.182  10.194  15.884  0.00  0.00    +0.047 A 
ATOM     19  C   UNL     1      15.034  11.611  17.644  0.00  0.00    +0.010 A 
ATOM     20  C   UNL     1      15.076  10.734  14.953  0.00  0.00    +0.026 A 
ATOM     21  C   UNL     1      15.934  12.160  16.724  0.00  0.00    +0.001 A 
ATOM     23  C   UNL     1      15.954  11.727  15.400  0.00  0.00    +0.002 A 
ATOM     30  H   UNL     1      13.020   8.737  14.868  0.00  0.00    +0.165 HD
ENDBRANCH  12  14
ENDBRANCH   4  12
TORSDOF 5
ENDMDL
MODEL 2
REMARK VINA RESULT:      -7.8      2.535      4.700
REMARK  Name = 26744389
REMARK  5 active torsions:
REMARK  status: ('A' for Active; 'I' for Inactive)
REMARK    1  A    between atoms: O_2  and  C_10
REMARK    2  A    between atoms: N_4  and  C_12
REMARK    3  A    between atoms: C_8  and  C_13
REMARK    4  A    between atoms: C_12  and  C_14
REMARK    5  A    between atoms: C_18  and  C_22
REMARK                            x       y       z     vdW  Elec       q    Type
REMARK                         _______ _______ _______ _____ _____    ______ ____
ROOT
ATOM      4  N   UNL     1      13.463   7.678  19.556  0.00  0.00    -0.285 NA
ATOM      8  C   UNL     1      14.555   6.948  18.884  0.00  0.00    +0.149 C 
ATOM      9  C   UNL     1      14.582   7.510  17.450  0.00  0.00    +0.061 C 
ATOM     10  C   UNL     1      13.439   8.516  17.401  0.00  0.00    +0.130 C 
ATOM     11  C   UNL     1      12.514   8.058  18.511  0.00  0.00    +0.116 C 
ENDROOT
BRANCH   8  13
ATOM      3  O   UNL     1      16.158   8.327  20.109  0.00  0.00    -0.336 OA
ATOM      5  N   UNL     1      16.825   6.213  19.794  0.00  0.00    -0.190 NA
ATOM      7  N   UNL     1      17.421   8.224  20.708  0.00  0.00    -0.056 NA
ATOM     13  C   UNL     1      15.884   7.100  19.596  0.00  0.00    +0.245 A 
ATOM     18  C   UNL     1      17.747   6.948  20.479  0.00  0.00    +0.202 A 
BRANCH  18  22
ATOM      1  F   UNL     1      22.551   4.734  22.207  0.00  0.00    -0.205 F 
ATOM     22  C   UNL     1      18.986   6.377  20.925  0.00  0.00    +0.023 A 
ATOM     24  C   UNL     1      19.591   5.361  20.186  0.00  0.00    +0.014 A 
ATOM     25  C   UNL     1      19.584   6.838  22.097  0.00  0.00    +0.014 A 
ATOM     26  C   UNL     1      20.796   4.806  20.620  0.00  0.00    +0.039 A 
ATOM     27  C   UNL     1      20.789   6.284  22.531  0.00  0.00    +0.039 A 
ATOM     28  C   UNL     1      21.394   5.267  21.792  0.00  0.00    +0.123 A 
ENDBRANCH  18  22
ENDBRANCH   8  13
BRANCH  10   2
ATOM      2  O   UNL     1      12.800   8.488  16.139  0.00  0.00    -0.390 OA
ATOM     29  H   UNL     1      13.364   7.973  15.537  0.00  0.00    +0.210 HD
ENDBRANCH  10   2
BRANCH   4  12
ATOM     12  C   UNL     1      12.829   6.911  20.620  0.00  0.00    +0.122 C 
BRANCH  12  14
ATOM      6  N   UNL     1      10.031   8.468  22.435  0.00  0.00    -0.360 N 
ATOM     14  C   UNL     1      11.875   7.753  21.426  0.00  0.00    -0.008 A 
ATOM     15  C   UNL     1      12.172   8.986  22.073  0.00  0.00    +0.004 A 
ATOM     16  C   UNL     1      10.552   7.462  21.667  0.00  0.00    +0.088 A 
ATOM     17  C   UNL     1      10.998   9.413  22.698  0.00  0.00    +0.047 A 
ATOM     19  C   UNL     1      13.329   9.781  22.187  0.00  0.00    +0.010 A 
ATOM     20  C   UNL     1      10.924  10.600  23.435  0.00  0.00    +0.026 A 
ATOM     21  C   UNL     1      13.270  10.971  22.921  0.00  0.00    +0.001 A 
ATOM     23  C   UNL     1      12.085  11.373  23.534  0.00  0.00    +0.002 A 
ATOM     30  H   UNL     1       9.077   8.512  22.762  0.00  0.00    +0.165 HD
ENDBRANCH  12  14
ENDBRANCH   4  12
TORSDOF 5
ENDMDL
MODEL 3
REMARK VINA RESULT:      -7.5      2.509      4.743
REMARK  Name = 26744389
REMARK  5 active torsions:
REMARK  status: ('A' for Active; 'I' for Inactive)
REMARK    1  A    between atoms: O_2  and  C_10
REMARK    2  A    between atoms: N_4  and  C_12
REMARK    3  A    between atoms: C_8  and  C_13
REMARK    4  A    between atoms: C_12  and  C_14
REMARK    5  A    between atoms: C_18  and  C_22
REMARK                            x       y       z     vdW  Elec       q    Type
REMARK                         _______ _______ _______ _____ _____    ______ ____
ROOT
ATOM      4  N   UNL     1      13.718   8.746  19.471  0.00  0.00    -0.285 NA
ATOM      8  C   UNL     1      14.012   7.575  18.622  0.00  0.00    +0.149 C 
ATOM      9  C   UNL     1      13.918   8.101  17.177  0.00  0.00    +0.061 C 
ATOM     10  C   UNL     1      13.521   9.565  17.317  0.00  0.00    +0.130 C 
ATOM     11  C   UNL     1      12.858   9.625  18.680  0.00  0.00    +0.116 C 
ENDROOT
BRANCH   8  13
ATOM      3  O   UNL     1      15.764   5.949  18.111  0.00  0.00    -0.336 OA
ATOM      5  N   UNL     1      16.205   7.241  19.886  0.00  0.00    -0.190 NA
ATOM      7  N   UNL     1      17.016   5.539  18.589  0.00  0.00    -0.056 NA
ATOM     13  C   UNL     1      15.358   6.953  18.930  0.00  0.00    +0.245 A 
ATOM     18  C   UNL     1      17.205   6.348  19.636  0.00  0.00    +0.202 A 
BRANCH  18  22
ATOM      1  F   UNL     1      21.779   6.124  22.797  0.00  0.00    -0.205 F 
ATOM     22  C   UNL     1      18.385   6.290  20.451  0.00  0.00    +0.023 A 
ATOM     24  C   UNL     1      19.426   5.426  20.111  0.00  0.00    +0.014 A 
ATOM     25  C   UNL     1      18.490   7.097  21.583  0.00  0.00    +0.014 A 
ATOM     26  C   UNL     1      20.572   5.371  20.904  0.00  0.00    +0.039 A 
ATOM     27  C   UNL     1      19.637   7.042  22.376  0.00  0.00    +0.039 A 
ATOM     28  C   UNL     1      20.678   6.178  22.036  0.00  0.00    +0.123 A 
ENDBRANCH  18  22
ENDBRANCH   8  13
BRANCH  10   2
ATOM      2  O   UNL     1      12.632   9.946  16.284  0.00  0.00    -0.390 OA
ATOM     29  H   UNL     1      13.031   9.673  15.440  0.00  0.00    +0.210 HD
ENDBRANCH  10   2
BRANCH   4  12
ATOM     12  C   UNL     1      13.112   8.392  20.748  0.00  0.00    +0.122 C 
BRANCH  12  14
ATOM      6  N   UNL     1      14.668  10.328  23.464  0.00  0.00    -0.360 N 
ATOM     14  C   UNL     1      13.513   9.346  21.841  0.00  0.00    -0.008 A 
ATOM     15  C   UNL     1      12.764  10.464  22.306  0.00  0.00    +0.004 A 
ATOM     16  C   UNL     1      14.678   9.289  22.572  0.00  0.00    +0.088 A 
ATOM     17  C   UNL     1      13.511  11.062  23.325  0.00  0.00    +0.047 A 
ATOM     19  C   UNL     1      11.519  11.025  21.959  0.00  0.00    +0.010 A 
ATOM     20  C   UNL     1      13.073  12.198  24.014  0.00  0.00    +0.026 A 
ATOM     21  C   UNL     1      11.069  12.162  22.640  0.00  0.00    +0.001 A 
ATOM     23  C   UNL     1      11.835  12.738  23.652  0.00  0.00    +0.002 A 
ATOM     30  H   UNL     1      15.402  10.528  24.127  0.00  0.00    +0.165 HD
ENDBRANCH  12  14
ENDBRANCH   4  12
TORSDOF 5
ENDMDL
MODEL 4
REMARK VINA RESULT:      -7.4     26.330     28.920
REMARK  Name = 26744389
REMARK  5 active torsions:
REMARK  status: ('A' for Active; 'I' for Inactive)
REMARK    1  A    between atoms: O_2  and  C_10
REMARK    2  A    between atoms: N_4  and  C_12
REMARK    3  A    between atoms: C_8  and  C_13
REMARK    4  A    between atoms: C_12  and  C_14
REMARK    5  A    between atoms: C_18  and  C_22
REMARK                            x       y       z     vdW  Elec       q    Type
REMARK                         _______ _______ _______ _____ _____    ______ ____
ROOT
ATOM      4  N   UNL     1      -3.756 -10.717  14.992  0.00  0.00    -0.285 NA
ATOM      8  C   UNL     1      -3.816 -11.419  16.290  0.00  0.00    +0.149 C 
ATOM      9  C   UNL     1      -2.465 -11.117  16.964  0.00  0.00    +0.061 C 
ATOM     10  C   UNL     1      -1.697 -10.278  15.950  0.00  0.00    +0.130 C 
ATOM     11  C   UNL     1      -2.343 -10.642  14.627  0.00  0.00    +0.116 C 
ENDROOT
BRANCH   8  13
ATOM      3  O   UNL     1      -4.773 -10.842  18.464  0.00  0.00    -0.336 OA
ATOM      5  N   UNL     1      -6.229 -10.732  16.766  0.00  0.00    -0.190 NA
ATOM      7  N   UNL     1      -5.995 -10.446  19.024  0.00  0.00    -0.056 NA
ATOM     13  C   UNL     1      -4.999 -10.988  17.132  0.00  0.00    +0.245 A 
ATOM     18  C   UNL     1      -6.802 -10.405  17.960  0.00  0.00    +0.202 A 
BRANCH  18  22
ATOM      1  F   UNL     1     -12.168  -8.980  18.331  0.00  0.00    -0.205 F 
ATOM     22  C   UNL     1      -8.186 -10.038  18.056  0.00  0.00    +0.023 A 
ATOM     24  C   UNL     1      -9.043 -10.760  18.885  0.00  0.00    +0.014 A 
ATOM     25  C   UNL     1      -8.673  -8.958  17.319  0.00  0.00    +0.014 A 
ATOM     26  C   UNL     1     -10.388 -10.402  18.978  0.00  0.00    +0.039 A 
ATOM     27  C   UNL     1     -10.019  -8.601  17.412  0.00  0.00    +0.039 A 
ATOM     28  C   UNL     1     -10.876  -9.323  18.242  0.00  0.00    +0.123 A 
ENDBRANCH  18  22
ENDBRANCH   8  13
BRANCH  10   2
ATOM      2  O   UNL     1      -0.321 -10.602  15.970  0.00  0.00    -0.390 OA
ATOM     29  H   UNL     1      -0.234 -11.527  15.684  0.00  0.00    +0.210 HD
ENDBRANCH  10   2
BRANCH   4  12
ATOM     12  C   UNL     1      -4.557 -11.355  13.956  0.00  0.00    +0.122 C 
BRANCH  12  14
ATOM      6  N   UNL     1      -6.654  -8.858  12.250  0.00  0.00    -0.360 N 
ATOM     14  C   UNL     1      -5.214 -10.345  13.053  0.00  0.00    -0.008 A 
ATOM     15  C   UNL     1      -4.731  -9.896  11.792  0.00  0.00    +0.004 A 
ATOM     16  C   UNL     1      -6.397  -9.689  13.307  0.00  0.00    +0.088 A 
ATOM     17  C   UNL     1      -5.654  -8.964  11.309  0.00  0.00    +0.047 A 
ATOM     19  C   UNL     1      -3.596 -10.193  11.012  0.00  0.00    +0.010 A 
ATOM     20  C   UNL     1      -5.495  -8.312  10.082  0.00  0.00    +0.026 A 
ATOM     21  C   UNL     1      -3.425  -9.549   9.782  0.00  0.00    +0.001 A 
ATOM     23  C   UNL     1      -4.361  -8.623   9.325  0.00  0.00    +0.002 A 
ATOM     30  H   UNL     1      -7.459  -8.254  12.171  0.00  0.00    +0.165 HD
ENDBRANCH  12  14
ENDBRANCH   4  12
TORSDOF 5
ENDMDL
MODEL 5
REMARK VINA RESULT:      -7.1      3.691      6.720
REMARK  Name = 26744389
REMARK  5 active torsions:
REMARK  status: ('A' for Active; 'I' for Inactive)
REMARK    1  A    between atoms: O_2  and  C_10
REMARK    2  A    between atoms: N_4  and  C_12
REMARK    3  A    between atoms: C_8  and  C_13
REMARK    4  A    between atoms: C_12  and  C_14
REMARK    5  A    between atoms: C_18  and  C_22
REMARK                            x       y       z     vdW  Elec       q    Type
REMARK                         _______ _______ _______ _____ _____    ______ ____
ROOT
ATOM      4  N   UNL     1      16.765   6.856  19.778  0.00  0.00    -0.285 NA
ATOM      8  C   UNL     1      16.901   7.105  21.226  0.00  0.00    +0.149 C 
ATOM      9  C   UNL     1      18.411   6.989  21.506  0.00  0.00    +0.061 C 
ATOM     10  C   UNL     1      19.033   6.627  20.163  0.00  0.00    +0.130 C 
ATOM     11  C   UNL     1      17.885   5.998  19.397  0.00  0.00    +0.116 C 
ENDROOT
BRANCH   8  13
ATOM      3  O   UNL     1      17.076   9.541  21.343  0.00  0.00    -0.336 OA
ATOM      5  N   UNL     1      15.210   8.712  22.265  0.00  0.00    -0.190 NA
ATOM      7  N   UNL     1      16.356  10.643  21.822  0.00  0.00    -0.056 NA
ATOM     13  C   UNL     1      16.331   8.445  21.644  0.00  0.00    +0.245 A 
ATOM     18  C   UNL     1      15.269  10.073  22.352  0.00  0.00    +0.202 A 
BRANCH  18  22
ATOM      1  F   UNL     1      11.215  13.025  24.761  0.00  0.00    -0.205 F 
ATOM     22  C   UNL     1      14.224  10.834  22.973  0.00  0.00    +0.023 A 
ATOM     24  C   UNL     1      14.542  11.852  23.872  0.00  0.00    +0.014 A 
ATOM     25  C   UNL     1      12.890  10.556  22.678  0.00  0.00    +0.014 A 
ATOM     26  C   UNL     1      13.525  12.592  24.476  0.00  0.00    +0.039 A 
ATOM     27  C   UNL     1      11.872  11.296  23.281  0.00  0.00    +0.039 A 
ATOM     28  C   UNL     1      12.191  12.314  24.181  0.00  0.00    +0.123 A 
ENDBRANCH  18  22
ENDBRANCH   8  13
BRANCH  10   2
ATOM      2  O   UNL     1      20.108   5.724  20.335  0.00  0.00    -0.390 OA
ATOM     29  H   UNL     1      20.011   5.317  21.213  0.00  0.00    +0.210 HD
ENDBRANCH  10   2
BRANCH   4  12
ATOM     12  C   UNL     1      15.480   6.273  19.414  0.00  0.00    +0.122 C 
BRANCH  12  14
ATOM      6  N   UNL     1      13.348   9.099  18.408  0.00  0.00    -0.360 N 
ATOM     14  C   UNL     1      14.426   7.327  19.200  0.00  0.00    -0.008 A 
ATOM     15  C   UNL     1      13.184   7.435  19.886  0.00  0.00    +0.004 A 
ATOM     16  C   UNL     1      14.498   8.364  18.298  0.00  0.00    +0.088 A 
ATOM     17  C   UNL     1      12.527   8.555  19.371  0.00  0.00    +0.047 A 
ATOM     19  C   UNL     1      12.554   6.686  20.900  0.00  0.00    +0.010 A 
ATOM     20  C   UNL     1      11.267   8.964  19.819  0.00  0.00    +0.026 A 
ATOM     21  C   UNL     1      11.293   7.084  21.358  0.00  0.00    +0.001 A 
ATOM     23  C   UNL     1      10.661   8.206  20.826  0.00  0.00    +0.002 A 
ATOM     30  H   UNL     1      13.132   9.921  17.862  0.00  0.00    +0.165 HD
ENDBRANCH  12  14
ENDBRANCH   4  12
TORSDOF 5
ENDMDL
MODEL 6
REMARK VINA RESULT:      -6.9     25.948     28.836
REMARK  Name = 26744389
REMARK  5 active torsions:
REMARK  status: ('A' for Active; 'I' for Inactive)
REMARK    1  A    between atoms: O_2  and  C_10
REMARK    2  A    between atoms: N_4  and  C_12
REMARK    3  A    between atoms: C_8  and  C_13
REMARK    4  A    between atoms: C_12  and  C_14
REMARK    5  A    between atoms: C_18  and  C_22
REMARK                            x       y       z     vdW  Elec       q    Type
REMARK                         _______ _______ _______ _____ _____    ______ ____
ROOT
ATOM      4  N   UNL     1      -3.112 -10.558  14.172  0.00  0.00    -0.285 NA
ATOM      8  C   UNL     1      -3.475 -11.144  15.478  0.00  0.00    +0.149 C 
ATOM      9  C   UNL     1      -2.303 -10.785  16.411  0.00  0.00    +0.061 C 
ATOM     10  C   UNL     1      -1.312 -10.037  15.528  0.00  0.00    +0.130 C 
ATOM     11  C   UNL     1      -1.652 -10.515  14.129  0.00  0.00    +0.116 C 
ENDROOT
BRANCH   8  13
ATOM      3  O   UNL     1      -4.960 -10.604  17.343  0.00  0.00    -0.336 OA
ATOM      5  N   UNL     1      -5.855 -10.233  15.324  0.00  0.00    -0.190 NA
ATOM      7  N   UNL     1      -6.252 -10.115  17.574  0.00  0.00    -0.056 NA
ATOM     13  C   UNL     1      -4.807 -10.642  15.993  0.00  0.00    +0.245 A 
ATOM     18  C   UNL     1      -6.715  -9.921  16.336  0.00  0.00    +0.202 A 
BRANCH  18  22
ATOM      1  F   UNL     1     -11.822  -7.955  15.327  0.00  0.00    -0.205 F 
ATOM     22  C   UNL     1      -8.032  -9.414  16.076  0.00  0.00    +0.023 A 
ATOM     24  C   UNL     1      -8.748  -8.780  17.091  0.00  0.00    +0.014 A 
ATOM     25  C   UNL     1      -8.596  -9.556  14.808  0.00  0.00    +0.014 A 
ATOM     26  C   UNL     1     -10.029  -8.287  16.837  0.00  0.00    +0.039 A 
ATOM     27  C   UNL     1      -9.876  -9.063  14.554  0.00  0.00    +0.039 A 
ATOM     28  C   UNL     1     -10.592  -8.429  15.570  0.00  0.00    +0.123 A 
ENDBRANCH  18  22
ENDBRANCH   8  13
BRANCH  10   2
ATOM      2  O   UNL     1       0.019 -10.358  15.884  0.00  0.00    -0.390 OA
ATOM     29  H   UNL     1      -0.013 -10.852  16.720  0.00  0.00    +0.210 HD
ENDBRANCH  10   2
BRANCH   4  12
ATOM     12  C   UNL     1      -3.673 -11.284  13.041  0.00  0.00    +0.122 C 
BRANCH  12  14
ATOM      6  N   UNL     1      -3.420  -9.170  10.039  0.00  0.00    -0.360 N 
ATOM     14  C   UNL     1      -3.854 -10.395  11.839  0.00  0.00    -0.008 A 
ATOM     15  C   UNL     1      -5.084  -9.865  11.355  0.00  0.00    +0.004 A 
ATOM     16  C   UNL     1      -2.851  -9.950  11.009  0.00  0.00    +0.088 A 
ATOM     17  C   UNL     1      -4.783  -9.100  10.225  0.00  0.00    +0.047 A 
ATOM     19  C   UNL     1      -6.426  -9.963  11.770  0.00  0.00    +0.010 A 
ATOM     20  C   UNL     1      -5.762  -8.426   9.488  0.00  0.00    +0.026 A 
ATOM     21  C   UNL     1      -7.417  -9.294  11.042  0.00  0.00    +0.001 A 
ATOM     23  C   UNL     1      -7.088  -8.537   9.919  0.00  0.00    +0.002 A 
ATOM     30  H   UNL     1      -2.915  -8.712   9.294  0.00  0.00    +0.165 HD
ENDBRANCH  12  14
ENDBRANCH   4  12
TORSDOF 5
ENDMDL
MODEL 7
REMARK VINA RESULT:      -6.8      4.737      7.170
REMARK  Name = 26744389
REMARK  5 active torsions:
REMARK  status: ('A' for Active; 'I' for Inactive)
REMARK    1  A    between atoms: O_2  and  C_10
REMARK    2  A    between atoms: N_4  and  C_12
REMARK    3  A    between atoms: C_8  and  C_13
REMARK    4  A    between atoms: C_12  and  C_14
REMARK    5  A    between atoms: C_18  and  C_22
REMARK                            x       y       z     vdW  Elec       q    Type
REMARK                         _______ _______ _______ _____ _____    ______ ____
ROOT
ATOM      4  N   UNL     1      13.027   8.008  20.832  0.00  0.00    -0.285 NA
ATOM      8  C   UNL     1      11.783   8.757  20.565  0.00  0.00    +0.149 C 
ATOM      9  C   UNL     1      10.657   7.854  21.102  0.00  0.00    +0.061 C 
ATOM     10  C   UNL     1      11.363   6.602  21.608  0.00  0.00    +0.130 C 
ATOM     11  C   UNL     1      12.666   6.591  20.833  0.00  0.00    +0.116 C 
ENDROOT
BRANCH   8  13
ATOM      3  O   UNL     1      12.210  11.159  20.419  0.00  0.00    -0.336 OA
ATOM      5  N   UNL     1      11.429  10.488  22.408  0.00  0.00    -0.190 NA
ATOM      7  N   UNL     1      12.122  12.311  21.211  0.00  0.00    -0.056 NA
ATOM     13  C   UNL     1      11.783  10.132  21.199  0.00  0.00    +0.245 A 
ATOM     18  C   UNL     1      11.655  11.833  22.369  0.00  0.00    +0.202 A 
BRANCH  18  22
ATOM      1  F   UNL     1      10.669  15.091  26.770  0.00  0.00    -0.205 F 
ATOM     22  C   UNL     1      11.401  12.673  23.503  0.00  0.00    +0.023 A 
ATOM     24  C   UNL     1      10.385  13.628  23.450  0.00  0.00    +0.014 A 
ATOM     25  C   UNL     1      12.168  12.535  24.659  0.00  0.00    +0.014 A 
ATOM     26  C   UNL     1      10.139  14.445  24.554  0.00  0.00    +0.039 A 
ATOM     27  C   UNL     1      11.922  13.351  25.763  0.00  0.00    +0.039 A 
ATOM     28  C   UNL     1      10.906  14.306  25.710  0.00  0.00    +0.123 A 
ENDBRANCH  18  22
ENDBRANCH   8  13
BRANCH  10   2
ATOM      2  O   UNL     1      10.587   5.449  21.348  0.00  0.00    -0.390 OA
ATOM     29  H   UNL     1       9.724   5.746  21.012  0.00  0.00    +0.210 HD
ENDBRANCH  10   2
BRANCH   4  12
ATOM     12  C   UNL     1      14.090   8.302  19.879  0.00  0.00    +0.122 C 
BRANCH  12  14
ATOM      6  N   UNL     1      17.178   8.522  21.870  0.00  0.00    -0.360 N 
ATOM     14  C   UNL     1      15.382   8.649  20.571  0.00  0.00    -0.008 A 
ATOM     15  C   UNL     1      16.128   9.851  20.416  0.00  0.00    +0.004 A 
ATOM     16  C   UNL     1      16.052   7.852  21.470  0.00  0.00    +0.088 A 
ATOM     17  C   UNL     1      17.250   9.746  21.243  0.00  0.00    +0.047 A 
ATOM     19  C   UNL     1      15.957  11.022  19.652  0.00  0.00    +0.010 A 
ATOM     20  C   UNL     1      18.212  10.756  21.342  0.00  0.00    +0.026 A 
ATOM     21  C   UNL     1      16.912  12.042  19.741  0.00  0.00    +0.001 A 
ATOM     23  C   UNL     1      18.021  11.909  20.574  0.00  0.00    +0.002 A 
ATOM     30  H   UNL     1      17.857   8.170  22.529  0.00  0.00    +0.165 HD
ENDBRANCH  12  14
ENDBRANCH   4  12
TORSDOF 5
ENDMDL
MODEL 8
REMARK VINA RESULT:      -6.8     26.441     28.960
REMARK  Name = 26744389
REMARK  5 active torsions:
REMARK  status: ('A' for Active; 'I' for Inactive)
REMARK    1  A    between atoms: O_2  and  C_10
REMARK    2  A    between atoms: N_4  and  C_12
REMARK    3  A    between atoms: C_8  and  C_13
REMARK    4  A    between atoms: C_12  and  C_14
REMARK    5  A    between atoms: C_18  and  C_22
REMARK                            x       y       z     vdW  Elec       q    Type
REMARK                         _______ _______ _______ _____ _____    ______ ____
ROOT
ATOM      4  N   UNL     1      -5.127 -11.070  17.130  0.00  0.00    -0.285 NA
ATOM      8  C   UNL     1      -6.552 -11.373  16.889  0.00  0.00    +0.149 C 
ATOM      9  C   UNL     1      -7.278 -10.885  18.157  0.00  0.00    +0.061 C 
ATOM     10  C   UNL     1      -6.173 -10.367  19.069  0.00  0.00    +0.130 C 
ATOM     11  C   UNL     1      -4.937 -11.096  18.579  0.00  0.00    +0.116 C 
ENDROOT
BRANCH   8  13
ATOM      3  O   UNL     1      -8.363 -10.278  15.667  0.00  0.00    -0.336 OA
ATOM      5  N   UNL     1      -6.481 -10.529  14.480  0.00  0.00    -0.190 NA
ATOM      7  N   UNL     1      -8.623  -9.729  14.404  0.00  0.00    -0.056 NA
ATOM     13  C   UNL     1      -7.081 -10.725  15.626  0.00  0.00    +0.245 A 
ATOM     18  C   UNL     1      -7.466  -9.916  13.762  0.00  0.00    +0.202 A 
BRANCH  18  22
ATOM      1  F   UNL     1      -6.672  -8.300   8.498  0.00  0.00    -0.205 F 
ATOM     22  C   UNL     1      -7.261  -9.500  12.405  0.00  0.00    +0.023 A 
ATOM     24  C   UNL     1      -6.001  -9.066  11.991  0.00  0.00    +0.014 A 
ATOM     25  C   UNL     1      -8.321  -9.528  11.499  0.00  0.00    +0.014 A 
ATOM     26  C   UNL     1      -5.803  -8.661  10.670  0.00  0.00    +0.039 A 
ATOM     27  C   UNL     1      -8.123  -9.123  10.179  0.00  0.00    +0.039 A 
ATOM     28  C   UNL     1      -6.863  -8.690   9.765  0.00  0.00    +0.123 A 
ENDBRANCH  18  22
ENDBRANCH   8  13
BRANCH  10   2
ATOM      2  O   UNL     1      -6.458 -10.666  20.422  0.00  0.00    -0.390 OA
ATOM     29  H   UNL     1      -6.708  -9.834  20.858  0.00  0.00    +0.210 HD
ENDBRANCH  10   2
BRANCH   4  12
ATOM     12  C   UNL     1      -4.222 -11.981  16.442  0.00  0.00    +0.122 C 
BRANCH  12  14
ATOM      6  N   UNL     1      -1.581  -9.924  14.911  0.00  0.00    -0.360 N 
ATOM     14  C   UNL     1      -3.242 -11.243  15.568  0.00  0.00    -0.008 A 
ATOM     15  C   UNL     1      -3.164 -11.300  14.148  0.00  0.00    +0.004 A 
ATOM     16  C   UNL     1      -2.257 -10.389  16.007  0.00  0.00    +0.088 A 
ATOM     17  C   UNL     1      -2.114 -10.463  13.761  0.00  0.00    +0.047 A 
ATOM     19  C   UNL     1      -3.888 -11.984  13.151  0.00  0.00    +0.010 A 
ATOM     20  C   UNL     1      -1.751 -10.276  12.423  0.00  0.00    +0.026 A 
ATOM     21  C   UNL     1      -3.535 -11.807  11.808  0.00  0.00    +0.001 A 
ATOM     23  C   UNL     1      -2.483 -10.965  11.452  0.00  0.00    +0.002 A 
ATOM     30  H   UNL     1      -0.805  -9.279  14.940  0.00  0.00    +0.165 HD
ENDBRANCH  12  14
ENDBRANCH   4  12
TORSDOF 5
ENDMDL
MODEL 9
REMARK VINA RESULT:      -6.8     27.376     29.140
REMARK  Name = 26744389
REMARK  5 active torsions:
REMARK  status: ('A' for Active; 'I' for Inactive)
REMARK    1  A    between atoms: O_2  and  C_10
REMARK    2  A    between atoms: N_4  and  C_12
REMARK    3  A    between atoms: C_8  and  C_13
REMARK    4  A    between atoms: C_12  and  C_14
REMARK    5  A    between atoms: C_18  and  C_22
REMARK                            x       y       z     vdW  Elec       q    Type
REMARK                         _______ _______ _______ _____ _____    ______ ____
ROOT
ATOM      4  N   UNL     1      -3.341 -11.810  14.461  0.00  0.00    -0.285 NA
ATOM      8  C   UNL     1      -2.271 -11.721  13.447  0.00  0.00    +0.149 C 
ATOM      9  C   UNL     1      -1.900 -13.183  13.136  0.00  0.00    +0.061 C 
ATOM     10  C   UNL     1      -2.781 -14.017  14.057  0.00  0.00    +0.130 C 
ATOM     11  C   UNL     1      -3.123 -13.061  15.184  0.00  0.00    +0.116 C 
ENDROOT
BRANCH   8  13
ATOM      3  O   UNL     1      -1.816 -10.035  11.737  0.00  0.00    -0.336 OA
ATOM      5  N   UNL     1      -3.810 -11.035  11.528  0.00  0.00    -0.190 NA
ATOM      7  N   UNL     1      -2.424  -9.460  10.613  0.00  0.00    -0.056 NA
ATOM     13  C   UNL     1      -2.698 -10.951  12.214  0.00  0.00    +0.245 A 
ATOM     18  C   UNL     1      -3.596 -10.102  10.556  0.00  0.00    +0.202 A 
BRANCH  18  22
ATOM      1  F   UNL     1      -7.384  -9.067   6.614  0.00  0.00    -0.205 F 
ATOM     22  C   UNL     1      -4.572  -9.835   9.540  0.00  0.00    +0.023 A 
ATOM     24  C   UNL     1      -5.527  -8.837   9.735  0.00  0.00    +0.014 A 
ATOM     25  C   UNL     1      -4.567 -10.573   8.357  0.00  0.00    +0.014 A 
ATOM     26  C   UNL     1      -6.477  -8.578   8.746  0.00  0.00    +0.039 A 
ATOM     27  C   UNL     1      -5.517 -10.314   7.368  0.00  0.00    +0.039 A 
ATOM     28  C   UNL     1      -6.472  -9.316   7.563  0.00  0.00    +0.123 A 
ENDBRANCH  18  22
ENDBRANCH   8  13
BRANCH  10   2
ATOM      2  O   UNL     1      -2.083 -15.154  14.526  0.00  0.00    -0.390 OA
ATOM     29  H   UNL     1      -1.222 -15.176  14.074  0.00  0.00    +0.210 HD
ENDBRANCH  10   2
BRANCH   4  12
ATOM     12  C   UNL     1      -3.382 -10.660  15.355  0.00  0.00    +0.122 C 
BRANCH  12  14
ATOM      6  N   UNL     1      -6.904  -9.681  15.785  0.00  0.00    -0.360 N 
ATOM     14  C   UNL     1      -4.786 -10.348  15.802  0.00  0.00    -0.008 A 
ATOM     15  C   UNL     1      -5.324 -10.547  17.104  0.00  0.00    +0.004 A 
ATOM     16  C   UNL     1      -5.780  -9.815  15.014  0.00  0.00    +0.088 A 
ATOM     17  C   UNL     1      -6.655 -10.120  17.066  0.00  0.00    +0.047 A 
ATOM     19  C   UNL     1      -4.808 -11.049  18.314  0.00  0.00    +0.010 A 
ATOM     20  C   UNL     1      -7.496 -10.172  18.183  0.00  0.00    +0.026 A 
ATOM     21  C   UNL     1      -5.638 -11.107  19.439  0.00  0.00    +0.001 A 
ATOM     23  C   UNL     1      -6.961 -10.675  19.373  0.00  0.00    +0.002 A 
ATOM     30  H   UNL     1      -7.787  -9.315  15.462  0.00  0.00    +0.165 HD
ENDBRANCH  12  14
ENDBRANCH   4  12
TORSDOF 5
ENDMDL
MODEL 10
REMARK VINA RESULT:      -6.8     13.720     16.492
REMARK  Name = 26744389
REMARK  5 active torsions:
REMARK  status: ('A' for Active; 'I' for Inactive)
REMARK    1  A    between atoms: O_2  and  C_10
REMARK    2  A    between atoms: N_4  and  C_12
REMARK    3  A    between atoms: C_8  and  C_13
REMARK    4  A    between atoms: C_12  and  C_14
REMARK    5  A    between atoms: C_18  and  C_22
REMARK                            x       y       z     vdW  Elec       q    Type
REMARK                         _______ _______ _______ _____ _____    ______ ____
ROOT
ATOM      4  N   UNL     1       9.878   8.391   5.850  0.00  0.00    -0.285 NA
ATOM      8  C   UNL     1       8.922   7.404   5.311  0.00  0.00    +0.149 C 
ATOM      9  C   UNL     1       7.971   8.223   4.418  0.00  0.00    +0.061 C 
ATOM     10  C   UNL     1       8.445   9.664   4.556  0.00  0.00    +0.130 C 
ATOM     11  C   UNL     1       9.176   9.673   5.885  0.00  0.00    +0.116 C 
ENDROOT
BRANCH   8  13
ATOM      3  O   UNL     1       9.816   5.130   5.254  0.00  0.00    -0.336 OA
ATOM      5  N   UNL     1      10.032   6.246   3.324  0.00  0.00    -0.190 NA
ATOM      7  N   UNL     1      10.451   4.252   4.366  0.00  0.00    -0.056 NA
ATOM     13  C   UNL     1       9.605   6.279   4.561  0.00  0.00    +0.245 A 
ATOM     18  C   UNL     1      10.544   4.984   3.251  0.00  0.00    +0.202 A 
BRANCH  18  22
ATOM      1  F   UNL     1      12.855   3.035  -1.421  0.00  0.00    -0.205 F 
ATOM     22  C   UNL     1      11.140   4.481   2.046  0.00  0.00    +0.023 A 
ATOM     24  C   UNL     1      10.499   4.668   0.821  0.00  0.00    +0.014 A 
ATOM     25  C   UNL     1      12.359   3.807   2.100  0.00  0.00    +0.014 A 
ATOM     26  C   UNL     1      11.079   4.179  -0.350  0.00  0.00    +0.039 A 
ATOM     27  C   UNL     1      12.939   3.318   0.929  0.00  0.00    +0.039 A 
ATOM     28  C   UNL     1      12.299   3.504  -0.296  0.00  0.00    +0.123 A 
ENDBRANCH  18  22
ENDBRANCH   8  13
BRANCH  10   2
ATOM      2  O   UNL     1       7.348  10.556   4.553  0.00  0.00    -0.390 OA
ATOM     29  H   UNL     1       6.627  10.134   5.051  0.00  0.00    +0.210 HD
ENDBRANCH  10   2
BRANCH   4  12
ATOM     12  C   UNL     1      10.411   8.022   7.155  0.00  0.00    +0.122 C 
BRANCH  12  14
ATOM      6  N   UNL     1      13.657   6.287   7.173  0.00  0.00    -0.360 N 
ATOM     14  C   UNL     1      11.842   7.563   7.066  0.00  0.00    -0.008 A 
ATOM     15  C   UNL     1      12.956   8.338   6.638  0.00  0.00    +0.004 A 
ATOM     16  C   UNL     1      12.305   6.307   7.388  0.00  0.00    +0.088 A 
ATOM     17  C   UNL     1      14.082   7.515   6.716  0.00  0.00    +0.047 A 
ATOM     19  C   UNL     1      13.116   9.665   6.192  0.00  0.00    +0.010 A 
ATOM     20  C   UNL     1      15.364   7.954   6.366  0.00  0.00    +0.026 A 
ATOM     21  C   UNL     1      14.392  10.118   5.840  0.00  0.00    +0.001 A 
ATOM     23  C   UNL     1      15.498   9.274   5.927  0.00  0.00    +0.002 A 
ATOM     30  H   UNL     1      14.256   5.489   7.327  0.00  0.00    +0.165 HD
ENDBRANCH  12  14
ENDBRANCH   4  12
TORSDOF 5
ENDMDL
