MODEL 1
REMARK VINA RESULT:      -6.7      0.000      0.000
REMARK  Name = 45784169
REMARK  12 active torsions:
REMARK  status: ('A' for Active; 'I' for Inactive)
REMARK    1  A    between atoms: O_4  and  C_23
REMARK    2  A    between atoms: O_4  and  C_27
REMARK    3  A    between atoms: N_5  and  C_15
REMARK    4  A    between atoms: C_8  and  C_12
REMARK    5  A    between atoms: C_9  and  C_15
REMARK    6  A    between atoms: C_11  and  C_16
REMARK    7  A    between atoms: C_12  and  C_17
REMARK    8  A    between atoms: C_12  and  C_18
REMARK    9  A    between atoms: C_13  and  C_19
REMARK   10  A    between atoms: C_16  and  C_20
REMARK   11  A    between atoms: C_21  and  C_23
REMARK   12  A    between atoms: C_22  and  C_24
REMARK                            x       y       z     vdW  Elec       q    Type
REMARK                         _______ _______ _______ _____ _____    ______ ____
ROOT
ATOM      8  C   UNL     1      17.396   8.646  21.544  0.00  0.00    +0.000 C 
ATOM      9  C   UNL     1      16.612   7.881  20.449  0.00  0.00    +0.032 C 
ATOM     10  C   UNL     1      18.903   8.617  21.243  0.00  0.00    +0.012 C 
ATOM     11  C   UNL     1      19.453   7.180  21.161  0.00  0.00    +0.024 C 
ATOM     13  C   UNL     1      18.575   6.289  20.306  0.00  0.00    -0.073 C 
ATOM     14  C   UNL     1      17.313   6.624  19.988  0.00  0.00    -0.022 C 
ATOM     19  C   UNL     1      19.197   5.022  19.789  0.00  0.00    +0.039 C 
ENDROOT
BRANCH   8  12
ATOM     12  C   UNL     1      16.922  10.096  21.675  0.00  0.00    -0.013 C 
ATOM     17  C   UNL     1      17.997  10.949  22.342  0.00  0.00    +0.007 C 
ATOM     18  C   UNL     1      16.554  10.662  20.308  0.00  0.00    +0.007 C 
ENDBRANCH   8  12
BRANCH   9  15
ATOM     15  C   UNL     1      15.197   7.531  20.924  0.00  0.00    +0.112 C 
BRANCH  15   5
ATOM      3  O   UNL     1      13.253   9.263  19.665  0.00  0.00    -0.273 OA
ATOM      5  N   UNL     1      14.352   7.218  19.815  0.00  0.00    -0.313 N 
ATOM     21  C   UNL     1      13.437   8.117  19.268  0.00  0.00    +0.239 C 
ATOM     31  H   UNL     1      14.462   6.311  19.370  0.00  0.00    +0.149 HD
BRANCH  21  23
ATOM     23  C   UNL     1      12.676   7.521  18.102  0.00  0.00    +0.255 C 
BRANCH  23   4
ATOM      4  O   UNL     1      13.518   7.381  16.977  0.00  0.00    -0.374 OA
ATOM     27  C   UNL     1      13.932   8.644  16.462  0.00  0.00    +0.194 C 
ENDBRANCH  23   4
ENDBRANCH  21  23
ENDBRANCH  15   5
ENDBRANCH   9  15
BRANCH  11  16
ATOM     16  C   UNL     1      19.646   6.583  22.559  0.00  0.00    +0.105 C 
BRANCH  16  20
ATOM      2  O   UNL     1      21.305   4.800  22.382  0.00  0.00    -0.420 OA
ATOM      6  N   UNL     1      22.098   6.709  23.238  0.00  0.00    -0.112 NA
ATOM      7  N   UNL     1      23.136   5.796  23.196  0.00  0.00    -0.107 NA
ATOM     20  C   UNL     1      21.050   6.086  22.754  0.00  0.00    +0.218 A 
ATOM     22  C   UNL     1      22.626   4.697  22.690  0.00  0.00    +0.251 A 
BRANCH  22  24
ATOM      1  F   UNL     1      23.541   4.011  20.131  0.00  0.00    -0.205 F 
ATOM     24  C   UNL     1      23.236   3.429  22.417  0.00  0.00    +0.074 A 
ATOM     25  C   UNL     1      23.677   3.125  21.128  0.00  0.00    +0.136 A 
ATOM     26  C   UNL     1      23.387   2.496  23.443  0.00  0.00    +0.016 A 
ATOM     28  C   UNL     1      24.271   1.890  20.867  0.00  0.00    +0.039 A 
ATOM     29  C   UNL     1      23.979   1.260  23.181  0.00  0.00    +0.001 A 
ATOM     30  C   UNL     1      24.421   0.957  21.894  0.00  0.00    +0.003 A 
ENDBRANCH  22  24
ENDBRANCH  16  20
ENDBRANCH  11  16
TORSDOF 8
ENDMDL
MODEL 2
REMARK VINA RESULT:      -6.6     28.878     31.084
REMARK  Name = 45784169
REMARK  12 active torsions:
REMARK  status: ('A' for Active; 'I' for Inactive)
REMARK    1  A    between atoms: O_4  and  C_23
REMARK    2  A    between atoms: O_4  and  C_27
REMARK    3  A    between atoms: N_5  and  C_15
REMARK    4  A    between atoms: C_8  and  C_12
REMARK    5  A    between atoms: C_9  and  C_15
REMARK    6  A    between atoms: C_11  and  C_16
REMARK    7  A    between atoms: C_12  and  C_17
REMARK    8  A    between atoms: C_12  and  C_18
REMARK    9  A    between atoms: C_13  and  C_19
REMARK   10  A    between atoms: C_16  and  C_20
REMARK   11  A    between atoms: C_21  and  C_23
REMARK   12  A    between atoms: C_22  and  C_24
REMARK                            x       y       z     vdW  Elec       q    Type
REMARK                         _______ _______ _______ _____ _____    ______ ____
ROOT
ATOM      8  C   UNL     1      -6.282 -10.882  15.974  0.00  0.00    +0.000 C 
ATOM      9  C   UNL     1      -6.839 -10.843  17.419  0.00  0.00    +0.032 C 
ATOM     10  C   UNL     1      -5.307 -12.058  15.807  0.00  0.00    +0.012 C 
ATOM     11  C   UNL     1      -4.120 -11.973  16.785  0.00  0.00    +0.024 C 
ATOM     13  C   UNL     1      -4.575 -11.667  18.198  0.00  0.00    -0.073 C 
ATOM     14  C   UNL     1      -5.798 -11.175  18.463  0.00  0.00    -0.022 C 
ATOM     19  C   UNL     1      -3.607 -11.983  19.304  0.00  0.00    +0.039 C 
ENDROOT
BRANCH   8  12
ATOM     12  C   UNL     1      -7.403 -10.988  14.935  0.00  0.00    -0.013 C 
ATOM     17  C   UNL     1      -7.303  -9.848  13.926  0.00  0.00    +0.007 C 
ATOM     18  C   UNL     1      -7.351 -12.339  14.231  0.00  0.00    +0.007 C 
ENDBRANCH   8  12
BRANCH   9  15
ATOM     15  C   UNL     1      -7.462  -9.478  17.734  0.00  0.00    +0.112 C 
BRANCH  15   5
ATOM      3  O   UNL     1      -9.978  -8.958  16.407  0.00  0.00    -0.273 OA
ATOM      5  N   UNL     1      -8.773  -9.634  18.280  0.00  0.00    -0.313 N 
ATOM     21  C   UNL     1      -9.940  -9.358  17.567  0.00  0.00    +0.239 C 
ATOM     31  H   UNL     1      -8.861 -10.015  19.218  0.00  0.00    +0.149 HD
BRANCH  21  23
ATOM     23  C   UNL     1     -11.187  -9.611  18.389  0.00  0.00    +0.255 C 
BRANCH  23   4
ATOM      4  O   UNL     1     -10.847  -9.939  19.720  0.00  0.00    -0.374 OA
ATOM     27  C   UNL     1     -11.488 -11.136  20.152  0.00  0.00    +0.194 C 
ENDBRANCH  23   4
ENDBRANCH  21  23
ENDBRANCH  15   5
ENDBRANCH   9  15
BRANCH  11  16
ATOM     16  C   UNL     1      -3.084 -10.950  16.308  0.00  0.00    +0.105 C 
BRANCH  16  20
ATOM      2  O   UNL     1      -3.545 -10.466  13.961  0.00  0.00    -0.420 OA
ATOM      6  N   UNL     1      -1.820 -11.853  14.289  0.00  0.00    -0.112 NA
ATOM      7  N   UNL     1      -1.966 -11.668  12.927  0.00  0.00    -0.107 NA
ATOM     20  C   UNL     1      -2.761 -11.133  14.853  0.00  0.00    +0.218 A 
ATOM     22  C   UNL     1      -2.985 -10.853  12.782  0.00  0.00    +0.251 A 
BRANCH  22  24
ATOM      1  F   UNL     1      -1.562  -9.215  11.007  0.00  0.00    -0.205 F 
ATOM     24  C   UNL     1      -3.586 -10.315  11.597  0.00  0.00    +0.074 A 
ATOM     25  C   UNL     1      -2.843  -9.503  10.739  0.00  0.00    +0.136 A 
ATOM     26  C   UNL     1      -4.918 -10.606  11.302  0.00  0.00    +0.016 A 
ATOM     28  C   UNL     1      -3.433  -8.983   9.586  0.00  0.00    +0.039 A 
ATOM     29  C   UNL     1      -5.508 -10.085  10.150  0.00  0.00    +0.001 A 
ATOM     30  C   UNL     1      -4.766  -9.274   9.292  0.00  0.00    +0.003 A 
ENDBRANCH  22  24
ENDBRANCH  16  20
ENDBRANCH  11  16
TORSDOF 8
ENDMDL
MODEL 3
REMARK VINA RESULT:      -6.3     16.356     19.354
REMARK  Name = 45784169
REMARK  12 active torsions:
REMARK  status: ('A' for Active; 'I' for Inactive)
REMARK    1  A    between atoms: O_4  and  C_23
REMARK    2  A    between atoms: O_4  and  C_27
REMARK    3  A    between atoms: N_5  and  C_15
REMARK    4  A    between atoms: C_8  and  C_12
REMARK    5  A    between atoms: C_9  and  C_15
REMARK    6  A    between atoms: C_11  and  C_16
REMARK    7  A    between atoms: C_12  and  C_17
REMARK    8  A    between atoms: C_12  and  C_18
REMARK    9  A    between atoms: C_13  and  C_19
REMARK   10  A    between atoms: C_16  and  C_20
REMARK   11  A    between atoms: C_21  and  C_23
REMARK   12  A    between atoms: C_22  and  C_24
REMARK                            x       y       z     vdW  Elec       q    Type
REMARK                         _______ _______ _______ _____ _____    ______ ____
ROOT
ATOM      8  C   UNL     1       8.946   8.408   5.297  0.00  0.00    +0.000 C 
ATOM      9  C   UNL     1       8.564   7.884   6.704  0.00  0.00    +0.032 C 
ATOM     10  C   UNL     1       8.741   7.308   4.242  0.00  0.00    +0.012 C 
ATOM     11  C   UNL     1       9.580   6.052   4.541  0.00  0.00    +0.024 C 
ATOM     13  C   UNL     1       9.464   5.628   5.991  0.00  0.00    -0.073 C 
ATOM     14  C   UNL     1       8.996   6.456   6.941  0.00  0.00    -0.022 C 
ATOM     19  C   UNL     1       9.858   4.214   6.317  0.00  0.00    +0.039 C 
ENDROOT
BRANCH   8  12
ATOM     12  C   UNL     1       8.137   9.651   4.913  0.00  0.00    -0.013 C 
ATOM     17  C   UNL     1       9.067  10.771   4.458  0.00  0.00    +0.007 C 
ATOM     18  C   UNL     1       7.126   9.312   3.823  0.00  0.00    +0.007 C 
ENDBRANCH   8  12
BRANCH   9  15
ATOM     15  C   UNL     1       9.142   8.782   7.803  0.00  0.00    +0.112 C 
BRANCH  15   5
ATOM      3  O   UNL     1      10.646  11.240   7.546  0.00  0.00    -0.273 OA
ATOM      5  N   UNL     1      10.558   8.917   7.656  0.00  0.00    -0.313 N 
ATOM     21  C   UNL     1      11.204  10.147   7.538  0.00  0.00    +0.239 C 
ATOM     31  H   UNL     1      11.126   8.076   7.694  0.00  0.00    +0.149 HD
BRANCH  21  23
ATOM     23  C   UNL     1      12.704   9.994   7.396  0.00  0.00    +0.255 C 
BRANCH  23   4
ATOM      4  O   UNL     1      13.045   8.648   7.138  0.00  0.00    -0.374 OA
ATOM     27  C   UNL     1      13.715   8.499   5.888  0.00  0.00    +0.194 C 
ENDBRANCH  23   4
ENDBRANCH  21  23
ENDBRANCH  15   5
ENDBRANCH   9  15
BRANCH  11  16
ATOM     16  C   UNL     1      11.046   6.260   4.145  0.00  0.00    +0.105 C 
BRANCH  16  20
ATOM      2  O   UNL     1      12.578   5.506   2.400  0.00  0.00    -0.420 OA
ATOM      6  N   UNL     1      11.048   3.986   2.997  0.00  0.00    -0.112 NA
ATOM      7  N   UNL     1      11.841   3.429   2.011  0.00  0.00    -0.107 NA
ATOM     20  C   UNL     1      11.514   5.197   3.193  0.00  0.00    +0.218 A 
ATOM     22  C   UNL     1      12.718   4.353   1.692  0.00  0.00    +0.251 A 
BRANCH  22  24
ATOM      1  F   UNL     1      15.247   3.305   2.301  0.00  0.00    -0.205 F 
ATOM     24  C   UNL     1      13.784   4.332   0.733  0.00  0.00    +0.074 A 
ATOM     25  C   UNL     1      15.028   3.803   1.076  0.00  0.00    +0.136 A 
ATOM     26  C   UNL     1      13.574   4.845  -0.548  0.00  0.00    +0.016 A 
ATOM     28  C   UNL     1      16.062   3.785   0.139  0.00  0.00    +0.039 A 
ATOM     29  C   UNL     1      14.607   4.828  -1.484  0.00  0.00    +0.001 A 
ATOM     30  C   UNL     1      15.851   4.298  -1.142  0.00  0.00    +0.003 A 
ENDBRANCH  22  24
ENDBRANCH  16  20
ENDBRANCH  11  16
TORSDOF 8
ENDMDL
MODEL 4
REMARK VINA RESULT:      -6.3     30.719     32.067
REMARK  Name = 45784169
REMARK  12 active torsions:
REMARK  status: ('A' for Active; 'I' for Inactive)
REMARK    1  A    between atoms: O_4  and  C_23
REMARK    2  A    between atoms: O_4  and  C_27
REMARK    3  A    between atoms: N_5  and  C_15
REMARK    4  A    between atoms: C_8  and  C_12
REMARK    5  A    between atoms: C_9  and  C_15
REMARK    6  A    between atoms: C_11  and  C_16
REMARK    7  A    between atoms: C_12  and  C_17
REMARK    8  A    between atoms: C_12  and  C_18
REMARK    9  A    between atoms: C_13  and  C_19
REMARK   10  A    between atoms: C_16  and  C_20
REMARK   11  A    between atoms: C_21  and  C_23
REMARK   12  A    between atoms: C_22  and  C_24
REMARK                            x       y       z     vdW  Elec       q    Type
REMARK                         _______ _______ _______ _____ _____    ______ ____
ROOT
ATOM      8  C   UNL     1     -12.084  10.053  18.546  0.00  0.00    +0.000 C 
ATOM      9  C   UNL     1     -12.058   8.659  17.873  0.00  0.00    +0.032 C 
ATOM     10  C   UNL     1     -11.326  10.018  19.882  0.00  0.00    +0.012 C 
ATOM     11  C   UNL     1     -11.924   8.992  20.863  0.00  0.00    +0.024 C 
ATOM     13  C   UNL     1     -12.179   7.656  20.195  0.00  0.00    -0.073 C 
ATOM     14  C   UNL     1     -12.223   7.524  18.858  0.00  0.00    -0.022 C 
ATOM     19  C   UNL     1     -12.339   6.466  21.099  0.00  0.00    +0.039 C 
ENDROOT
BRANCH   8  12
ATOM     12  C   UNL     1     -11.485  11.134  17.639  0.00  0.00    -0.013 C 
ATOM     17  C   UNL     1     -11.349  12.450  18.399  0.00  0.00    +0.007 C 
ATOM     18  C   UNL     1     -10.135  10.682  17.093  0.00  0.00    +0.007 C 
ENDBRANCH   8  12
BRANCH   9  15
ATOM     15  C   UNL     1     -13.132   8.550  16.785  0.00  0.00    +0.112 C 
BRANCH  15   5
ATOM      3  O   UNL     1     -14.521   7.920  14.327  0.00  0.00    -0.273 OA
ATOM      5  N   UNL     1     -12.548   8.197  15.529  0.00  0.00    -0.313 N 
ATOM     21  C   UNL     1     -13.295   7.906  14.388  0.00  0.00    +0.239 C 
ATOM     31  H   UNL     1     -11.535   8.210  15.451  0.00  0.00    +0.149 HD
BRANCH  21  23
ATOM     23  C   UNL     1     -12.419   7.565  13.201  0.00  0.00    +0.255 C 
BRANCH  23   4
ATOM      4  O   UNL     1     -11.257   8.368  13.193  0.00  0.00    -0.374 OA
ATOM     27  C   UNL     1     -10.074   7.589  13.036  0.00  0.00    +0.194 C 
ENDBRANCH  23   4
ENDBRANCH  21  23
ENDBRANCH  15   5
ENDBRANCH   9  15
BRANCH  11  16
ATOM     16  C   UNL     1     -13.200   9.531  21.517  0.00  0.00    +0.105 C 
BRANCH  16  20
ATOM      2  O   UNL     1     -12.636   9.915  23.861  0.00  0.00    -0.420 OA
ATOM      6  N   UNL     1     -12.806  11.783  22.641  0.00  0.00    -0.112 NA
ATOM      7  N   UNL     1     -12.484  12.146  23.936  0.00  0.00    -0.107 NA
ATOM     20  C   UNL     1     -12.884  10.473  22.644  0.00  0.00    +0.218 A 
ATOM     22  C   UNL     1     -12.396  11.024  24.612  0.00  0.00    +0.251 A 
BRANCH  22  24
ATOM      1  F   UNL     1     -14.336  11.260  26.623  0.00  0.00    -0.205 F 
ATOM     24  C   UNL     1     -12.091  10.792  25.994  0.00  0.00    +0.074 A 
ATOM     25  C   UNL     1     -13.085  10.921  26.964  0.00  0.00    +0.136 A 
ATOM     26  C   UNL     1     -10.794  10.437  26.367  0.00  0.00    +0.016 A 
ATOM     28  C   UNL     1     -12.782  10.694  28.307  0.00  0.00    +0.039 A 
ATOM     29  C   UNL     1     -10.492  10.211  27.710  0.00  0.00    +0.001 A 
ATOM     30  C   UNL     1     -11.485  10.339  28.680  0.00  0.00    +0.003 A 
ENDBRANCH  22  24
ENDBRANCH  16  20
ENDBRANCH  11  16
TORSDOF 8
ENDMDL
MODEL 5
REMARK VINA RESULT:      -6.3     28.573     31.166
REMARK  Name = 45784169
REMARK  12 active torsions:
REMARK  status: ('A' for Active; 'I' for Inactive)
REMARK    1  A    between atoms: O_4  and  C_23
REMARK    2  A    between atoms: O_4  and  C_27
REMARK    3  A    between atoms: N_5  and  C_15
REMARK    4  A    between atoms: C_8  and  C_12
REMARK    5  A    between atoms: C_9  and  C_15
REMARK    6  A    between atoms: C_11  and  C_16
REMARK    7  A    between atoms: C_12  and  C_17
REMARK    8  A    between atoms: C_12  and  C_18
REMARK    9  A    between atoms: C_13  and  C_19
REMARK   10  A    between atoms: C_16  and  C_20
REMARK   11  A    between atoms: C_21  and  C_23
REMARK   12  A    between atoms: C_22  and  C_24
REMARK                            x       y       z     vdW  Elec       q    Type
REMARK                         _______ _______ _______ _____ _____    ______ ____
ROOT
ATOM      8  C   UNL     1      -6.013 -10.116  10.262  0.00  0.00    +0.000 C 
ATOM      9  C   UNL     1      -5.228  -9.515   9.070  0.00  0.00    +0.032 C 
ATOM     10  C   UNL     1      -5.551  -9.480  11.583  0.00  0.00    +0.012 C 
ATOM     11  C   UNL     1      -4.046  -9.689  11.834  0.00  0.00    +0.024 C 
ATOM     13  C   UNL     1      -3.220  -9.370  10.605  0.00  0.00    -0.073 C 
ATOM     14  C   UNL     1      -3.767  -9.284   9.380  0.00  0.00    -0.022 C 
ATOM     19  C   UNL     1      -1.755  -9.109  10.822  0.00  0.00    +0.039 C 
ENDROOT
BRANCH   8  12
ATOM     12  C   UNL     1      -7.525  -9.930  10.099  0.00  0.00    -0.013 C 
ATOM     17  C   UNL     1      -8.254 -10.368  11.365  0.00  0.00    +0.007 C 
ATOM     18  C   UNL     1      -7.850  -8.479   9.762  0.00  0.00    +0.007 C 
ENDBRANCH   8  12
BRANCH   9  15
ATOM     15  C   UNL     1      -5.352 -10.400   7.825  0.00  0.00    +0.112 C 
BRANCH  15   5
ATOM      3  O   UNL     1      -7.976 -10.042   6.661  0.00  0.00    -0.273 OA
ATOM      5  N   UNL     1      -5.687  -9.617   6.677  0.00  0.00    -0.313 N 
ATOM     21  C   UNL     1      -6.985  -9.499   6.181  0.00  0.00    +0.239 C 
ATOM     31  H   UNL     1      -4.951  -9.076   6.233  0.00  0.00    +0.149 HD
BRANCH  21  23
ATOM     23  C   UNL     1      -7.052  -8.607   4.958  0.00  0.00    +0.255 C 
BRANCH  23   4
ATOM      4  O   UNL     1      -8.330  -8.018   4.840  0.00  0.00    -0.374 OA
ATOM     27  C   UNL     1      -8.658  -7.727   3.484  0.00  0.00    +0.194 C 
ENDBRANCH  23   4
ENDBRANCH  21  23
ENDBRANCH  15   5
ENDBRANCH   9  15
BRANCH  11  16
ATOM     16  C   UNL     1      -3.761 -11.110  12.334  0.00  0.00    +0.105 C 
BRANCH  16  20
ATOM      2  O   UNL     1      -4.383 -11.053  14.694  0.00  0.00    -0.420 OA
ATOM      6  N   UNL     1      -2.179 -11.168  14.329  0.00  0.00    -0.112 NA
ATOM      7  N   UNL     1      -2.385 -11.143  15.696  0.00  0.00    -0.107 NA
ATOM     20  C   UNL     1      -3.371 -11.114  13.784  0.00  0.00    +0.218 A 
ATOM     22  C   UNL     1      -3.685 -11.075  15.861  0.00  0.00    +0.251 A 
BRANCH  22  24
ATOM      1  F   UNL     1      -5.813  -9.275  16.169  0.00  0.00    -0.205 F 
ATOM     24  C   UNL     1      -4.469 -11.022  17.061  0.00  0.00    +0.074 A 
ATOM     25  C   UNL     1      -5.519 -10.111  17.175  0.00  0.00    +0.136 A 
ATOM     26  C   UNL     1      -4.178 -11.886  18.118  0.00  0.00    +0.016 A 
ATOM     28  C   UNL     1      -6.279 -10.064  18.345  0.00  0.00    +0.039 A 
ATOM     29  C   UNL     1      -4.936 -11.838  19.287  0.00  0.00    +0.001 A 
ATOM     30  C   UNL     1      -5.987 -10.928  19.401  0.00  0.00    +0.003 A 
ENDBRANCH  22  24
ENDBRANCH  16  20
ENDBRANCH  11  16
TORSDOF 8
ENDMDL
MODEL 6
REMARK VINA RESULT:      -6.2     28.730     32.737
REMARK  Name = 45784169
REMARK  12 active torsions:
REMARK  status: ('A' for Active; 'I' for Inactive)
REMARK    1  A    between atoms: O_4  and  C_23
REMARK    2  A    between atoms: O_4  and  C_27
REMARK    3  A    between atoms: N_5  and  C_15
REMARK    4  A    between atoms: C_8  and  C_12
REMARK    5  A    between atoms: C_9  and  C_15
REMARK    6  A    between atoms: C_11  and  C_16
REMARK    7  A    between atoms: C_12  and  C_17
REMARK    8  A    between atoms: C_12  and  C_18
REMARK    9  A    between atoms: C_13  and  C_19
REMARK   10  A    between atoms: C_16  and  C_20
REMARK   11  A    between atoms: C_21  and  C_23
REMARK   12  A    between atoms: C_22  and  C_24
REMARK                            x       y       z     vdW  Elec       q    Type
REMARK                         _______ _______ _______ _____ _____    ______ ____
ROOT
ATOM      8  C   UNL     1     -10.260  -9.658  18.461  0.00  0.00    +0.000 C 
ATOM      9  C   UNL     1     -11.126 -10.634  19.295  0.00  0.00    +0.032 C 
ATOM     10  C   UNL     1      -9.273 -10.437  17.577  0.00  0.00    +0.012 C 
ATOM     11  C   UNL     1      -8.335 -11.336  18.406  0.00  0.00    +0.024 C 
ATOM     13  C   UNL     1      -9.095 -12.138  19.443  0.00  0.00    -0.073 C 
ATOM     14  C   UNL     1     -10.345 -11.818  19.818  0.00  0.00    -0.022 C 
ATOM     19  C   UNL     1      -8.400 -13.346  20.007  0.00  0.00    +0.039 C 
ENDROOT
BRANCH   8  12
ATOM     12  C   UNL     1     -11.120  -8.738  17.588  0.00  0.00    -0.013 C 
ATOM     17  C   UNL     1     -10.271  -7.614  17.001  0.00  0.00    +0.007 C 
ATOM     18  C   UNL     1     -11.800  -9.536  16.481  0.00  0.00    +0.007 C 
ENDBRANCH   8  12
BRANCH   9  15
ATOM     15  C   UNL     1     -11.802  -9.911  20.465  0.00  0.00    +0.112 C 
BRANCH  15   5
ATOM      3  O   UNL     1     -14.688  -9.781  20.619  0.00  0.00    -0.273 OA
ATOM      5  N   UNL     1     -12.669 -10.797  21.176  0.00  0.00    -0.313 N 
ATOM     21  C   UNL     1     -14.057 -10.661  21.197  0.00  0.00    +0.239 C 
ATOM     31  H   UNL     1     -12.257 -11.598  21.645  0.00  0.00    +0.149 HD
BRANCH  21  23
ATOM     23  C   UNL     1     -14.725 -11.737  22.027  0.00  0.00    +0.255 C 
BRANCH  23   4
ATOM      4  O   UNL     1     -13.781 -12.388  22.851  0.00  0.00    -0.374 OA
ATOM     27  C   UNL     1     -14.206 -12.435  24.211  0.00  0.00    +0.194 C 
ENDBRANCH  23   4
ENDBRANCH  21  23
ENDBRANCH  15   5
ENDBRANCH   9  15
BRANCH  11  16
ATOM     16  C   UNL     1      -7.217 -10.515  19.058  0.00  0.00    +0.105 C 
BRANCH  16  20
ATOM      2  O   UNL     1      -5.413 -10.543  17.414  0.00  0.00    -0.420 OA
ATOM      6  N   UNL     1      -5.017 -11.788  19.231  0.00  0.00    -0.112 NA
ATOM      7  N   UNL     1      -3.922 -11.895  18.393  0.00  0.00    -0.107 NA
ATOM     20  C   UNL     1      -5.861 -10.990  18.620  0.00  0.00    +0.218 A 
ATOM     22  C   UNL     1      -4.199 -11.153  17.346  0.00  0.00    +0.251 A 
BRANCH  22  24
ATOM      1  F   UNL     1      -5.269 -11.481  14.775  0.00  0.00    -0.205 F 
ATOM     24  C   UNL     1      -3.431 -10.891  16.163  0.00  0.00    +0.074 A 
ATOM     25  C   UNL     1      -4.001 -11.067  14.902  0.00  0.00    +0.136 A 
ATOM     26  C   UNL     1      -2.109 -10.458  16.277  0.00  0.00    +0.016 A 
ATOM     28  C   UNL     1      -3.249 -10.810  13.755  0.00  0.00    +0.039 A 
ATOM     29  C   UNL     1      -1.358 -10.203  15.130  0.00  0.00    +0.001 A 
ATOM     30  C   UNL     1      -1.927 -10.378  13.869  0.00  0.00    +0.003 A 
ENDBRANCH  22  24
ENDBRANCH  16  20
ENDBRANCH  11  16
TORSDOF 8
ENDMDL
MODEL 7
REMARK VINA RESULT:      -6.1     29.234     31.407
REMARK  Name = 45784169
REMARK  12 active torsions:
REMARK  status: ('A' for Active; 'I' for Inactive)
REMARK    1  A    between atoms: O_4  and  C_23
REMARK    2  A    between atoms: O_4  and  C_27
REMARK    3  A    between atoms: N_5  and  C_15
REMARK    4  A    between atoms: C_8  and  C_12
REMARK    5  A    between atoms: C_9  and  C_15
REMARK    6  A    between atoms: C_11  and  C_16
REMARK    7  A    between atoms: C_12  and  C_17
REMARK    8  A    between atoms: C_12  and  C_18
REMARK    9  A    between atoms: C_13  and  C_19
REMARK   10  A    between atoms: C_16  and  C_20
REMARK   11  A    between atoms: C_21  and  C_23
REMARK   12  A    between atoms: C_22  and  C_24
REMARK                            x       y       z     vdW  Elec       q    Type
REMARK                         _______ _______ _______ _____ _____    ______ ____
ROOT
ATOM      8  C   UNL     1      -7.369 -11.757  16.902  0.00  0.00    +0.000 C 
ATOM      9  C   UNL     1      -7.501 -12.106  18.405  0.00  0.00    +0.032 C 
ATOM     10  C   UNL     1      -6.108 -12.405  16.309  0.00  0.00    +0.012 C 
ATOM     11  C   UNL     1      -4.826 -11.950  17.031  0.00  0.00    +0.024 C 
ATOM     13  C   UNL     1      -4.974 -12.012  18.538  0.00  0.00    -0.073 C 
ATOM     14  C   UNL     1      -6.177 -12.095  19.133  0.00  0.00    -0.022 C 
ATOM     19  C   UNL     1      -3.705 -12.022  19.343  0.00  0.00    +0.039 C 
ENDROOT
BRANCH   8  12
ATOM     12  C   UNL     1      -8.601 -12.198  16.105  0.00  0.00    -0.013 C 
ATOM     17  C   UNL     1      -8.540 -11.648  14.684  0.00  0.00    +0.007 C 
ATOM     18  C   UNL     1      -8.711 -13.719  16.093  0.00  0.00    +0.007 C 
ENDBRANCH   8  12
BRANCH   9  15
ATOM     15  C   UNL     1      -8.479 -11.159  19.109  0.00  0.00    +0.112 C 
BRANCH  15   5
ATOM      3  O   UNL     1     -10.947  -9.832  18.391  0.00  0.00    -0.273 OA
ATOM      5  N   UNL     1      -8.622  -9.940  18.376  0.00  0.00    -0.313 N 
ATOM     21  C   UNL     1      -9.857  -9.368  18.071  0.00  0.00    +0.239 C 
ATOM     31  H   UNL     1      -7.780  -9.439  18.109  0.00  0.00    +0.149 HD
BRANCH  21  23
ATOM     23  C   UNL     1      -9.712  -8.080  17.287  0.00  0.00    +0.255 C 
BRANCH  23   4
ATOM      4  O   UNL     1      -9.297  -8.347  15.964  0.00  0.00    -0.374 OA
ATOM     27  C   UNL     1     -10.392  -8.343  15.052  0.00  0.00    +0.194 C 
ENDBRANCH  23   4
ENDBRANCH  21  23
ENDBRANCH  15   5
ENDBRANCH   9  15
BRANCH  11  16
ATOM     16  C   UNL     1      -4.406 -10.547  16.579  0.00  0.00    +0.105 C 
BRANCH  16  20
ATOM      2  O   UNL     1      -4.165 -10.694  14.154  0.00  0.00    -0.420 OA
ATOM      6  N   UNL     1      -2.225 -10.575  15.263  0.00  0.00    -0.112 NA
ATOM      7  N   UNL     1      -1.941 -10.653  13.912  0.00  0.00    -0.107 NA
ATOM     20  C   UNL     1      -3.534 -10.602  15.357  0.00  0.00    +0.218 A 
ATOM     22  C   UNL     1      -3.103 -10.722  13.304  0.00  0.00    +0.251 A 
BRANCH  22  24
ATOM      1  F   UNL     1      -3.528 -13.190  12.044  0.00  0.00    -0.205 F 
ATOM     24  C   UNL     1      -3.418 -10.818  11.909  0.00  0.00    +0.074 A 
ATOM     25  C   UNL     1      -3.622 -12.066  11.319  0.00  0.00    +0.136 A 
ATOM     26  C   UNL     1      -3.521  -9.658  11.140  0.00  0.00    +0.016 A 
ATOM     28  C   UNL     1      -3.929 -12.154   9.961  0.00  0.00    +0.039 A 
ATOM     29  C   UNL     1      -3.827  -9.747   9.782  0.00  0.00    +0.001 A 
ATOM     30  C   UNL     1      -4.031 -10.994   9.192  0.00  0.00    +0.003 A 
ENDBRANCH  22  24
ENDBRANCH  16  20
ENDBRANCH  11  16
TORSDOF 8
ENDMDL
MODEL 8
REMARK VINA RESULT:      -6.1      1.477      1.850
REMARK  Name = 45784169
REMARK  12 active torsions:
REMARK  status: ('A' for Active; 'I' for Inactive)
REMARK    1  A    between atoms: O_4  and  C_23
REMARK    2  A    between atoms: O_4  and  C_27
REMARK    3  A    between atoms: N_5  and  C_15
REMARK    4  A    between atoms: C_8  and  C_12
REMARK    5  A    between atoms: C_9  and  C_15
REMARK    6  A    between atoms: C_11  and  C_16
REMARK    7  A    between atoms: C_12  and  C_17
REMARK    8  A    between atoms: C_12  and  C_18
REMARK    9  A    between atoms: C_13  and  C_19
REMARK   10  A    between atoms: C_16  and  C_20
REMARK   11  A    between atoms: C_21  and  C_23
REMARK   12  A    between atoms: C_22  and  C_24
REMARK                            x       y       z     vdW  Elec       q    Type
REMARK                         _______ _______ _______ _____ _____    ______ ____
ROOT
ATOM      8  C   UNL     1      18.051   9.146  21.942  0.00  0.00    +0.000 C 
ATOM      9  C   UNL     1      16.813   8.810  21.075  0.00  0.00    +0.032 C 
ATOM     10  C   UNL     1      19.340   8.713  21.226  0.00  0.00    +0.012 C 
ATOM     11  C   UNL     1      19.356   7.205  20.917  0.00  0.00    +0.024 C 
ATOM     13  C   UNL     1      18.052   6.742  20.299  0.00  0.00    -0.073 C 
ATOM     14  C   UNL     1      16.929   7.479  20.369  0.00  0.00    -0.022 C 
ATOM     19  C   UNL     1      18.078   5.433  19.561  0.00  0.00    +0.039 C 
ENDROOT
BRANCH   8  12
ATOM     12  C   UNL     1      18.122  10.639  22.279  0.00  0.00    -0.013 C 
ATOM     17  C   UNL     1      19.395  10.949  23.058  0.00  0.00    +0.007 C 
ATOM     18  C   UNL     1      18.049  11.476  21.006  0.00  0.00    +0.007 C 
ENDBRANCH   8  12
BRANCH   9  15
ATOM     15  C   UNL     1      15.529   8.833  21.912  0.00  0.00    +0.112 C 
BRANCH  15   5
ATOM      3  O   UNL     1      12.650   9.112  21.876  0.00  0.00    -0.273 OA
ATOM      5  N   UNL     1      14.577   7.894  21.408  0.00  0.00    -0.313 N 
ATOM     21  C   UNL     1      13.199   8.109  21.430  0.00  0.00    +0.239 C 
ATOM     31  H   UNL     1      14.925   7.050  20.963  0.00  0.00    +0.149 HD
BRANCH  21  23
ATOM     23  C   UNL     1      12.429   6.950  20.831  0.00  0.00    +0.255 C 
BRANCH  23   4
ATOM      4  O   UNL     1      12.922   6.636  19.546  0.00  0.00    -0.374 OA
ATOM     27  C   UNL     1      12.456   7.554  18.560  0.00  0.00    +0.194 C 
ENDBRANCH  23   4
ENDBRANCH  21  23
ENDBRANCH  15   5
ENDBRANCH   9  15
BRANCH  11  16
ATOM     16  C   UNL     1      19.690   6.387  22.170  0.00  0.00    +0.105 C 
BRANCH  16  20
ATOM      2  O   UNL     1      21.323   4.578  22.308  0.00  0.00    -0.420 OA
ATOM      6  N   UNL     1      22.223   6.604  22.007  0.00  0.00    -0.112 NA
ATOM      7  N   UNL     1      23.253   5.683  22.066  0.00  0.00    -0.107 NA
ATOM     20  C   UNL     1      21.115   5.915  22.152  0.00  0.00    +0.218 A 
ATOM     22  C   UNL     1      22.680   4.515  22.244  0.00  0.00    +0.251 A 
BRANCH  22  24
ATOM      1  F   UNL     1      22.673   3.129  24.680  0.00  0.00    -0.205 F 
ATOM     24  C   UNL     1      23.255   3.208  22.376  0.00  0.00    +0.074 A 
ATOM     25  C   UNL     1      23.232   2.552  23.607  0.00  0.00    +0.136 A 
ATOM     26  C   UNL     1      23.839   2.593  21.268  0.00  0.00    +0.016 A 
ATOM     28  C   UNL     1      23.792   1.280  23.730  0.00  0.00    +0.039 A 
ATOM     29  C   UNL     1      24.400   1.322  21.392  0.00  0.00    +0.001 A 
ATOM     30  C   UNL     1      24.376   0.665  22.622  0.00  0.00    +0.003 A 
ENDBRANCH  22  24
ENDBRANCH  16  20
ENDBRANCH  11  16
TORSDOF 8
ENDMDL
MODEL 9
REMARK VINA RESULT:      -6.1     28.679     31.821
REMARK  Name = 45784169
REMARK  12 active torsions:
REMARK  status: ('A' for Active; 'I' for Inactive)
REMARK    1  A    between atoms: O_4  and  C_23
REMARK    2  A    between atoms: O_4  and  C_27
REMARK    3  A    between atoms: N_5  and  C_15
REMARK    4  A    between atoms: C_8  and  C_12
REMARK    5  A    between atoms: C_9  and  C_15
REMARK    6  A    between atoms: C_11  and  C_16
REMARK    7  A    between atoms: C_12  and  C_17
REMARK    8  A    between atoms: C_12  and  C_18
REMARK    9  A    between atoms: C_13  and  C_19
REMARK   10  A    between atoms: C_16  and  C_20
REMARK   11  A    between atoms: C_21  and  C_23
REMARK   12  A    between atoms: C_22  and  C_24
REMARK                            x       y       z     vdW  Elec       q    Type
REMARK                         _______ _______ _______ _____ _____    ______ ____
ROOT
ATOM      8  C   UNL     1      -3.044 -12.430  13.463  0.00  0.00    +0.000 C 
ATOM      9  C   UNL     1      -1.896 -11.471  13.865  0.00  0.00    +0.032 C 
ATOM     10  C   UNL     1      -3.023 -12.686  11.947  0.00  0.00    +0.012 C 
ATOM     11  C   UNL     1      -3.165 -11.385  11.135  0.00  0.00    +0.024 C 
ATOM     13  C   UNL     1      -2.247 -10.295  11.650  0.00  0.00    -0.073 C 
ATOM     14  C   UNL     1      -1.679 -10.357  12.867  0.00  0.00    -0.022 C 
ATOM     19  C   UNL     1      -1.961  -9.153  10.716  0.00  0.00    +0.039 C 
ENDROOT
BRANCH   8  12
ATOM     12  C   UNL     1      -2.962 -13.763  14.214  0.00  0.00    -0.013 C 
ATOM     17  C   UNL     1      -4.335 -14.155  14.753  0.00  0.00    +0.007 C 
ATOM     18  C   UNL     1      -2.406 -14.853  13.305  0.00  0.00    +0.007 C 
ENDBRANCH   8  12
BRANCH   9  15
ATOM     15  C   UNL     1      -2.138 -10.872  15.255  0.00  0.00    +0.112 C 
BRANCH  15   5
ATOM      3  O   UNL     1      -4.081 -11.256  17.362  0.00  0.00    -0.273 OA
ATOM      5  N   UNL     1      -3.444 -10.297  15.340  0.00  0.00    -0.313 N 
ATOM     21  C   UNL     1      -4.321 -10.537  16.397  0.00  0.00    +0.239 C 
ATOM     31  H   UNL     1      -3.726  -9.639  14.619  0.00  0.00    +0.149 HD
BRANCH  21  23
ATOM     23  C   UNL     1      -5.634  -9.800  16.229  0.00  0.00    +0.255 C 
BRANCH  23   4
ATOM      4  O   UNL     1      -6.466 -10.005  17.352  0.00  0.00    -0.374 OA
ATOM     27  C   UNL     1      -7.738  -9.381  17.191  0.00  0.00    +0.194 C 
ENDBRANCH  23   4
ENDBRANCH  21  23
ENDBRANCH  15   5
ENDBRANCH   9  15
BRANCH  11  16
ATOM     16  C   UNL     1      -4.622 -10.908  11.108  0.00  0.00    +0.105 C 
BRANCH  16  20
ATOM      2  O   UNL     1      -6.091  -9.582   9.679  0.00  0.00    -0.420 OA
ATOM      6  N   UNL     1      -4.458 -10.645   8.580  0.00  0.00    -0.112 NA
ATOM      7  N   UNL     1      -5.206  -9.939   7.655  0.00  0.00    -0.107 NA
ATOM     20  C   UNL     1      -5.010 -10.408   9.746  0.00  0.00    +0.218 A 
ATOM     22  C   UNL     1      -6.148  -9.336   8.342  0.00  0.00    +0.251 A 
BRANCH  22  24
ATOM      1  F   UNL     1      -6.942  -9.190   5.657  0.00  0.00    -0.205 F 
ATOM     24  C   UNL     1      -7.207  -8.471   7.909  0.00  0.00    +0.074 A 
ATOM     25  C   UNL     1      -7.571  -8.428   6.562  0.00  0.00    +0.136 A 
ATOM     26  C   UNL     1      -7.873  -7.671   8.837  0.00  0.00    +0.016 A 
ATOM     28  C   UNL     1      -8.602  -7.585   6.146  0.00  0.00    +0.039 A 
ATOM     29  C   UNL     1      -8.903  -6.828   8.420  0.00  0.00    +0.001 A 
ATOM     30  C   UNL     1      -9.268  -6.785   7.075  0.00  0.00    +0.003 A 
ENDBRANCH  22  24
ENDBRANCH  16  20
ENDBRANCH  11  16
TORSDOF 8
ENDMDL
MODEL 10
REMARK VINA RESULT:      -5.9     28.672     31.701
REMARK  Name = 45784169
REMARK  12 active torsions:
REMARK  status: ('A' for Active; 'I' for Inactive)
REMARK    1  A    between atoms: O_4  and  C_23
REMARK    2  A    between atoms: O_4  and  C_27
REMARK    3  A    between atoms: N_5  and  C_15
REMARK    4  A    between atoms: C_8  and  C_12
REMARK    5  A    between atoms: C_9  and  C_15
REMARK    6  A    between atoms: C_11  and  C_16
REMARK    7  A    between atoms: C_12  and  C_17
REMARK    8  A    between atoms: C_12  and  C_18
REMARK    9  A    between atoms: C_13  and  C_19
REMARK   10  A    between atoms: C_16  and  C_20
REMARK   11  A    between atoms: C_21  and  C_23
REMARK   12  A    between atoms: C_22  and  C_24
REMARK                            x       y       z     vdW  Elec       q    Type
REMARK                         _______ _______ _______ _____ _____    ______ ____
ROOT
ATOM      8  C   UNL     1      -2.893 -12.421  13.624  0.00  0.00    +0.000 C 
ATOM      9  C   UNL     1      -1.912 -11.297  14.041  0.00  0.00    +0.032 C 
ATOM     10  C   UNL     1      -2.728 -12.749  12.131  0.00  0.00    +0.012 C 
ATOM     11  C   UNL     1      -2.981 -11.522  11.235  0.00  0.00    +0.024 C 
ATOM     13  C   UNL     1      -2.253 -10.294  11.742  0.00  0.00    -0.073 C 
ATOM     14  C   UNL     1      -1.771 -10.216  12.995  0.00  0.00    -0.022 C 
ATOM     19  C   UNL     1      -2.051  -9.173  10.761  0.00  0.00    +0.039 C 
ENDROOT
BRANCH   8  12
ATOM     12  C   UNL     1      -2.692 -13.690  14.458  0.00  0.00    -0.013 C 
ATOM     17  C   UNL     1      -4.040 -14.292  14.844  0.00  0.00    +0.007 C 
ATOM     18  C   UNL     1      -1.848 -14.703  13.691  0.00  0.00    +0.007 C 
ENDBRANCH   8  12
BRANCH   9  15
ATOM     15  C   UNL     1      -2.330 -10.666  15.374  0.00  0.00    +0.112 C 
BRANCH  15   5
ATOM      3  O   UNL     1      -4.240 -11.291  17.454  0.00  0.00    -0.273 OA
ATOM      5  N   UNL     1      -3.729 -10.370  15.379  0.00  0.00    -0.313 N 
ATOM     21  C   UNL     1      -4.582 -10.710  16.429  0.00  0.00    +0.239 C 
ATOM     31  H   UNL     1      -4.109  -9.839  14.602  0.00  0.00    +0.149 HD
BRANCH  21  23
ATOM     23  C   UNL     1      -6.010 -10.276  16.169  0.00  0.00    +0.255 C 
BRANCH  23   4
ATOM      4  O   UNL     1      -6.648  -9.917  17.376  0.00  0.00    -0.374 OA
ATOM     27  C   UNL     1      -7.841  -9.172  17.146  0.00  0.00    +0.194 C 
ENDBRANCH  23   4
ENDBRANCH  21  23
ENDBRANCH  15   5
ENDBRANCH   9  15
BRANCH  11  16
ATOM     16  C   UNL     1      -4.481 -11.247  11.084  0.00  0.00    +0.105 C 
BRANCH  16  20
ATOM      2  O   UNL     1      -4.077 -11.936   8.778  0.00  0.00    -0.420 OA
ATOM      6  N   UNL     1      -6.228 -12.002   9.391  0.00  0.00    -0.112 NA
ATOM      7  N   UNL     1      -6.147 -12.414   8.073  0.00  0.00    -0.107 NA
ATOM     20  C   UNL     1      -4.998 -11.734   9.761  0.00  0.00    +0.218 A 
ATOM     22  C   UNL     1      -4.874 -12.358   7.758  0.00  0.00    +0.251 A 
BRANCH  22  24
ATOM      1  F   UNL     1      -5.202 -10.799   5.452  0.00  0.00    -0.205 F 
ATOM     24  C   UNL     1      -4.205 -12.670   6.529  0.00  0.00    +0.074 A 
ATOM     25  C   UNL     1      -4.396 -11.869   5.402  0.00  0.00    +0.136 A 
ATOM     26  C   UNL     1      -3.363 -13.780   6.460  0.00  0.00    +0.016 A 
ATOM     28  C   UNL     1      -3.744 -12.177   4.208  0.00  0.00    +0.039 A 
ATOM     29  C   UNL     1      -2.711 -14.089   5.265  0.00  0.00    +0.001 A 
ATOM     30  C   UNL     1      -2.901 -13.288   4.140  0.00  0.00    +0.003 A 
ENDBRANCH  22  24
ENDBRANCH  16  20
ENDBRANCH  11  16
TORSDOF 8
ENDMDL
