MODEL 1
REMARK VINA RESULT:      -5.1      0.000      0.000
REMARK  Name = 75367816
REMARK  5 active torsions:
REMARK  status: ('A' for Active; 'I' for Inactive)
REMARK    1  A    between atoms: O_2  and  C_10
REMARK    2  A    between atoms: O_2  and  C_19
REMARK    3  A    between atoms: N_8  and  C_21
REMARK    4  A    between atoms: N_8  and  C_22
REMARK    5  A    between atoms: C_19  and  C_20
REMARK                            x       y       z     vdW  Elec       q    Type
REMARK                         _______ _______ _______ _____ _____    ______ ____
ROOT
ATOM      1  O   UNL     1       9.070   5.583   6.610  0.00  0.00    -0.376 OA
ATOM      3  O   UNL     1      15.472   8.907   3.931  0.00  0.00    -0.377 OA
ATOM      4  O   UNL     1      13.061   6.333   7.423  0.00  0.00    -0.252 OA
ATOM      6  N   UNL     1      11.334   7.449   6.364  0.00  0.00    -0.281 N 
ATOM      7  N   UNL     1      13.605   7.745   5.688  0.00  0.00    -0.281 N 
ATOM      9  C   UNL     1      10.672   7.478   5.051  0.00  0.00    +0.143 C 
ATOM     10  C   UNL     1      10.287   6.087   4.535  0.00  0.00    +0.162 C 
ATOM     11  C   UNL     1      10.433   7.401   7.518  0.00  0.00    +0.137 C 
ATOM     12  C   UNL     1       9.893   5.047   5.581  0.00  0.00    +0.193 C 
ATOM     13  C   UNL     1      12.692   7.132   6.553  0.00  0.00    +0.305 C 
ATOM     14  C   UNL     1       9.820   6.024   7.741  0.00  0.00    +0.179 C 
ATOM     15  C   UNL     1      13.377   9.081   5.127  0.00  0.00    +0.137 C 
ATOM     16  C   UNL     1      15.014   7.369   5.753  0.00  0.00    +0.137 C 
ATOM     17  C   UNL     1      14.079   9.208   3.785  0.00  0.00    +0.179 C 
ATOM     18  C   UNL     1      15.668   7.566   4.391  0.00  0.00    +0.179 C 
ENDROOT
BRANCH  10   2
ATOM      2  O   UNL     1      11.357   5.554   3.752  0.00  0.00    -0.364 OA
BRANCH   2  19
ATOM     19  C   UNL     1      11.023   4.279   3.228  0.00  0.00    +0.256 C 
BRANCH  19  20
ATOM      5  O   UNL     1       9.975   4.862   1.185  0.00  0.00    -0.273 OA
ATOM      8  N   UNL     1      12.047   3.830   1.006  0.00  0.00    -0.306 N 
ATOM     20  C   UNL     1      10.964   4.348   1.716  0.00  0.00    +0.241 C 
ATOM     21  C   UNL     1      12.041   3.883  -0.451  0.00  0.00    +0.131 C 
ATOM     22  C   UNL     1      13.242   3.232   1.599  0.00  0.00    +0.131 C 
ENDBRANCH  19  20
ENDBRANCH   2  19
ENDBRANCH  10   2
TORSDOF 3
ENDMDL
MODEL 2
REMARK VINA RESULT:      -5.1     27.359     29.982
REMARK  Name = 75367816
REMARK  5 active torsions:
REMARK  status: ('A' for Active; 'I' for Inactive)
REMARK    1  A    between atoms: O_2  and  C_10
REMARK    2  A    between atoms: O_2  and  C_19
REMARK    3  A    between atoms: N_8  and  C_21
REMARK    4  A    between atoms: N_8  and  C_22
REMARK    5  A    between atoms: C_19  and  C_20
REMARK                            x       y       z     vdW  Elec       q    Type
REMARK                         _______ _______ _______ _____ _____    ______ ____
ROOT
ATOM      1  O   UNL     1      -4.141 -11.072  17.067  0.00  0.00    -0.376 OA
ATOM      3  O   UNL     1     -11.671 -11.337  18.633  0.00  0.00    -0.377 OA
ATOM      4  O   UNL     1      -6.941 -11.120  20.119  0.00  0.00    -0.252 OA
ATOM      6  N   UNL     1      -6.746 -12.064  18.017  0.00  0.00    -0.281 N 
ATOM      7  N   UNL     1      -8.877 -11.500  18.934  0.00  0.00    -0.281 N 
ATOM      9  C   UNL     1      -6.968 -11.697  16.610  0.00  0.00    +0.143 C 
ATOM     10  C   UNL     1      -6.337 -10.353  16.227  0.00  0.00    +0.162 C 
ATOM     11  C   UNL     1      -5.467 -12.720  18.297  0.00  0.00    +0.137 C 
ATOM     12  C   UNL     1      -5.037  -9.975  16.933  0.00  0.00    +0.193 C 
ATOM     13  C   UNL     1      -7.488 -11.543  19.093  0.00  0.00    +0.305 C 
ATOM     14  C   UNL     1      -4.289 -11.754  18.312  0.00  0.00    +0.179 C 
ATOM     15  C   UNL     1      -9.605 -12.489  18.132  0.00  0.00    +0.137 C 
ATOM     16  C   UNL     1      -9.695 -10.862  19.961  0.00  0.00    +0.137 C 
ATOM     17  C   UNL     1     -10.874 -11.871  17.568  0.00  0.00    +0.179 C 
ATOM     18  C   UNL     1     -10.971 -10.309  19.339  0.00  0.00    +0.179 C 
ENDROOT
BRANCH  10   2
ATOM      2  O   UNL     1      -7.284  -9.304  16.434  0.00  0.00    -0.364 OA
BRANCH   2  19
ATOM     19  C   UNL     1      -8.518  -9.593  15.798  0.00  0.00    +0.256 C 
BRANCH  19  20
ATOM      5  O   UNL     1      -9.339  -7.987  17.334  0.00  0.00    -0.273 OA
ATOM      8  N   UNL     1     -10.851  -8.733  15.738  0.00  0.00    -0.306 N 
ATOM     20  C   UNL     1      -9.604  -8.701  16.362  0.00  0.00    +0.241 C 
ATOM     21  C   UNL     1     -11.926  -7.884  16.238  0.00  0.00    +0.131 C 
ATOM     22  C   UNL     1     -11.196  -9.550  14.576  0.00  0.00    +0.131 C 
ENDBRANCH  19  20
ENDBRANCH   2  19
ENDBRANCH  10   2
TORSDOF 3
ENDMDL
MODEL 3
REMARK VINA RESULT:      -5.0     23.223     25.598
REMARK  Name = 75367816
REMARK  5 active torsions:
REMARK  status: ('A' for Active; 'I' for Inactive)
REMARK    1  A    between atoms: O_2  and  C_10
REMARK    2  A    between atoms: O_2  and  C_19
REMARK    3  A    between atoms: N_8  and  C_21
REMARK    4  A    between atoms: N_8  and  C_22
REMARK    5  A    between atoms: C_19  and  C_20
REMARK                            x       y       z     vdW  Elec       q    Type
REMARK                         _______ _______ _______ _____ _____    ______ ____
ROOT
ATOM      1  O   UNL     1      -6.531  -9.487   9.012  0.00  0.00    -0.376 OA
ATOM      3  O   UNL     1      -1.854 -11.822  14.660  0.00  0.00    -0.377 OA
ATOM      4  O   UNL     1      -2.660  -9.286  10.471  0.00  0.00    -0.252 OA
ATOM      6  N   UNL     1      -4.339 -10.875  10.407  0.00  0.00    -0.281 N 
ATOM      7  N   UNL     1      -2.760 -10.806  12.196  0.00  0.00    -0.281 N 
ATOM      9  C   UNL     1      -5.554 -11.236  11.152  0.00  0.00    +0.143 C 
ATOM     10  C   UNL     1      -6.487 -10.045  11.406  0.00  0.00    +0.162 C 
ATOM     11  C   UNL     1      -4.489 -10.833   8.950  0.00  0.00    +0.137 C 
ATOM     12  C   UNL     1      -6.527  -8.959  10.333  0.00  0.00    +0.193 C 
ATOM     13  C   UNL     1      -3.212 -10.265  10.987  0.00  0.00    +0.305 C 
ATOM     14  C   UNL     1      -5.220  -9.591   8.458  0.00  0.00    +0.179 C 
ATOM     15  C   UNL     1      -2.901 -12.230  12.518  0.00  0.00    +0.137 C 
ATOM     16  C   UNL     1      -1.670 -10.149  12.911  0.00  0.00    +0.137 C 
ATOM     17  C   UNL     1      -2.993 -12.416  14.025  0.00  0.00    +0.179 C 
ATOM     18  C   UNL     1      -1.793 -10.416  14.405  0.00  0.00    +0.179 C 
ENDROOT
BRANCH  10   2
ATOM      2  O   UNL     1      -6.153  -9.434  12.653  0.00  0.00    -0.364 OA
BRANCH   2  19
ATOM     19  C   UNL     1      -6.083 -10.396  13.693  0.00  0.00    +0.256 C 
BRANCH  19  20
ATOM      5  O   UNL     1      -8.208  -9.823  14.570  0.00  0.00    -0.273 OA
ATOM      8  N   UNL     1      -6.456  -9.855  16.092  0.00  0.00    -0.306 N 
ATOM     20  C   UNL     1      -7.012  -9.996  14.821  0.00  0.00    +0.241 C 
ATOM     21  C   UNL     1      -7.312  -9.481  17.212  0.00  0.00    +0.131 C 
ATOM     22  C   UNL     1      -5.050 -10.068  16.431  0.00  0.00    +0.131 C 
ENDBRANCH  19  20
ENDBRANCH   2  19
ENDBRANCH  10   2
TORSDOF 3
ENDMDL
MODEL 4
REMARK VINA RESULT:      -5.0      2.926      4.386
REMARK  Name = 75367816
REMARK  5 active torsions:
REMARK  status: ('A' for Active; 'I' for Inactive)
REMARK    1  A    between atoms: O_2  and  C_10
REMARK    2  A    between atoms: O_2  and  C_19
REMARK    3  A    between atoms: N_8  and  C_21
REMARK    4  A    between atoms: N_8  and  C_22
REMARK    5  A    between atoms: C_19  and  C_20
REMARK                            x       y       z     vdW  Elec       q    Type
REMARK                         _______ _______ _______ _____ _____    ______ ____
ROOT
ATOM      1  O   UNL     1       8.852   6.982   8.502  0.00  0.00    -0.376 OA
ATOM      3  O   UNL     1      13.458   7.911   2.409  0.00  0.00    -0.377 OA
ATOM      4  O   UNL     1      10.491   5.083   5.207  0.00  0.00    -0.252 OA
ATOM      6  N   UNL     1      11.170   6.707   6.707  0.00  0.00    -0.281 N 
ATOM      7  N   UNL     1      11.949   6.696   4.451  0.00  0.00    -0.281 N 
ATOM      9  C   UNL     1      11.021   8.155   6.918  0.00  0.00    +0.143 C 
ATOM     10  C   UNL     1       9.567   8.635   6.830  0.00  0.00    +0.162 C 
ATOM     11  C   UNL     1      10.947   5.876   7.893  0.00  0.00    +0.137 C 
ATOM     12  C   UNL     1       8.490   7.665   7.308  0.00  0.00    +0.193 C 
ATOM     13  C   UNL     1      11.167   6.092   5.442  0.00  0.00    +0.305 C 
ATOM     14  C   UNL     1       9.474   5.723   8.249  0.00  0.00    +0.179 C 
ATOM     15  C   UNL     1      13.188   7.417   4.761  0.00  0.00    +0.137 C 
ATOM     16  C   UNL     1      11.898   6.178   3.086  0.00  0.00    +0.137 C 
ATOM     17  C   UNL     1      13.438   8.494   3.717  0.00  0.00    +0.179 C 
ATOM     18  C   UNL     1      12.206   7.294   2.096  0.00  0.00    +0.179 C 
ENDROOT
BRANCH  10   2
ATOM      2  O   UNL     1       9.269   9.010   5.484  0.00  0.00    -0.364 OA
BRANCH   2  19
ATOM     19  C   UNL     1       8.078   8.389   5.030  0.00  0.00    +0.256 C 
BRANCH  19  20
ATOM      5  O   UNL     1       8.740   7.794   2.835  0.00  0.00    -0.273 OA
ATOM      8  N   UNL     1       7.052   9.379   2.991  0.00  0.00    -0.306 N 
ATOM     20  C   UNL     1       7.991   8.494   3.521  0.00  0.00    +0.241 C 
ATOM     21  C   UNL     1       6.924   9.508   1.545  0.00  0.00    +0.131 C 
ATOM     22  C   UNL     1       6.136  10.210   3.771  0.00  0.00    +0.131 C 
ENDBRANCH  19  20
ENDBRANCH   2  19
ENDBRANCH  10   2
TORSDOF 3
ENDMDL
MODEL 5
REMARK VINA RESULT:      -5.0     25.894     28.284
REMARK  Name = 75367816
REMARK  5 active torsions:
REMARK  status: ('A' for Active; 'I' for Inactive)
REMARK    1  A    between atoms: O_2  and  C_10
REMARK    2  A    between atoms: O_2  and  C_19
REMARK    3  A    between atoms: N_8  and  C_21
REMARK    4  A    between atoms: N_8  and  C_22
REMARK    5  A    between atoms: C_19  and  C_20
REMARK                            x       y       z     vdW  Elec       q    Type
REMARK                         _______ _______ _______ _____ _____    ______ ____
ROOT
ATOM      1  O   UNL     1      -4.120 -11.393  12.866  0.00  0.00    -0.376 OA
ATOM      3  O   UNL     1      -7.115 -11.831  19.941  0.00  0.00    -0.377 OA
ATOM      4  O   UNL     1      -3.256 -11.104  16.905  0.00  0.00    -0.252 OA
ATOM      6  N   UNL     1      -4.678 -12.366  15.589  0.00  0.00    -0.281 N 
ATOM      7  N   UNL     1      -5.251 -11.782  17.832  0.00  0.00    -0.281 N 
ATOM      9  C   UNL     1      -5.997 -12.246  14.949  0.00  0.00    +0.143 C 
ATOM     10  C   UNL     1      -6.168 -10.948  14.150  0.00  0.00    +0.162 C 
ATOM     11  C   UNL     1      -3.613 -12.892  14.732  0.00  0.00    +0.137 C 
ATOM     12  C   UNL     1      -4.922 -10.386  13.471  0.00  0.00    +0.193 C 
ATOM     13  C   UNL     1      -4.323 -11.719  16.787  0.00  0.00    +0.305 C 
ATOM     14  C   UNL     1      -3.090 -11.871  13.730  0.00  0.00    +0.179 C 
ATOM     15  C   UNL     1      -6.147 -12.929  18.016  0.00  0.00    +0.137 C 
ATOM     16  C   UNL     1      -4.998 -11.034  19.060  0.00  0.00    +0.137 C 
ATOM     17  C   UNL     1      -7.427 -12.485  18.705  0.00  0.00    +0.179 C 
ATOM     18  C   UNL     1      -6.318 -10.663  19.723  0.00  0.00    +0.179 C 
ENDROOT
BRANCH  10   2
ATOM      2  O   UNL     1      -6.717  -9.935  14.995  0.00  0.00    -0.364 OA
BRANCH   2  19
ATOM     19  C   UNL     1      -7.898 -10.386  15.637  0.00  0.00    +0.256 C 
BRANCH  19  20
ATOM      5  O   UNL     1      -8.073  -8.949  17.511  0.00  0.00    -0.273 OA
ATOM      8  N   UNL     1      -9.598  -8.578  15.801  0.00  0.00    -0.306 N 
ATOM     20  C   UNL     1      -8.530  -9.243  16.404  0.00  0.00    +0.241 C 
ATOM     21  C   UNL     1     -10.233  -7.464  16.495  0.00  0.00    +0.131 C 
ATOM     22  C   UNL     1     -10.154  -8.886  14.485  0.00  0.00    +0.131 C 
ENDBRANCH  19  20
ENDBRANCH   2  19
ENDBRANCH  10   2
TORSDOF 3
ENDMDL
MODEL 6
REMARK VINA RESULT:      -4.9     25.848     28.384
REMARK  Name = 75367816
REMARK  5 active torsions:
REMARK  status: ('A' for Active; 'I' for Inactive)
REMARK    1  A    between atoms: O_2  and  C_10
REMARK    2  A    between atoms: O_2  and  C_19
REMARK    3  A    between atoms: N_8  and  C_21
REMARK    4  A    between atoms: N_8  and  C_22
REMARK    5  A    between atoms: C_19  and  C_20
REMARK                            x       y       z     vdW  Elec       q    Type
REMARK                         _______ _______ _______ _____ _____    ______ ____
ROOT
ATOM      1  O   UNL     1      -2.960 -12.346  14.596  0.00  0.00    -0.376 OA
ATOM      3  O   UNL     1      -8.532 -11.048  19.743  0.00  0.00    -0.377 OA
ATOM      4  O   UNL     1      -5.412  -9.438  16.234  0.00  0.00    -0.252 OA
ATOM      6  N   UNL     1      -4.346 -11.345  16.993  0.00  0.00    -0.281 N 
ATOM      7  N   UNL     1      -6.415 -10.617  17.938  0.00  0.00    -0.281 N 
ATOM      9  C   UNL     1      -4.556 -12.800  17.012  0.00  0.00    +0.143 C 
ATOM     10  C   UNL     1      -4.931 -13.377  15.642  0.00  0.00    +0.162 C 
ATOM     11  C   UNL     1      -3.011 -10.911  16.576  0.00  0.00    +0.137 C 
ATOM     12  C   UNL     1      -4.328 -12.695  14.417  0.00  0.00    +0.193 C 
ATOM     13  C   UNL     1      -5.388 -10.400  17.012  0.00  0.00    +0.305 C 
ATOM     14  C   UNL     1      -2.790 -11.012  15.073  0.00  0.00    +0.179 C 
ATOM     15  C   UNL     1      -6.179 -11.271  19.230  0.00  0.00    +0.137 C 
ATOM     16  C   UNL     1      -7.583  -9.742  17.929  0.00  0.00    +0.137 C 
ATOM     17  C   UNL     1      -7.442 -11.977  19.694  0.00  0.00    +0.179 C 
ATOM     18  C   UNL     1      -8.800 -10.495  18.450  0.00  0.00    +0.179 C 
ENDROOT
BRANCH  10   2
ATOM      2  O   UNL     1      -6.353 -13.384  15.499  0.00  0.00    -0.364 OA
BRANCH   2  19
ATOM     19  C   UNL     1      -6.755 -12.664  14.345  0.00  0.00    +0.256 C 
BRANCH  19  20
ATOM      5  O   UNL     1      -8.788 -12.182  15.462  0.00  0.00    -0.273 OA
ATOM      8  N   UNL     1      -7.946 -10.493  14.110  0.00  0.00    -0.306 N 
ATOM     20  C   UNL     1      -7.923 -11.762  14.688  0.00  0.00    +0.241 C 
ATOM     21  C   UNL     1      -9.044  -9.584  14.418  0.00  0.00    +0.131 C 
ATOM     22  C   UNL     1      -6.932  -9.955  13.205  0.00  0.00    +0.131 C 
ENDBRANCH  19  20
ENDBRANCH   2  19
ENDBRANCH  10   2
TORSDOF 3
ENDMDL
MODEL 7
REMARK VINA RESULT:      -4.9     25.254     28.021
REMARK  Name = 75367816
REMARK  5 active torsions:
REMARK  status: ('A' for Active; 'I' for Inactive)
REMARK    1  A    between atoms: O_2  and  C_10
REMARK    2  A    between atoms: O_2  and  C_19
REMARK    3  A    between atoms: N_8  and  C_21
REMARK    4  A    between atoms: N_8  and  C_22
REMARK    5  A    between atoms: C_19  and  C_20
REMARK                            x       y       z     vdW  Elec       q    Type
REMARK                         _______ _______ _______ _____ _____    ______ ____
ROOT
ATOM      1  O   UNL     1      -5.212 -11.578  19.724  0.00  0.00    -0.376 OA
ATOM      3  O   UNL     1      -9.052 -11.556  13.055  0.00  0.00    -0.377 OA
ATOM      4  O   UNL     1      -7.403  -9.224  17.115  0.00  0.00    -0.252 OA
ATOM      6  N   UNL     1      -7.440 -11.431  17.804  0.00  0.00    -0.281 N 
ATOM      7  N   UNL     1      -8.137 -10.803  15.609  0.00  0.00    -0.281 N 
ATOM      9  C   UNL     1      -6.760 -12.700  17.502  0.00  0.00    +0.143 C 
ATOM     10  C   UNL     1      -5.232 -12.578  17.479  0.00  0.00    +0.162 C 
ATOM     11  C   UNL     1      -7.562 -11.111  19.228  0.00  0.00    +0.137 C 
ATOM     12  C   UNL     1      -4.605 -11.569  18.438  0.00  0.00    +0.193 C 
ATOM     13  C   UNL     1      -7.653 -10.409  16.861  0.00  0.00    +0.305 C 
ATOM     14  C   UNL     1      -6.260 -10.616  19.845  0.00  0.00    +0.179 C 
ATOM     15  C   UNL     1      -9.017 -11.964  15.439  0.00  0.00    +0.137 C 
ATOM     16  C   UNL     1      -8.268  -9.809  14.548  0.00  0.00    +0.137 C 
ATOM     17  C   UNL     1      -8.830 -12.560  14.053  0.00  0.00    +0.179 C 
ATOM     18  C   UNL     1      -8.120 -10.479  13.188  0.00  0.00    +0.179 C 
ENDROOT
BRANCH  10   2
ATOM      2  O   UNL     1      -4.797 -12.269  16.153  0.00  0.00    -0.364 OA
BRANCH   2  19
ATOM     19  C   UNL     1      -4.166 -11.000  16.104  0.00  0.00    +0.256 C 
BRANCH  19  20
ATOM      5  O   UNL     1      -4.610 -10.462  13.840  0.00  0.00    -0.273 OA
ATOM      8  N   UNL     1      -2.372 -10.697  14.407  0.00  0.00    -0.306 N 
ATOM     20  C   UNL     1      -3.739 -10.699  14.682  0.00  0.00    +0.241 C 
ATOM     21  C   UNL     1      -1.911 -10.403  13.056  0.00  0.00    +0.131 C 
ATOM     22  C   UNL     1      -1.312 -10.955  15.381  0.00  0.00    +0.131 C 
ENDBRANCH  19  20
ENDBRANCH   2  19
ENDBRANCH  10   2
TORSDOF 3
ENDMDL
MODEL 8
REMARK VINA RESULT:      -4.8     25.485     28.177
REMARK  Name = 75367816
REMARK  5 active torsions:
REMARK  status: ('A' for Active; 'I' for Inactive)
REMARK    1  A    between atoms: O_2  and  C_10
REMARK    2  A    between atoms: O_2  and  C_19
REMARK    3  A    between atoms: N_8  and  C_21
REMARK    4  A    between atoms: N_8  and  C_22
REMARK    5  A    between atoms: C_19  and  C_20
REMARK                            x       y       z     vdW  Elec       q    Type
REMARK                         _______ _______ _______ _____ _____    ______ ____
ROOT
ATOM      1  O   UNL     1     -14.310  -2.761  10.263  0.00  0.00    -0.376 OA
ATOM      3  O   UNL     1     -11.264  -7.683  15.335  0.00  0.00    -0.377 OA
ATOM      4  O   UNL     1     -15.098  -6.069  12.627  0.00  0.00    -0.252 OA
ATOM      6  N   UNL     1     -13.790  -4.170  12.797  0.00  0.00    -0.281 N 
ATOM      7  N   UNL     1     -13.147  -6.219  13.839  0.00  0.00    -0.281 N 
ATOM      9  C   UNL     1     -12.474  -3.685  12.354  0.00  0.00    +0.143 C 
ATOM     10  C   UNL     1     -12.218  -3.907  10.858  0.00  0.00    +0.162 C 
ATOM     11  C   UNL     1     -14.902  -3.239  12.588  0.00  0.00    +0.137 C 
ATOM     12  C   UNL     1     -13.428  -3.827   9.931  0.00  0.00    +0.193 C 
ATOM     13  C   UNL     1     -14.081  -5.519  13.067  0.00  0.00    +0.305 C 
ATOM     14  C   UNL     1     -15.361  -3.169  11.138  0.00  0.00    +0.179 C 
ATOM     15  C   UNL     1     -12.336  -5.565  14.871  0.00  0.00    +0.137 C 
ATOM     16  C   UNL     1     -13.328  -7.651  14.056  0.00  0.00    +0.137 C 
ATOM     17  C   UNL     1     -11.018  -6.302  15.043  0.00  0.00    +0.179 C 
ATOM     18  C   UNL     1     -11.976  -8.319  14.269  0.00  0.00    +0.179 C 
ENDROOT
BRANCH  10   2
ATOM      2  O   UNL     1     -11.585  -5.173  10.665  0.00  0.00    -0.364 OA
BRANCH   2  19
ATOM     19  C   UNL     1     -11.492  -5.495   9.286  0.00  0.00    +0.256 C 
BRANCH  19  20
ATOM      5  O   UNL     1      -9.553  -4.231   8.779  0.00  0.00    -0.273 OA
ATOM      8  N   UNL     1      -9.373  -6.528   8.492  0.00  0.00    -0.306 N 
ATOM     20  C   UNL     1     -10.055  -5.358   8.827  0.00  0.00    +0.241 C 
ATOM     21  C   UNL     1      -7.985  -6.448   8.054  0.00  0.00    +0.131 C 
ATOM     22  C   UNL     1      -9.927  -7.879   8.554  0.00  0.00    +0.131 C 
ENDBRANCH  19  20
ENDBRANCH   2  19
ENDBRANCH  10   2
TORSDOF 3
ENDMDL
MODEL 9
REMARK VINA RESULT:      -4.8     25.212     27.802
REMARK  Name = 75367816
REMARK  5 active torsions:
REMARK  status: ('A' for Active; 'I' for Inactive)
REMARK    1  A    between atoms: O_2  and  C_10
REMARK    2  A    between atoms: O_2  and  C_19
REMARK    3  A    between atoms: N_8  and  C_21
REMARK    4  A    between atoms: N_8  and  C_22
REMARK    5  A    between atoms: C_19  and  C_20
REMARK                            x       y       z     vdW  Elec       q    Type
REMARK                         _______ _______ _______ _____ _____    ______ ____
ROOT
ATOM      1  O   UNL     1      -6.353 -10.617  19.226  0.00  0.00    -0.376 OA
ATOM      3  O   UNL     1      -3.659 -11.700  12.100  0.00  0.00    -0.377 OA
ATOM      4  O   UNL     1      -5.026 -13.468  16.531  0.00  0.00    -0.252 OA
ATOM      6  N   UNL     1      -4.509 -11.269  17.025  0.00  0.00    -0.281 N 
ATOM      7  N   UNL     1      -4.279 -12.133  14.812  0.00  0.00    -0.281 N 
ATOM      9  C   UNL     1      -5.003  -9.917  16.721  0.00  0.00    +0.143 C 
ATOM     10  C   UNL     1      -6.514  -9.763  16.927  0.00  0.00    +0.162 C 
ATOM     11  C   UNL     1      -4.223 -11.526  18.438  0.00  0.00    +0.137 C 
ATOM     12  C   UNL     1      -7.146 -10.588  18.046  0.00  0.00    +0.193 C 
ATOM     13  C   UNL     1      -4.622 -12.363  16.148  0.00  0.00    +0.305 C 
ATOM     14  C   UNL     1      -5.478 -11.743  19.274  0.00  0.00    +0.179 C 
ATOM     15  C   UNL     1      -3.252 -11.160  14.422  0.00  0.00    +0.137 C 
ATOM     16  C   UNL     1      -4.486 -13.192  13.828  0.00  0.00    +0.137 C 
ATOM     17  C   UNL     1      -3.549 -10.618  13.033  0.00  0.00    +0.179 C 
ATOM     18  C   UNL     1      -4.728 -12.583  12.453  0.00  0.00    +0.179 C 
ENDROOT
BRANCH  10   2
ATOM      2  O   UNL     1      -7.196 -10.061  15.707  0.00  0.00    -0.364 OA
BRANCH   2  19
ATOM     19  C   UNL     1      -8.588 -10.229  15.926  0.00  0.00    +0.256 C 
BRANCH  19  20
ATOM      5  O   UNL     1      -9.453  -9.190  13.981  0.00  0.00    -0.273 OA
ATOM      8  N   UNL     1      -9.908  -8.122  15.991  0.00  0.00    -0.306 N 
ATOM     20  C   UNL     1      -9.351  -9.134  15.210  0.00  0.00    +0.241 C 
ATOM     21  C   UNL     1     -10.661  -7.052  15.349  0.00  0.00    +0.131 C 
ATOM     22  C   UNL     1      -9.824  -8.033  17.448  0.00  0.00    +0.131 C 
ENDBRANCH  19  20
ENDBRANCH   2  19
ENDBRANCH  10   2
TORSDOF 3
ENDMDL
MODEL 10
REMARK VINA RESULT:      -4.7     24.031     26.501
REMARK  Name = 75367816
REMARK  5 active torsions:
REMARK  status: ('A' for Active; 'I' for Inactive)
REMARK    1  A    between atoms: O_2  and  C_10
REMARK    2  A    between atoms: O_2  and  C_19
REMARK    3  A    between atoms: N_8  and  C_21
REMARK    4  A    between atoms: N_8  and  C_22
REMARK    5  A    between atoms: C_19  and  C_20
REMARK                            x       y       z     vdW  Elec       q    Type
REMARK                         _______ _______ _______ _____ _____    ______ ____
ROOT
ATOM      1  O   UNL     1      -6.190 -10.096  17.860  0.00  0.00    -0.376 OA
ATOM      3  O   UNL     1      -2.538 -13.830  12.210  0.00  0.00    -0.377 OA
ATOM      4  O   UNL     1      -5.274 -13.841  16.350  0.00  0.00    -0.252 OA
ATOM      6  N   UNL     1      -4.220 -11.787  16.471  0.00  0.00    -0.281 N 
ATOM      7  N   UNL     1      -3.812 -13.289  14.661  0.00  0.00    -0.281 N 
ATOM      9  C   UNL     1      -4.200 -10.506  15.748  0.00  0.00    +0.143 C 
ATOM     10  C   UNL     1      -5.598  -9.938  15.480  0.00  0.00    +0.162 C 
ATOM     11  C   UNL     1      -4.328 -11.681  17.928  0.00  0.00    +0.137 C 
ATOM     12  C   UNL     1      -6.672 -10.222  16.528  0.00  0.00    +0.193 C 
ATOM     13  C   UNL     1      -4.479 -13.029  15.863  0.00  0.00    +0.305 C 
ATOM     14  C   UNL     1      -5.734 -11.335  18.401  0.00  0.00    +0.179 C 
ATOM     15  C   UNL     1      -2.478 -12.750  14.373  0.00  0.00    +0.137 C 
ATOM     16  C   UNL     1      -4.124 -14.507  13.919  0.00  0.00    +0.137 C 
ATOM     17  C   UNL     1      -2.297 -12.583  12.873  0.00  0.00    +0.179 C 
ATOM     18  C   UNL     1      -3.876 -14.286  12.432  0.00  0.00    +0.179 C 
ENDROOT
BRANCH  10   2
ATOM      2  O   UNL     1      -6.069 -10.407  14.215  0.00  0.00    -0.364 OA
BRANCH   2  19
ATOM     19  C   UNL     1      -5.095 -10.215  13.202  0.00  0.00    +0.256 C 
BRANCH  19  20
ATOM      5  O   UNL     1      -6.797  -8.870  12.250  0.00  0.00    -0.273 OA
ATOM      8  N   UNL     1      -4.879  -9.137  10.971  0.00  0.00    -0.306 N 
ATOM     20  C   UNL     1      -5.670  -9.350  12.099  0.00  0.00    +0.241 C 
ATOM     21  C   UNL     1      -5.384  -8.303   9.887  0.00  0.00    +0.131 C 
ATOM     22  C   UNL     1      -3.534  -9.673  10.765  0.00  0.00    +0.131 C 
ENDBRANCH  19  20
ENDBRANCH   2  19
ENDBRANCH  10   2
TORSDOF 3
ENDMDL
