MODEL 1
REMARK VINA RESULT:      -6.8      0.000      0.000
REMARK  Name = 38030976
REMARK  12 active torsions:
REMARK  status: ('A' for Active; 'I' for Inactive)
REMARK    1  A    between atoms: N_4  and  C_15
REMARK    2  A    between atoms: N_4  and  C_21
REMARK    3  A    between atoms: N_5  and  C_22
REMARK    4  A    between atoms: C_8  and  C_12
REMARK    5  A    between atoms: C_9  and  C_15
REMARK    6  A    between atoms: C_11  and  C_16
REMARK    7  A    between atoms: C_12  and  C_17
REMARK    8  A    between atoms: C_12  and  C_18
REMARK    9  A    between atoms: C_13  and  C_19
REMARK   10  A    between atoms: C_16  and  C_20
REMARK   11  A    between atoms: C_21  and  C_22
REMARK   12  A    between atoms: C_27  and  C_28
REMARK                            x       y       z     vdW  Elec       q    Type
REMARK                         _______ _______ _______ _____ _____    ______ ____
ROOT
ATOM      8  C   UNL     1      -6.560 -10.943  16.155  0.00  0.00    +0.000 C 
ATOM      9  C   UNL     1      -7.060 -10.973  17.621  0.00  0.00    +0.029 C 
ATOM     10  C   UNL     1      -5.546 -12.069  15.910  0.00  0.00    +0.012 C 
ATOM     11  C   UNL     1      -4.325 -11.968  16.843  0.00  0.00    +0.024 C 
ATOM     13  C   UNL     1      -4.734 -11.727  18.282  0.00  0.00    -0.073 C 
ATOM     14  C   UNL     1      -5.965 -11.296  18.611  0.00  0.00    -0.023 C 
ATOM     19  C   UNL     1      -3.711 -12.037  19.339  0.00  0.00    +0.039 C 
ENDROOT
BRANCH   8  12
ATOM     12  C   UNL     1      -7.717 -11.060  15.157  0.00  0.00    -0.013 C 
ATOM     17  C   UNL     1      -7.747 -12.454  14.539  0.00  0.00    +0.007 C 
ATOM     18  C   UNL     1      -7.599  -9.990  14.077  0.00  0.00    +0.007 C 
ENDBRANCH   8  12
BRANCH   9  15
ATOM     15  C   UNL     1      -7.723  -9.647  18.007  0.00  0.00    +0.088 C 
BRANCH  15   4
ATOM      4  N   UNL     1      -9.105  -9.860  18.405  0.00  0.00    -0.314 NA
ATOM     34  H   UNL     1      -9.326 -10.855  18.417  0.00  0.00    +0.122 HD
BRANCH   4  21
ATOM     21  C   UNL     1     -10.022  -9.174  17.504  0.00  0.00    +0.096 C 
BRANCH  21  22
ATOM     22  C   UNL     1      -9.308  -8.021  16.805  0.00  0.00    +0.099 C 
BRANCH  22   5
ATOM      3  O   UNL     1     -12.675  -6.963  14.532  0.00  0.00    -0.377 OA
ATOM      5  N   UNL     1     -10.149  -7.480  15.739  0.00  0.00    -0.297 NA
ATOM     23  C   UNL     1     -11.053  -6.445  16.261  0.00  0.00    +0.112 C 
ATOM     24  C   UNL     1     -10.924  -8.547  15.093  0.00  0.00    +0.112 C 
ATOM     25  C   UNL     1     -11.929  -5.905  15.134  0.00  0.00    +0.175 C 
ATOM     26  C   UNL     1     -11.802  -7.957  13.993  0.00  0.00    +0.175 C 
ENDBRANCH  22   5
ENDBRANCH  21  22
ENDBRANCH   4  21
ENDBRANCH  15   4
ENDBRANCH   9  15
BRANCH  11  16
ATOM     16  C   UNL     1      -3.350 -10.887  16.362  0.00  0.00    +0.105 C 
BRANCH  16  20
ATOM      2  O   UNL     1      -3.762 -10.404  14.006  0.00  0.00    -0.420 OA
ATOM      6  N   UNL     1      -2.046 -11.792  14.370  0.00  0.00    -0.112 NA
ATOM      7  N   UNL     1      -2.163 -11.609  13.005  0.00  0.00    -0.107 NA
ATOM     20  C   UNL     1      -2.998 -11.071  14.914  0.00  0.00    +0.218 A 
ATOM     27  C   UNL     1      -3.177 -10.791  12.839  0.00  0.00    +0.251 A 
BRANCH  27  28
ATOM      1  F   UNL     1      -1.651  -9.371  10.965  0.00  0.00    -0.205 F 
ATOM     28  C   UNL     1      -3.753 -10.255  11.640  0.00  0.00    +0.074 A 
ATOM     29  C   UNL     1      -2.959  -9.554  10.733  0.00  0.00    +0.136 A 
ATOM     30  C   UNL     1      -5.112 -10.436  11.383  0.00  0.00    +0.016 A 
ATOM     31  C   UNL     1      -3.524  -9.032   9.569  0.00  0.00    +0.039 A 
ATOM     32  C   UNL     1      -5.677  -9.914  10.219  0.00  0.00    +0.001 A 
ATOM     33  C   UNL     1      -4.884  -9.213   9.312  0.00  0.00    +0.003 A 
ENDBRANCH  27  28
ENDBRANCH  16  20
ENDBRANCH  11  16
TORSDOF 9
ENDMDL
MODEL 2
REMARK VINA RESULT:      -6.3     24.248     26.992
REMARK  Name = 38030976
REMARK  12 active torsions:
REMARK  status: ('A' for Active; 'I' for Inactive)
REMARK    1  A    between atoms: N_4  and  C_15
REMARK    2  A    between atoms: N_4  and  C_21
REMARK    3  A    between atoms: N_5  and  C_22
REMARK    4  A    between atoms: C_8  and  C_12
REMARK    5  A    between atoms: C_9  and  C_15
REMARK    6  A    between atoms: C_11  and  C_16
REMARK    7  A    between atoms: C_12  and  C_17
REMARK    8  A    between atoms: C_12  and  C_18
REMARK    9  A    between atoms: C_13  and  C_19
REMARK   10  A    between atoms: C_16  and  C_20
REMARK   11  A    between atoms: C_21  and  C_22
REMARK   12  A    between atoms: C_27  and  C_28
REMARK                            x       y       z     vdW  Elec       q    Type
REMARK                         _______ _______ _______ _____ _____    ______ ____
ROOT
ATOM      8  C   UNL     1       8.871   8.386   5.334  0.00  0.00    +0.000 C 
ATOM      9  C   UNL     1       8.541   7.901   6.768  0.00  0.00    +0.029 C 
ATOM     10  C   UNL     1       8.669   7.248   4.323  0.00  0.00    +0.012 C 
ATOM     11  C   UNL     1       9.549   6.024   4.638  0.00  0.00    +0.024 C 
ATOM     13  C   UNL     1       9.484   5.647   6.104  0.00  0.00    -0.073 C 
ATOM     14  C   UNL     1       9.018   6.493   7.040  0.00  0.00    -0.023 C 
ATOM     19  C   UNL     1       9.924   4.255   6.466  0.00  0.00    +0.039 C 
ENDROOT
BRANCH   8  12
ATOM     12  C   UNL     1       8.019   9.595   4.932  0.00  0.00    -0.013 C 
ATOM     17  C   UNL     1       7.134   9.249   3.739  0.00  0.00    +0.007 C 
ATOM     18  C   UNL     1       8.910  10.792   4.618  0.00  0.00    +0.007 C 
ENDBRANCH   8  12
BRANCH   9  15
ATOM     15  C   UNL     1       9.125   8.850   7.821  0.00  0.00    +0.088 C 
BRANCH  15   4
ATOM      4  N   UNL     1      10.549   9.040   7.608  0.00  0.00    -0.314 NA
ATOM     34  H   UNL     1      11.089   8.516   8.295  0.00  0.00    +0.122 HD
BRANCH   4  21
ATOM     21  C   UNL     1      10.908  10.451   7.688  0.00  0.00    +0.096 C 
BRANCH  21  22
ATOM     22  C   UNL     1       9.854  11.218   8.481  0.00  0.00    +0.099 C 
BRANCH  22   5
ATOM      3  O   UNL     1      11.849  11.927  12.105  0.00  0.00    -0.377 OA
ATOM      5  N   UNL     1      10.474  11.903   9.613  0.00  0.00    -0.297 NA
ATOM     23  C   UNL     1      11.903  11.572   9.704  0.00  0.00    +0.112 C 
ATOM     24  C   UNL     1       9.795  11.558  10.869  0.00  0.00    +0.112 C 
ATOM     25  C   UNL     1      12.525  12.288  10.900  0.00  0.00    +0.175 C 
ATOM     26  C   UNL     1      10.466  12.275  12.035  0.00  0.00    +0.175 C 
ENDBRANCH  22   5
ENDBRANCH  21  22
ENDBRANCH   4  21
ENDBRANCH  15   4
ENDBRANCH   9  15
BRANCH  11  16
ATOM     16  C   UNL     1      10.998   6.258   4.196  0.00  0.00    +0.105 C 
BRANCH  16  20
ATOM      2  O   UNL     1      12.517   5.494   2.445  0.00  0.00    -0.420 OA
ATOM      6  N   UNL     1      10.997   3.975   3.066  0.00  0.00    -0.112 NA
ATOM      7  N   UNL     1      11.782   3.413   2.077  0.00  0.00    -0.107 NA
ATOM     20  C   UNL     1      11.461   5.189   3.248  0.00  0.00    +0.218 A 
ATOM     27  C   UNL     1      12.657   4.335   1.745  0.00  0.00    +0.251 A 
BRANCH  27  28
ATOM      1  F   UNL     1      15.228   3.415   2.378  0.00  0.00    -0.205 F 
ATOM     28  C   UNL     1      13.714   4.310   0.777  0.00  0.00    +0.074 A 
ATOM     29  C   UNL     1      14.980   3.845   1.132  0.00  0.00    +0.136 A 
ATOM     30  C   UNL     1      13.473   4.752  -0.524  0.00  0.00    +0.016 A 
ATOM     31  C   UNL     1      16.005   3.824   0.187  0.00  0.00    +0.039 A 
ATOM     32  C   UNL     1      14.499   4.732  -1.469  0.00  0.00    +0.001 A 
ATOM     33  C   UNL     1      15.764   4.267  -1.114  0.00  0.00    +0.003 A 
ENDBRANCH  27  28
ENDBRANCH  16  20
ENDBRANCH  11  16
TORSDOF 9
ENDMDL
MODEL 3
REMARK VINA RESULT:      -6.3     28.056     30.258
REMARK  Name = 38030976
REMARK  12 active torsions:
REMARK  status: ('A' for Active; 'I' for Inactive)
REMARK    1  A    between atoms: N_4  and  C_15
REMARK    2  A    between atoms: N_4  and  C_21
REMARK    3  A    between atoms: N_5  and  C_22
REMARK    4  A    between atoms: C_8  and  C_12
REMARK    5  A    between atoms: C_9  and  C_15
REMARK    6  A    between atoms: C_11  and  C_16
REMARK    7  A    between atoms: C_12  and  C_17
REMARK    8  A    between atoms: C_12  and  C_18
REMARK    9  A    between atoms: C_13  and  C_19
REMARK   10  A    between atoms: C_16  and  C_20
REMARK   11  A    between atoms: C_21  and  C_22
REMARK   12  A    between atoms: C_27  and  C_28
REMARK                            x       y       z     vdW  Elec       q    Type
REMARK                         _______ _______ _______ _____ _____    ______ ____
ROOT
ATOM      8  C   UNL     1      15.058   8.314  20.402  0.00  0.00    +0.000 C 
ATOM      9  C   UNL     1      14.285   7.311  19.508  0.00  0.00    +0.029 C 
ATOM     10  C   UNL     1      14.508   8.290  21.835  0.00  0.00    +0.012 C 
ATOM     11  C   UNL     1      13.010   8.642  21.891  0.00  0.00    +0.024 C 
ATOM     13  C   UNL     1      12.214   7.883  20.848  0.00  0.00    -0.073 C 
ATOM     14  C   UNL     1      12.802   7.284  19.798  0.00  0.00    -0.023 C 
ATOM     19  C   UNL     1      10.729   7.791  21.064  0.00  0.00    +0.039 C 
ENDROOT
BRANCH   8  12
ATOM     12  C   UNL     1      16.561   8.019  20.418  0.00  0.00    -0.013 C 
ATOM     17  C   UNL     1      16.811   6.541  20.700  0.00  0.00    +0.007 C 
ATOM     18  C   UNL     1      17.264   8.894  21.450  0.00  0.00    +0.007 C 
ENDBRANCH   8  12
BRANCH   9  15
ATOM     15  C   UNL     1      14.510   7.607  18.021  0.00  0.00    +0.088 C 
BRANCH  15   4
ATOM      4  N   UNL     1      13.241   7.778  17.334  0.00  0.00    -0.314 NA
ATOM     34  H   UNL     1      13.010   6.945  16.794  0.00  0.00    +0.122 HD
BRANCH   4  21
ATOM     21  C   UNL     1      13.277   8.933  16.446  0.00  0.00    +0.096 C 
BRANCH  21  22
ATOM     22  C   UNL     1      14.421   9.863  16.838  0.00  0.00    +0.099 C 
BRANCH  22   5
ATOM      3  O   UNL     1      14.209  13.898  17.975  0.00  0.00    -0.377 OA
ATOM      5  N   UNL     1      13.913  11.212  17.079  0.00  0.00    -0.297 NA
ATOM     23  C   UNL     1      14.673  12.202  16.302  0.00  0.00    +0.112 C 
ATOM     24  C   UNL     1      13.970  11.543  18.509  0.00  0.00    +0.112 C 
ATOM     25  C   UNL     1      14.135  13.603  16.580  0.00  0.00    +0.175 C 
ATOM     26  C   UNL     1      13.447  12.958  18.734  0.00  0.00    +0.175 C 
ENDBRANCH  22   5
ENDBRANCH  21  22
ENDBRANCH   4  21
ENDBRANCH  15   4
ENDBRANCH   9  15
BRANCH  11  16
ATOM     16  C   UNL     1      12.792  10.153  21.754  0.00  0.00    +0.105 C 
BRANCH  16  20
ATOM      2  O   UNL     1      12.663  11.739  23.605  0.00  0.00    -0.420 OA
ATOM      6  N   UNL     1      10.910  10.357  23.458  0.00  0.00    -0.112 NA
ATOM      7  N   UNL     1      10.705  11.192  24.541  0.00  0.00    -0.107 NA
ATOM     20  C   UNL     1      12.063  10.712  22.943  0.00  0.00    +0.218 A 
ATOM     27  C   UNL     1      11.753  11.982  24.588  0.00  0.00    +0.251 A 
BRANCH  27  28
ATOM      1  F   UNL     1       9.982  14.091  25.112  0.00  0.00    -0.205 F 
ATOM     28  C   UNL     1      12.080  13.041  25.498  0.00  0.00    +0.074 A 
ATOM     29  C   UNL     1      11.172  14.072  25.731  0.00  0.00    +0.136 A 
ATOM     30  C   UNL     1      13.312  13.036  26.152  0.00  0.00    +0.016 A 
ATOM     31  C   UNL     1      11.495  15.100  26.616  0.00  0.00    +0.039 A 
ATOM     32  C   UNL     1      13.637  14.065  27.037  0.00  0.00    +0.001 A 
ATOM     33  C   UNL     1      12.728  15.096  27.270  0.00  0.00    +0.003 A 
ENDBRANCH  27  28
ENDBRANCH  16  20
ENDBRANCH  11  16
TORSDOF 9
ENDMDL
MODEL 4
REMARK VINA RESULT:      -6.3     19.329     22.874
REMARK  Name = 38030976
REMARK  12 active torsions:
REMARK  status: ('A' for Active; 'I' for Inactive)
REMARK    1  A    between atoms: N_4  and  C_15
REMARK    2  A    between atoms: N_4  and  C_21
REMARK    3  A    between atoms: N_5  and  C_22
REMARK    4  A    between atoms: C_8  and  C_12
REMARK    5  A    between atoms: C_9  and  C_15
REMARK    6  A    between atoms: C_11  and  C_16
REMARK    7  A    between atoms: C_12  and  C_17
REMARK    8  A    between atoms: C_12  and  C_18
REMARK    9  A    between atoms: C_13  and  C_19
REMARK   10  A    between atoms: C_16  and  C_20
REMARK   11  A    between atoms: C_21  and  C_22
REMARK   12  A    between atoms: C_27  and  C_28
REMARK                            x       y       z     vdW  Elec       q    Type
REMARK                         _______ _______ _______ _____ _____    ______ ____
ROOT
ATOM      8  C   UNL     1     -15.405   2.910  30.860  0.00  0.00    +0.000 C 
ATOM      9  C   UNL     1     -15.897   4.194  31.574  0.00  0.00    +0.029 C 
ATOM     10  C   UNL     1     -14.829   3.252  29.479  0.00  0.00    +0.012 C 
ATOM     11  C   UNL     1     -15.861   3.949  28.572  0.00  0.00    +0.024 C 
ATOM     13  C   UNL     1     -16.585   5.064  29.298  0.00  0.00    -0.073 C 
ATOM     14  C   UNL     1     -16.579   5.165  30.639  0.00  0.00    -0.023 C 
ATOM     19  C   UNL     1     -17.281   6.089  28.445  0.00  0.00    +0.039 C 
ENDROOT
BRANCH   8  12
ATOM     12  C   UNL     1     -14.355   2.165  31.690  0.00  0.00    -0.013 C 
ATOM     17  C   UNL     1     -13.222   3.107  32.085  0.00  0.00    +0.007 C 
ATOM     18  C   UNL     1     -13.818   0.965  30.916  0.00  0.00    +0.007 C 
ENDBRANCH   8  12
BRANCH   9  15
ATOM     15  C   UNL     1     -16.839   3.855  32.735  0.00  0.00    +0.088 C 
BRANCH  15   4
ATOM      4  N   UNL     1     -16.164   4.024  34.010  0.00  0.00    -0.314 NA
ATOM     34  H   UNL     1     -16.746   3.679  34.773  0.00  0.00    +0.122 HD
BRANCH   4  21
ATOM     21  C   UNL     1     -15.836   5.423  34.249  0.00  0.00    +0.096 C 
BRANCH  21  22
ATOM     22  C   UNL     1     -14.397   5.551  34.740  0.00  0.00    +0.099 C 
BRANCH  22   5
ATOM      3  O   UNL     1     -13.345   9.344  33.284  0.00  0.00    -0.377 OA
ATOM      5  N   UNL     1     -13.710   6.617  34.015  0.00  0.00    -0.297 NA
ATOM     23  C   UNL     1     -13.128   7.592  34.950  0.00  0.00    +0.112 C 
ATOM     24  C   UNL     1     -14.626   7.293  33.087  0.00  0.00    +0.112 C 
ATOM     25  C   UNL     1     -12.428   8.702  34.170  0.00  0.00    +0.175 C 
ATOM     26  C   UNL     1     -13.890   8.408  32.352  0.00  0.00    +0.175 C 
ENDBRANCH  22   5
ENDBRANCH  21  22
ENDBRANCH   4  21
ENDBRANCH  15   4
ENDBRANCH   9  15
BRANCH  11  16
ATOM     16  C   UNL     1     -16.854   2.938  27.988  0.00  0.00    +0.105 C 
BRANCH  16  20
ATOM      2  O   UNL     1     -16.179   3.801  25.808  0.00  0.00    -0.420 OA
ATOM      6  N   UNL     1     -16.793   1.650  25.792  0.00  0.00    -0.112 NA
ATOM      7  N   UNL     1     -16.439   2.002  24.503  0.00  0.00    -0.107 NA
ATOM     20  C   UNL     1     -16.625   2.730  26.519  0.00  0.00    +0.218 A 
ATOM     27  C   UNL     1     -16.087   3.266  24.559  0.00  0.00    +0.251 A 
BRANCH  27  28
ATOM      1  F   UNL     1     -17.779   4.155  22.509  0.00  0.00    -0.205 F 
ATOM     28  C   UNL     1     -15.631   4.152  23.528  0.00  0.00    +0.074 A 
ATOM     29  C   UNL     1     -16.504   4.571  22.526  0.00  0.00    +0.136 A 
ATOM     30  C   UNL     1     -14.308   4.594  23.531  0.00  0.00    +0.016 A 
ATOM     31  C   UNL     1     -16.055   5.431  21.524  0.00  0.00    +0.039 A 
ATOM     32  C   UNL     1     -13.858   5.455  22.529  0.00  0.00    +0.001 A 
ATOM     33  C   UNL     1     -14.731   5.873  21.526  0.00  0.00    +0.003 A 
ENDBRANCH  27  28
ENDBRANCH  16  20
ENDBRANCH  11  16
TORSDOF 9
ENDMDL
MODEL 5
REMARK VINA RESULT:      -6.2     27.384     29.803
REMARK  Name = 38030976
REMARK  12 active torsions:
REMARK  status: ('A' for Active; 'I' for Inactive)
REMARK    1  A    between atoms: N_4  and  C_15
REMARK    2  A    between atoms: N_4  and  C_21
REMARK    3  A    between atoms: N_5  and  C_22
REMARK    4  A    between atoms: C_8  and  C_12
REMARK    5  A    between atoms: C_9  and  C_15
REMARK    6  A    between atoms: C_11  and  C_16
REMARK    7  A    between atoms: C_12  and  C_17
REMARK    8  A    between atoms: C_12  and  C_18
REMARK    9  A    between atoms: C_13  and  C_19
REMARK   10  A    between atoms: C_16  and  C_20
REMARK   11  A    between atoms: C_21  and  C_22
REMARK   12  A    between atoms: C_27  and  C_28
REMARK                            x       y       z     vdW  Elec       q    Type
REMARK                         _______ _______ _______ _____ _____    ______ ____
ROOT
ATOM      8  C   UNL     1      13.884   9.585  20.246  0.00  0.00    +0.000 C 
ATOM      9  C   UNL     1      14.025   8.926  21.642  0.00  0.00    +0.029 C 
ATOM     10  C   UNL     1      12.423   9.541  19.777  0.00  0.00    +0.012 C 
ATOM     11  C   UNL     1      11.880   8.103  19.693  0.00  0.00    +0.024 C 
ATOM     13  C   UNL     1      12.216   7.301  20.934  0.00  0.00    -0.073 C 
ATOM     14  C   UNL     1      13.168   7.691  21.800  0.00  0.00    -0.023 C 
ATOM     19  C   UNL     1      11.401   6.062  21.182  0.00  0.00    +0.039 C 
ENDROOT
BRANCH   8  12
ATOM     12  C   UNL     1      14.386  11.033  20.249  0.00  0.00    -0.013 C 
ATOM     17  C   UNL     1      13.284  11.979  19.783  0.00  0.00    +0.007 C 
ATOM     18  C   UNL     1      15.624  11.168  19.368  0.00  0.00    +0.007 C 
ENDBRANCH   8  12
BRANCH   9  15
ATOM     15  C   UNL     1      15.486   8.576  21.944  0.00  0.00    +0.088 C 
BRANCH  15   4
ATOM      4  N   UNL     1      16.087   7.871  20.825  0.00  0.00    -0.314 NA
ATOM     34  H   UNL     1      15.404   7.267  20.371  0.00  0.00    +0.122 HD
BRANCH   4  21
ATOM     21  C   UNL     1      17.224   7.070  21.260  0.00  0.00    +0.096 C 
BRANCH  21  22
ATOM     22  C   UNL     1      18.414   7.971  21.574  0.00  0.00    +0.099 C 
BRANCH  22   5
ATOM      3  O   UNL     1      21.194   4.842  21.883  0.00  0.00    -0.377 OA
ATOM      5  N   UNL     1      19.658   7.207  21.501  0.00  0.00    -0.297 NA
ATOM     23  C   UNL     1      19.503   6.041  20.620  0.00  0.00    +0.112 C 
ATOM     24  C   UNL     1      20.086   6.777  22.838  0.00  0.00    +0.112 C 
ATOM     25  C   UNL     1      20.809   5.253  20.570  0.00  0.00    +0.175 C 
ATOM     26  C   UNL     1      21.378   5.973  22.735  0.00  0.00    +0.175 C 
ENDBRANCH  22   5
ENDBRANCH  21  22
ENDBRANCH   4  21
ENDBRANCH  15   4
ENDBRANCH   9  15
BRANCH  11  16
ATOM     16  C   UNL     1      12.383   7.395  18.430  0.00  0.00    +0.105 C 
BRANCH  16  20
ATOM      2  O   UNL     1      13.571   9.126  17.186  0.00  0.00    -0.420 OA
ATOM      6  N   UNL     1      11.610   8.536  16.288  0.00  0.00    -0.112 NA
ATOM      7  N   UNL     1      12.167   9.515  15.488  0.00  0.00    -0.107 NA
ATOM     20  C   UNL     1      12.463   8.341  17.266  0.00  0.00    +0.218 A 
ATOM     27  C   UNL     1      13.312   9.829  16.050  0.00  0.00    +0.251 A 
BRANCH  27  28
ATOM      1  F   UNL     1      15.462   9.130  14.393  0.00  0.00    -0.205 F 
ATOM     28  C   UNL     1      14.310  10.781  15.658  0.00  0.00    +0.074 A 
ATOM     29  C   UNL     1      15.365  10.393  14.833  0.00  0.00    +0.136 A 
ATOM     30  C   UNL     1      14.224  12.099  16.107  0.00  0.00    +0.016 A 
ATOM     31  C   UNL     1      16.335  11.322  14.457  0.00  0.00    +0.039 A 
ATOM     32  C   UNL     1      15.194  13.029  15.731  0.00  0.00    +0.001 A 
ATOM     33  C   UNL     1      16.248  12.641  14.906  0.00  0.00    +0.003 A 
ENDBRANCH  27  28
ENDBRANCH  16  20
ENDBRANCH  11  16
TORSDOF 9
ENDMDL
MODEL 6
REMARK VINA RESULT:      -6.2      2.436      3.037
REMARK  Name = 38030976
REMARK  12 active torsions:
REMARK  status: ('A' for Active; 'I' for Inactive)
REMARK    1  A    between atoms: N_4  and  C_15
REMARK    2  A    between atoms: N_4  and  C_21
REMARK    3  A    between atoms: N_5  and  C_22
REMARK    4  A    between atoms: C_8  and  C_12
REMARK    5  A    between atoms: C_9  and  C_15
REMARK    6  A    between atoms: C_11  and  C_16
REMARK    7  A    between atoms: C_12  and  C_17
REMARK    8  A    between atoms: C_12  and  C_18
REMARK    9  A    between atoms: C_13  and  C_19
REMARK   10  A    between atoms: C_16  and  C_20
REMARK   11  A    between atoms: C_21  and  C_22
REMARK   12  A    between atoms: C_27  and  C_28
REMARK                            x       y       z     vdW  Elec       q    Type
REMARK                         _______ _______ _______ _____ _____    ______ ____
ROOT
ATOM      8  C   UNL     1      -6.688 -11.475  16.339  0.00  0.00    +0.000 C 
ATOM      9  C   UNL     1      -7.169 -11.629  17.804  0.00  0.00    +0.029 C 
ATOM     10  C   UNL     1      -5.506 -12.414  16.061  0.00  0.00    +0.012 C 
ATOM     11  C   UNL     1      -4.313 -12.142  16.997  0.00  0.00    +0.024 C 
ATOM     13  C   UNL     1      -4.749 -12.012  18.442  0.00  0.00    -0.073 C 
ATOM     14  C   UNL     1      -6.032 -11.796  18.784  0.00  0.00    -0.023 C 
ATOM     19  C   UNL     1      -3.684 -12.181  19.489  0.00  0.00    +0.039 C 
ENDROOT
BRANCH   8  12
ATOM     12  C   UNL     1      -7.816 -11.752  15.338  0.00  0.00    -0.013 C 
ATOM     17  C   UNL     1      -7.510 -13.005  14.525  0.00  0.00    +0.007 C 
ATOM     18  C   UNL     1      -8.022 -10.548  14.424  0.00  0.00    +0.007 C 
ENDBRANCH   8  12
BRANCH   9  15
ATOM     15  C   UNL     1      -8.038 -10.440  18.228  0.00  0.00    +0.088 C 
BRANCH  15   4
ATOM      4  N   UNL     1      -8.311 -10.486  19.654  0.00  0.00    -0.314 NA
ATOM     34  H   UNL     1      -7.617 -11.057  20.135  0.00  0.00    +0.122 HD
BRANCH   4  21
ATOM     21  C   UNL     1      -9.641 -11.021  19.917  0.00  0.00    +0.096 C 
BRANCH  21  22
ATOM     22  C   UNL     1     -10.702 -10.132  19.275  0.00  0.00    +0.099 C 
BRANCH  22   5
ATOM      3  O   UNL     1     -14.572 -11.171  20.524  0.00  0.00    -0.377 OA
ATOM      5  N   UNL     1     -11.943 -10.191  20.045  0.00  0.00    -0.297 NA
ATOM     23  C   UNL     1     -12.175 -11.550  20.557  0.00  0.00    +0.112 C 
ATOM     24  C   UNL     1     -13.085  -9.759  19.228  0.00  0.00    +0.112 C 
ATOM     25  C   UNL     1     -13.481 -11.589  21.345  0.00  0.00    +0.175 C 
ATOM     26  C   UNL     1     -14.368  -9.840  20.049  0.00  0.00    +0.175 C 
ENDBRANCH  22   5
ENDBRANCH  21  22
ENDBRANCH   4  21
ENDBRANCH  15   4
ENDBRANCH   9  15
BRANCH  11  16
ATOM     16  C   UNL     1      -3.530 -10.903  16.547  0.00  0.00    +0.105 C 
BRANCH  16  20
ATOM      2  O   UNL     1      -3.868 -10.372  14.190  0.00  0.00    -0.420 OA
ATOM      6  N   UNL     1      -2.081 -11.654  14.592  0.00  0.00    -0.112 NA
ATOM      7  N   UNL     1      -2.149 -11.435  13.229  0.00  0.00    -0.107 NA
ATOM     20  C   UNL     1      -3.102 -11.016  15.112  0.00  0.00    +0.218 A 
ATOM     27  C   UNL     1      -3.208 -10.681  13.040  0.00  0.00    +0.251 A 
BRANCH  27  28
ATOM      1  F   UNL     1      -1.601  -9.572  11.028  0.00  0.00    -0.205 F 
ATOM     28  C   UNL     1      -3.765 -10.144  11.832  0.00  0.00    +0.074 A 
ATOM     29  C   UNL     1      -2.931  -9.601  10.856  0.00  0.00    +0.136 A 
ATOM     30  C   UNL     1      -5.146 -10.167  11.636  0.00  0.00    +0.016 A 
ATOM     31  C   UNL     1      -3.478  -9.079   9.683  0.00  0.00    +0.039 A 
ATOM     32  C   UNL     1      -5.693  -9.645  10.464  0.00  0.00    +0.001 A 
ATOM     33  C   UNL     1      -4.859  -9.101   9.488  0.00  0.00    +0.003 A 
ENDBRANCH  27  28
ENDBRANCH  16  20
ENDBRANCH  11  16
TORSDOF 9
ENDMDL
MODEL 7
REMARK VINA RESULT:      -6.1      3.558      6.316
REMARK  Name = 38030976
REMARK  12 active torsions:
REMARK  status: ('A' for Active; 'I' for Inactive)
REMARK    1  A    between atoms: N_4  and  C_15
REMARK    2  A    between atoms: N_4  and  C_21
REMARK    3  A    between atoms: N_5  and  C_22
REMARK    4  A    between atoms: C_8  and  C_12
REMARK    5  A    between atoms: C_9  and  C_15
REMARK    6  A    between atoms: C_11  and  C_16
REMARK    7  A    between atoms: C_12  and  C_17
REMARK    8  A    between atoms: C_12  and  C_18
REMARK    9  A    between atoms: C_13  and  C_19
REMARK   10  A    between atoms: C_16  and  C_20
REMARK   11  A    between atoms: C_21  and  C_22
REMARK   12  A    between atoms: C_27  and  C_28
REMARK                            x       y       z     vdW  Elec       q    Type
REMARK                         _______ _______ _______ _____ _____    ______ ____
ROOT
ATOM      8  C   UNL     1      -5.115 -11.042  11.926  0.00  0.00    +0.000 C 
ATOM      9  C   UNL     1      -4.133 -11.235  13.110  0.00  0.00    +0.029 C 
ATOM     10  C   UNL     1      -4.383 -11.213  10.588  0.00  0.00    +0.012 C 
ATOM     11  C   UNL     1      -3.222 -10.213  10.426  0.00  0.00    +0.024 C 
ATOM     13  C   UNL     1      -2.356 -10.150  11.668  0.00  0.00    -0.073 C 
ATOM     14  C   UNL     1      -2.775 -10.624  12.855  0.00  0.00    -0.023 C 
ATOM     19  C   UNL     1      -0.979  -9.570  11.505  0.00  0.00    +0.039 C 
ENDROOT
BRANCH   8  12
ATOM     12  C   UNL     1      -6.294 -12.018  12.001  0.00  0.00    -0.013 C 
ATOM     17  C   UNL     1      -5.791 -13.456  12.074  0.00  0.00    +0.007 C 
ATOM     18  C   UNL     1      -7.219 -11.827  10.803  0.00  0.00    +0.007 C 
ENDBRANCH   8  12
BRANCH   9  15
ATOM     15  C   UNL     1      -4.714 -10.666  14.409  0.00  0.00    +0.088 C 
BRANCH  15   4
ATOM      4  N   UNL     1      -3.654 -10.361  15.355  0.00  0.00    -0.314 NA
ATOM     34  H   UNL     1      -2.897 -11.038  15.277  0.00  0.00    +0.122 HD
BRANCH   4  21
ATOM     21  C   UNL     1      -4.157 -10.355  16.723  0.00  0.00    +0.096 C 
BRANCH  21  22
ATOM     22  C   UNL     1      -4.598 -11.759  17.127  0.00  0.00    +0.099 C 
BRANCH  22   5
ATOM      3  O   UNL     1      -7.825 -10.861  19.656  0.00  0.00    -0.377 OA
ATOM      5  N   UNL     1      -5.940 -11.720  17.704  0.00  0.00    -0.297 NA
ATOM     23  C   UNL     1      -6.464 -10.346  17.714  0.00  0.00    +0.112 C 
ATOM     24  C   UNL     1      -5.939 -12.269  19.066  0.00  0.00    +0.112 C 
ATOM     25  C   UNL     1      -7.859 -10.329  18.332  0.00  0.00    +0.175 C 
ATOM     26  C   UNL     1      -7.347 -12.207  19.650  0.00  0.00    +0.175 C 
ENDBRANCH  22   5
ENDBRANCH  21  22
ENDBRANCH   4  21
ENDBRANCH  15   4
ENDBRANCH   9  15
BRANCH  11  16
ATOM     16  C   UNL     1      -3.741  -8.821  10.048  0.00  0.00    +0.105 C 
BRANCH  16  20
ATOM      2  O   UNL     1      -6.093  -8.273   9.699  0.00  0.00    -0.420 OA
ATOM      6  N   UNL     1      -5.191  -9.516   8.073  0.00  0.00    -0.112 NA
ATOM      7  N   UNL     1      -6.514  -9.283   7.747  0.00  0.00    -0.107 NA
ATOM     20  C   UNL     1      -4.989  -8.908   9.218  0.00  0.00    +0.218 A 
ATOM     27  C   UNL     1      -7.001  -8.553   8.724  0.00  0.00    +0.251 A 
BRANCH  27  28
ATOM      1  F   UNL     1      -7.716  -6.001   7.809  0.00  0.00    -0.205 F 
ATOM     28  C   UNL     1      -8.317  -8.017   8.918  0.00  0.00    +0.074 A 
ATOM     29  C   UNL     1      -8.632  -6.743   8.449  0.00  0.00    +0.136 A 
ATOM     30  C   UNL     1      -9.282  -8.776   9.580  0.00  0.00    +0.016 A 
ATOM     31  C   UNL     1      -9.913  -6.226   8.642  0.00  0.00    +0.039 A 
ATOM     32  C   UNL     1     -10.564  -8.258   9.774  0.00  0.00    +0.001 A 
ATOM     33  C   UNL     1     -10.879  -6.984   9.305  0.00  0.00    +0.003 A 
ENDBRANCH  27  28
ENDBRANCH  16  20
ENDBRANCH  11  16
TORSDOF 9
ENDMDL
MODEL 8
REMARK VINA RESULT:      -6.1     24.274     27.571
REMARK  Name = 38030976
REMARK  12 active torsions:
REMARK  status: ('A' for Active; 'I' for Inactive)
REMARK    1  A    between atoms: N_4  and  C_15
REMARK    2  A    between atoms: N_4  and  C_21
REMARK    3  A    between atoms: N_5  and  C_22
REMARK    4  A    between atoms: C_8  and  C_12
REMARK    5  A    between atoms: C_9  and  C_15
REMARK    6  A    between atoms: C_11  and  C_16
REMARK    7  A    between atoms: C_12  and  C_17
REMARK    8  A    between atoms: C_12  and  C_18
REMARK    9  A    between atoms: C_13  and  C_19
REMARK   10  A    between atoms: C_16  and  C_20
REMARK   11  A    between atoms: C_21  and  C_22
REMARK   12  A    between atoms: C_27  and  C_28
REMARK                            x       y       z     vdW  Elec       q    Type
REMARK                         _______ _______ _______ _____ _____    ______ ____
ROOT
ATOM      8  C   UNL     1       8.991   8.508   5.007  0.00  0.00    +0.000 C 
ATOM      9  C   UNL     1       8.585   8.316   6.490  0.00  0.00    +0.029 C 
ATOM     10  C   UNL     1       8.805   7.200   4.226  0.00  0.00    +0.012 C 
ATOM     11  C   UNL     1       9.638   6.046   4.813  0.00  0.00    +0.024 C 
ATOM     13  C   UNL     1       9.498   5.960   6.319  0.00  0.00    -0.073 C 
ATOM     14  C   UNL     1       9.013   6.979   7.051  0.00  0.00    -0.023 C 
ATOM     19  C   UNL     1       9.887   4.658   6.963  0.00  0.00    +0.039 C 
ENDROOT
BRANCH   8  12
ATOM     12  C   UNL     1       8.188   9.630   4.340  0.00  0.00    -0.013 C 
ATOM     17  C   UNL     1       7.404   9.088   3.150  0.00  0.00    +0.007 C 
ATOM     18  C   UNL     1       9.115  10.762   3.907  0.00  0.00    +0.007 C 
ENDBRANCH   8  12
BRANCH   9  15
ATOM     15  C   UNL     1       9.145   9.441   7.368  0.00  0.00    +0.088 C 
BRANCH  15   4
ATOM      4  N   UNL     1      10.351   9.007   8.052  0.00  0.00    -0.314 NA
ATOM     34  H   UNL     1      10.310   9.248   9.041  0.00  0.00    +0.122 HD
BRANCH   4  21
ATOM     21  C   UNL     1      11.538   9.609   7.458  0.00  0.00    +0.096 C 
BRANCH  21  22
ATOM     22  C   UNL     1      12.360   8.548   6.733  0.00  0.00    +0.099 C 
BRANCH  22   5
ATOM      3  O   UNL     1      16.250   9.752   5.715  0.00  0.00    -0.377 OA
ATOM      5  N   UNL     1      13.784   8.864   6.825  0.00  0.00    -0.297 NA
ATOM     23  C   UNL     1      14.025  10.283   6.526  0.00  0.00    +0.112 C 
ATOM     24  C   UNL     1      14.566   8.016   5.915  0.00  0.00    +0.112 C 
ATOM     25  C   UNL     1      15.518  10.584   6.615  0.00  0.00    +0.175 C 
ATOM     26  C   UNL     1      16.046   8.372   6.021  0.00  0.00    +0.175 C 
ENDBRANCH  22   5
ENDBRANCH  21  22
ENDBRANCH   4  21
ENDBRANCH  15   4
ENDBRANCH   9  15
BRANCH  11  16
ATOM     16  C   UNL     1      11.111   6.165   4.405  0.00  0.00    +0.105 C 
BRANCH  16  20
ATOM      2  O   UNL     1      12.548   5.424   2.577  0.00  0.00    -0.420 OA
ATOM      6  N   UNL     1      10.917   3.986   3.102  0.00  0.00    -0.112 NA
ATOM      7  N   UNL     1      11.646   3.442   2.060  0.00  0.00    -0.107 NA
ATOM     20  C   UNL     1      11.479   5.141   3.370  0.00  0.00    +0.218 A 
ATOM     27  C   UNL     1      12.588   4.316   1.787  0.00  0.00    +0.251 A 
BRANCH  27  28
ATOM      1  F   UNL     1      15.193   3.489   2.412  0.00  0.00    -0.205 F 
ATOM     28  C   UNL     1      13.631   4.283   0.803  0.00  0.00    +0.074 A 
ATOM     29  C   UNL     1      14.914   3.866   1.155  0.00  0.00    +0.136 A 
ATOM     30  C   UNL     1      13.358   4.671  -0.508  0.00  0.00    +0.016 A 
ATOM     31  C   UNL     1      15.926   3.837   0.195  0.00  0.00    +0.039 A 
ATOM     32  C   UNL     1      14.370   4.643  -1.469  0.00  0.00    +0.001 A 
ATOM     33  C   UNL     1      15.653   4.226  -1.117  0.00  0.00    +0.003 A 
ENDBRANCH  27  28
ENDBRANCH  16  20
ENDBRANCH  11  16
TORSDOF 9
ENDMDL
MODEL 9
REMARK VINA RESULT:      -6.1      2.799      4.684
REMARK  Name = 38030976
REMARK  12 active torsions:
REMARK  status: ('A' for Active; 'I' for Inactive)
REMARK    1  A    between atoms: N_4  and  C_15
REMARK    2  A    between atoms: N_4  and  C_21
REMARK    3  A    between atoms: N_5  and  C_22
REMARK    4  A    between atoms: C_8  and  C_12
REMARK    5  A    between atoms: C_9  and  C_15
REMARK    6  A    between atoms: C_11  and  C_16
REMARK    7  A    between atoms: C_12  and  C_17
REMARK    8  A    between atoms: C_12  and  C_18
REMARK    9  A    between atoms: C_13  and  C_19
REMARK   10  A    between atoms: C_16  and  C_20
REMARK   11  A    between atoms: C_21  and  C_22
REMARK   12  A    between atoms: C_27  and  C_28
REMARK                            x       y       z     vdW  Elec       q    Type
REMARK                         _______ _______ _______ _____ _____    ______ ____
ROOT
ATOM      8  C   UNL     1      -9.305  -9.428  15.958  0.00  0.00    +0.000 C 
ATOM      9  C   UNL     1     -10.697  -9.119  16.566  0.00  0.00    +0.029 C 
ATOM     10  C   UNL     1      -8.809 -10.804  16.424  0.00  0.00    +0.012 C 
ATOM     11  C   UNL     1      -8.704 -10.898  17.957  0.00  0.00    +0.024 C 
ATOM     13  C   UNL     1      -9.943 -10.359  18.641  0.00  0.00    -0.073 C 
ATOM     14  C   UNL     1     -10.829  -9.576  18.000  0.00  0.00    -0.023 C 
ATOM     19  C   UNL     1     -10.166 -10.776  20.069  0.00  0.00    +0.039 C 
ENDROOT
BRANCH   8  12
ATOM     12  C   UNL     1      -9.329  -9.375  14.427  0.00  0.00    -0.013 C 
ATOM     17  C   UNL     1     -10.508 -10.176  13.886  0.00  0.00    +0.007 C 
ATOM     18  C   UNL     1      -8.013  -9.895  13.857  0.00  0.00    +0.007 C 
ENDBRANCH   8  12
BRANCH   9  15
ATOM     15  C   UNL     1     -11.021  -7.624  16.474  0.00  0.00    +0.088 C 
BRANCH  15   4
ATOM      4  N   UNL     1     -12.449  -7.419  16.299  0.00  0.00    -0.314 NA
ATOM     34  H   UNL     1     -12.867  -8.203  15.801  0.00  0.00    +0.122 HD
BRANCH   4  21
ATOM     21  C   UNL     1     -12.716  -6.186  15.568  0.00  0.00    +0.096 C 
BRANCH  21  22
ATOM     22  C   UNL     1     -13.864  -6.395  14.585  0.00  0.00    +0.099 C 
BRANCH  22   5
ATOM      3  O   UNL     1     -13.426  -2.976  12.191  0.00  0.00    -0.377 OA
ATOM      5  N   UNL     1     -13.695  -5.529  13.420  0.00  0.00    -0.297 NA
ATOM     23  C   UNL     1     -12.449  -4.755  13.523  0.00  0.00    +0.112 C 
ATOM     24  C   UNL     1     -14.842  -4.623  13.273  0.00  0.00    +0.112 C 
ATOM     25  C   UNL     1     -12.302  -3.849  12.303  0.00  0.00    +0.175 C 
ATOM     26  C   UNL     1     -14.636  -3.722  12.059  0.00  0.00    +0.175 C 
ENDBRANCH  22   5
ENDBRANCH  21  22
ENDBRANCH   4  21
ENDBRANCH  15   4
ENDBRANCH   9  15
BRANCH  11  16
ATOM     16  C   UNL     1      -7.443 -10.191  18.468  0.00  0.00    +0.105 C 
BRANCH  16  20
ATOM      2  O   UNL     1      -5.464 -10.300  17.045  0.00  0.00    -0.420 OA
ATOM      6  N   UNL     1      -5.690 -12.038  18.435  0.00  0.00    -0.112 NA
ATOM      7  N   UNL     1      -4.537 -12.230  17.697  0.00  0.00    -0.107 NA
ATOM     20  C   UNL     1      -6.197 -10.900  18.022  0.00  0.00    +0.218 A 
ATOM     27  C   UNL     1      -4.445 -11.190  16.899  0.00  0.00    +0.251 A 
BRANCH  27  28
ATOM      1  F   UNL     1      -5.036 -11.130  14.159  0.00  0.00    -0.205 F 
ATOM     28  C   UNL     1      -3.456 -10.857  15.915  0.00  0.00    +0.074 A 
ATOM     29  C   UNL     1      -3.790 -10.839  14.562  0.00  0.00    +0.136 A 
ATOM     30  C   UNL     1      -2.156 -10.550  16.317  0.00  0.00    +0.016 A 
ATOM     31  C   UNL     1      -2.824 -10.516  13.609  0.00  0.00    +0.039 A 
ATOM     32  C   UNL     1      -1.189 -10.227  15.364  0.00  0.00    +0.001 A 
ATOM     33  C   UNL     1      -1.523 -10.209  14.011  0.00  0.00    +0.003 A 
ENDBRANCH  27  28
ENDBRANCH  16  20
ENDBRANCH  11  16
TORSDOF 9
ENDMDL
MODEL 10
REMARK VINA RESULT:      -6.0     18.932     20.864
REMARK  Name = 38030976
REMARK  12 active torsions:
REMARK  status: ('A' for Active; 'I' for Inactive)
REMARK    1  A    between atoms: N_4  and  C_15
REMARK    2  A    between atoms: N_4  and  C_21
REMARK    3  A    between atoms: N_5  and  C_22
REMARK    4  A    between atoms: C_8  and  C_12
REMARK    5  A    between atoms: C_9  and  C_15
REMARK    6  A    between atoms: C_11  and  C_16
REMARK    7  A    between atoms: C_12  and  C_17
REMARK    8  A    between atoms: C_12  and  C_18
REMARK    9  A    between atoms: C_13  and  C_19
REMARK   10  A    between atoms: C_16  and  C_20
REMARK   11  A    between atoms: C_21  and  C_22
REMARK   12  A    between atoms: C_27  and  C_28
REMARK                            x       y       z     vdW  Elec       q    Type
REMARK                         _______ _______ _______ _____ _____    ______ ____
ROOT
ATOM      8  C   UNL     1     -16.198   6.030  22.451  0.00  0.00    +0.000 C 
ATOM      9  C   UNL     1     -15.313   4.760  22.529  0.00  0.00    +0.029 C 
ATOM     10  C   UNL     1     -15.824   6.870  21.222  0.00  0.00    +0.012 C 
ATOM     11  C   UNL     1     -14.347   7.306  21.240  0.00  0.00    +0.024 C 
ATOM     13  C   UNL     1     -13.424   6.153  21.577  0.00  0.00    -0.073 C 
ATOM     14  C   UNL     1     -13.875   5.018  22.140  0.00  0.00    -0.023 C 
ATOM     19  C   UNL     1     -11.975   6.315  21.210  0.00  0.00    +0.039 C 
ENDROOT
BRANCH   8  12
ATOM     12  C   UNL     1     -17.689   5.681  22.408  0.00  0.00    -0.013 C 
ATOM     17  C   UNL     1     -18.235   5.851  20.994  0.00  0.00    +0.007 C 
ATOM     18  C   UNL     1     -18.466   6.546  23.396  0.00  0.00    +0.007 C 
ENDBRANCH   8  12
BRANCH   9  15
ATOM     15  C   UNL     1     -15.360   4.137  23.928  0.00  0.00    +0.088 C 
BRANCH  15   4
ATOM      4  N   UNL     1     -15.949   2.810  23.880  0.00  0.00    -0.314 NA
ATOM     34  H   UNL     1     -16.780   2.807  23.290  0.00  0.00    +0.122 HD
BRANCH   4  21
ATOM     21  C   UNL     1     -16.303   2.345  25.215  0.00  0.00    +0.096 C 
BRANCH  21  22
ATOM     22  C   UNL     1     -16.262   3.505  26.205  0.00  0.00    +0.099 C 
BRANCH  22   5
ATOM      3  O   UNL     1     -16.361   2.221  30.200  0.00  0.00    -0.377 OA
ATOM      5  N   UNL     1     -15.840   3.030  27.521  0.00  0.00    -0.297 NA
ATOM     23  C   UNL     1     -16.447   1.726  27.825  0.00  0.00    +0.112 C 
ATOM     24  C   UNL     1     -16.188   4.004  28.564  0.00  0.00    +0.112 C 
ATOM     25  C   UNL     1     -16.003   1.258  29.208  0.00  0.00    +0.175 C 
ATOM     26  C   UNL     1     -15.748   3.482  29.928  0.00  0.00    +0.175 C 
ENDBRANCH  22   5
ENDBRANCH  21  22
ENDBRANCH   4  21
ENDBRANCH  15   4
ENDBRANCH   9  15
BRANCH  11  16
ATOM     16  C   UNL     1     -14.130   8.481  22.200  0.00  0.00    +0.105 C 
BRANCH  16  20
ATOM      2  O   UNL     1     -12.942   9.393  20.273  0.00  0.00    -0.420 OA
ATOM      6  N   UNL     1     -12.675  10.571  22.155  0.00  0.00    -0.112 NA
ATOM      7  N   UNL     1     -11.953  11.196  21.156  0.00  0.00    -0.107 NA
ATOM     20  C   UNL     1     -13.235   9.525  21.595  0.00  0.00    +0.218 A 
ATOM     27  C   UNL     1     -12.139  10.474  20.074  0.00  0.00    +0.251 A 
BRANCH  27  28
ATOM      1  F   UNL     1      -9.650   9.453  19.286  0.00  0.00    -0.205 F 
ATOM     28  C   UNL     1     -11.635  10.646  18.743  0.00  0.00    +0.074 A 
ATOM     29  C   UNL     1     -10.391  10.123  18.391  0.00  0.00    +0.136 A 
ATOM     30  C   UNL     1     -12.393  11.339  17.799  0.00  0.00    +0.016 A 
ATOM     31  C   UNL     1      -9.904  10.294  17.095  0.00  0.00    +0.039 A 
ATOM     32  C   UNL     1     -11.906  11.511  16.503  0.00  0.00    +0.001 A 
ATOM     33  C   UNL     1     -10.662  10.988  16.151  0.00  0.00    +0.003 A 
ENDBRANCH  27  28
ENDBRANCH  16  20
ENDBRANCH  11  16
TORSDOF 9
ENDMDL
