MODEL 1
REMARK VINA RESULT:      -7.3      0.000      0.000
REMARK  Name = 75536616
REMARK  6 active torsions:
REMARK  status: ('A' for Active; 'I' for Inactive)
REMARK    1  A    between atoms: O_2  and  C_8
REMARK    2  A    between atoms: N_4  and  C_7
REMARK    3  A    between atoms: N_4  and  C_9
REMARK    4  A    between atoms: N_6  and  C_16
REMARK    5  A    between atoms: C_10  and  C_16
REMARK    6  A    between atoms: C_17  and  C_18
REMARK                            x       y       z     vdW  Elec       q    Type
REMARK                         _______ _______ _______ _____ _____    ______ ____
ROOT
ATOM      1  O   UNL     1      10.724   7.497  21.233  0.00  0.00    -0.371 OA
ATOM      7  C   UNL     1      11.745   9.512  21.966  0.00  0.00    +0.111 C 
ATOM      8  C   UNL     1      12.647   8.844  20.946  0.00  0.00    +0.164 C 
ATOM     10  C   UNL     1      11.658   7.934  20.231  0.00  0.00    +0.165 C 
ATOM     11  C   UNL     1      10.850   8.355  22.380  0.00  0.00    +0.181 C 
ENDROOT
BRANCH   8   2
ATOM      2  O   UNL     1      13.250   9.768  20.060  0.00  0.00    -0.388 OA
ATOM     26  H   UNL     1      13.928   9.299  19.546  0.00  0.00    +0.210 HD
ENDBRANCH   8   2
BRANCH   7   4
ATOM      4  N   UNL     1      12.464  10.100  23.085  0.00  0.00    -0.306 NA
ATOM     24  H   UNL     1      13.465  10.112  22.891  0.00  0.00    +0.123 HD
BRANCH   4   9
ATOM      5  N   UNL     1       9.783  13.369  23.559  0.00  0.00    -0.316 NA
ATOM      9  C   UNL     1      11.995  11.458  23.347  0.00  0.00    +0.056 C 
ATOM     12  C   UNL     1      11.280  12.020  22.113  0.00  0.00    +0.034 C 
ATOM     13  C   UNL     1      11.058  11.491  24.560  0.00  0.00    +0.034 C 
ATOM     14  C   UNL     1      10.688  13.399  22.408  0.00  0.00    +0.082 C 
ATOM     15  C   UNL     1      10.476  12.891  24.760  0.00  0.00    +0.082 C 
ATOM     25  H   UNL     1       9.424  14.308  23.730  0.00  0.00    +0.122 HD
ENDBRANCH   4   9
ENDBRANCH   7   4
BRANCH  10  16
ATOM     16  C   UNL     1      12.312   6.728  19.579  0.00  0.00    +0.138 C 
BRANCH  16   6
ATOM      3  O   UNL     1      14.602   7.477  18.018  0.00  0.00    -0.270 OA
ATOM      6  N   UNL     1      13.688   6.608  19.965  0.00  0.00    -0.309 N 
ATOM     17  C   UNL     1      14.739   6.999  19.140  0.00  0.00    +0.244 C 
ATOM     27  H   UNL     1      13.873   6.154  20.853  0.00  0.00    +0.149 HD
BRANCH  17  18
ATOM     18  C   UNL     1      16.108   6.785  19.676  0.00  0.00    +0.037 A 
ATOM     19  C   UNL     1      16.517   7.453  20.830  0.00  0.00    +0.013 A 
ATOM     20  C   UNL     1      16.983   5.916  19.026  0.00  0.00    +0.013 A 
ATOM     21  C   UNL     1      17.803   7.250  21.334  0.00  0.00    +0.001 A 
ATOM     22  C   UNL     1      18.268   5.713  19.529  0.00  0.00    +0.001 A 
ATOM     23  C   UNL     1      18.678   6.380  20.683  0.00  0.00    +0.000 A 
ENDBRANCH  17  18
ENDBRANCH  16   6
ENDBRANCH  10  16
TORSDOF 6
ENDMDL
MODEL 2
REMARK VINA RESULT:      -7.1      3.396      5.086
REMARK  Name = 75536616
REMARK  6 active torsions:
REMARK  status: ('A' for Active; 'I' for Inactive)
REMARK    1  A    between atoms: O_2  and  C_8
REMARK    2  A    between atoms: N_4  and  C_7
REMARK    3  A    between atoms: N_4  and  C_9
REMARK    4  A    between atoms: N_6  and  C_16
REMARK    5  A    between atoms: C_10  and  C_16
REMARK    6  A    between atoms: C_17  and  C_18
REMARK                            x       y       z     vdW  Elec       q    Type
REMARK                         _______ _______ _______ _____ _____    ______ ____
ROOT
ATOM      1  O   UNL     1      12.384   8.687  21.821  0.00  0.00    -0.371 OA
ATOM      7  C   UNL     1      12.356   6.928  20.224  0.00  0.00    +0.111 C 
ATOM      8  C   UNL     1      13.795   7.237  20.595  0.00  0.00    +0.164 C 
ATOM     10  C   UNL     1      13.609   7.942  21.932  0.00  0.00    +0.165 C 
ATOM     11  C   UNL     1      11.649   8.191  20.689  0.00  0.00    +0.181 C 
ENDROOT
BRANCH   8   2
ATOM      2  O   UNL     1      14.590   6.073  20.719  0.00  0.00    -0.388 OA
ATOM     26  H   UNL     1      14.152   5.470  21.342  0.00  0.00    +0.210 HD
ENDBRANCH   8   2
BRANCH   7   4
ATOM      4  N   UNL     1      12.163   6.659  18.809  0.00  0.00    -0.306 NA
ATOM     24  H   UNL     1      11.191   6.407  18.630  0.00  0.00    +0.123 HD
BRANCH   4   9
ATOM      5  N   UNL     1      12.995   9.029  15.375  0.00  0.00    -0.316 NA
ATOM      9  C   UNL     1      12.526   7.823  18.005  0.00  0.00    +0.056 C 
ATOM     12  C   UNL     1      13.787   7.529  17.185  0.00  0.00    +0.034 C 
ATOM     13  C   UNL     1      11.376   8.230  17.077  0.00  0.00    +0.034 C 
ATOM     14  C   UNL     1      14.118   8.699  16.257  0.00  0.00    +0.082 C 
ATOM     15  C   UNL     1      11.801   9.373  16.153  0.00  0.00    +0.082 C 
ATOM     25  H   UNL     1      13.251   9.821  14.786  0.00  0.00    +0.122 HD
ENDBRANCH   4   9
ENDBRANCH   7   4
BRANCH  10  16
ATOM     16  C   UNL     1      14.751   8.881  22.280  0.00  0.00    +0.138 C 
BRANCH  16   6
ATOM      3  O   UNL     1      16.964  10.009  20.842  0.00  0.00    -0.270 OA
ATOM      6  N   UNL     1      16.024   8.264  22.047  0.00  0.00    -0.309 N 
ATOM     17  C   UNL     1      17.045   8.888  21.335  0.00  0.00    +0.244 C 
ATOM     27  H   UNL     1      16.131   7.307  22.366  0.00  0.00    +0.149 HD
BRANCH  17  18
ATOM     18  C   UNL     1      18.294   8.104  21.157  0.00  0.00    +0.037 A 
ATOM     19  C   UNL     1      19.533   8.707  21.380  0.00  0.00    +0.013 A 
ATOM     20  C   UNL     1      18.229   6.767  20.769  0.00  0.00    +0.013 A 
ATOM     21  C   UNL     1      20.706   7.971  21.215  0.00  0.00    +0.001 A 
ATOM     22  C   UNL     1      19.402   6.031  20.604  0.00  0.00    +0.001 A 
ATOM     23  C   UNL     1      20.641   6.632  20.827  0.00  0.00    +0.000 A 
ENDBRANCH  17  18
ENDBRANCH  16   6
ENDBRANCH  10  16
TORSDOF 6
ENDMDL
MODEL 3
REMARK VINA RESULT:      -6.5     25.935     27.689
REMARK  Name = 75536616
REMARK  6 active torsions:
REMARK  status: ('A' for Active; 'I' for Inactive)
REMARK    1  A    between atoms: O_2  and  C_8
REMARK    2  A    between atoms: N_4  and  C_7
REMARK    3  A    between atoms: N_4  and  C_9
REMARK    4  A    between atoms: N_6  and  C_16
REMARK    5  A    between atoms: C_10  and  C_16
REMARK    6  A    between atoms: C_17  and  C_18
REMARK                            x       y       z     vdW  Elec       q    Type
REMARK                         _______ _______ _______ _____ _____    ______ ____
ROOT
ATOM      1  O   UNL     1      -1.445 -11.326  15.023  0.00  0.00    -0.371 OA
ATOM      7  C   UNL     1      -3.634 -10.947  15.863  0.00  0.00    +0.111 C 
ATOM      8  C   UNL     1      -3.681 -10.960  14.346  0.00  0.00    +0.164 C 
ATOM     10  C   UNL     1      -2.398 -11.711  14.019  0.00  0.00    +0.165 C 
ATOM     11  C   UNL     1      -2.153 -10.715  16.115  0.00  0.00    +0.181 C 
ENDROOT
BRANCH   8   2
ATOM      2  O   UNL     1      -4.824 -11.622  13.840  0.00  0.00    -0.388 OA
ATOM     26  H   UNL     1      -5.125 -11.147  13.047  0.00  0.00    +0.210 HD
ENDBRANCH   8   2
BRANCH   7   4
ATOM      4  N   UNL     1      -4.477  -9.928  16.465  0.00  0.00    -0.306 NA
ATOM     24  H   UNL     1      -4.880  -9.333  15.741  0.00  0.00    +0.123 HD
BRANCH   4   9
ATOM      5  N   UNL     1      -7.376 -10.424  19.539  0.00  0.00    -0.316 NA
ATOM      9  C   UNL     1      -5.546 -10.537  17.253  0.00  0.00    +0.056 C 
ATOM     12  C   UNL     1      -5.073 -10.780  18.690  0.00  0.00    +0.034 C 
ATOM     13  C   UNL     1      -6.800  -9.656  17.252  0.00  0.00    +0.034 C 
ATOM     14  C   UNL     1      -6.214 -11.316  19.556  0.00  0.00    +0.082 C 
ATOM     15  C   UNL     1      -7.874 -10.237  18.173  0.00  0.00    +0.082 C 
ATOM     25  H   UNL     1      -8.116 -10.826  20.114  0.00  0.00    +0.122 HD
ENDBRANCH   4   9
ENDBRANCH   7   4
BRANCH  10  16
ATOM     16  C   UNL     1      -1.849 -11.391  12.639  0.00  0.00    +0.138 C 
BRANCH  16   6
ATOM      3  O   UNL     1      -1.783  -9.197  10.790  0.00  0.00    -0.270 OA
ATOM      6  N   UNL     1      -2.894 -10.999  11.739  0.00  0.00    -0.309 N 
ATOM     17  C   UNL     1      -2.775  -9.916  10.873  0.00  0.00    +0.244 C 
ATOM     27  H   UNL     1      -3.768 -11.508  11.808  0.00  0.00    +0.149 HD
BRANCH  17  18
ATOM     18  C   UNL     1      -3.957  -9.623  10.023  0.00  0.00    +0.037 A 
ATOM     19  C   UNL     1      -4.262 -10.452   8.943  0.00  0.00    +0.013 A 
ATOM     20  C   UNL     1      -4.763  -8.521  10.305  0.00  0.00    +0.013 A 
ATOM     21  C   UNL     1      -5.374 -10.178   8.146  0.00  0.00    +0.001 A 
ATOM     22  C   UNL     1      -5.874  -8.246   9.508  0.00  0.00    +0.001 A 
ATOM     23  C   UNL     1      -6.180  -9.075   8.428  0.00  0.00    +0.000 A 
ENDBRANCH  17  18
ENDBRANCH  16   6
ENDBRANCH  10  16
TORSDOF 6
ENDMDL
MODEL 4
REMARK VINA RESULT:      -6.5     29.762     31.300
REMARK  Name = 75536616
REMARK  6 active torsions:
REMARK  status: ('A' for Active; 'I' for Inactive)
REMARK    1  A    between atoms: O_2  and  C_8
REMARK    2  A    between atoms: N_4  and  C_7
REMARK    3  A    between atoms: N_4  and  C_9
REMARK    4  A    between atoms: N_6  and  C_16
REMARK    5  A    between atoms: C_10  and  C_16
REMARK    6  A    between atoms: C_17  and  C_18
REMARK                            x       y       z     vdW  Elec       q    Type
REMARK                         _______ _______ _______ _____ _____    ______ ____
ROOT
ATOM      1  O   UNL     1     -16.470   0.247  29.023  0.00  0.00    -0.371 OA
ATOM      7  C   UNL     1     -16.528   2.201  27.674  0.00  0.00    +0.111 C 
ATOM      8  C   UNL     1     -15.769   2.505  28.953  0.00  0.00    +0.164 C 
ATOM     10  C   UNL     1     -15.380   1.103  29.403  0.00  0.00    +0.165 C 
ATOM     11  C   UNL     1     -17.287   0.944  28.067  0.00  0.00    +0.181 C 
ENDROOT
BRANCH   8   2
ATOM      2  O   UNL     1     -14.635   3.322  28.734  0.00  0.00    -0.388 OA
ATOM     26  H   UNL     1     -14.379   3.245  27.800  0.00  0.00    +0.210 HD
ENDBRANCH   8   2
BRANCH   7   4
ATOM      4  N   UNL     1     -17.403   3.279  27.245  0.00  0.00    -0.306 NA
ATOM     24  H   UNL     1     -17.236   4.112  27.809  0.00  0.00    +0.123 HD
BRANCH   4   9
ATOM      5  N   UNL     1     -16.173   2.799  23.200  0.00  0.00    -0.316 NA
ATOM      9  C   UNL     1     -17.190   3.589  25.833  0.00  0.00    +0.056 C 
ATOM     12  C   UNL     1     -15.693   3.576  25.506  0.00  0.00    +0.034 C 
ATOM     13  C   UNL     1     -17.935   2.594  24.935  0.00  0.00    +0.034 C 
ATOM     14  C   UNL     1     -15.460   3.789  24.010  0.00  0.00    +0.082 C 
ATOM     15  C   UNL     1     -17.615   2.847  23.461  0.00  0.00    +0.082 C 
ATOM     25  H   UNL     1     -16.004   2.986  22.212  0.00  0.00    +0.122 HD
ENDBRANCH   4   9
ENDBRANCH   7   4
BRANCH  10  16
ATOM     16  C   UNL     1     -15.140   0.997  30.898  0.00  0.00    +0.138 C 
BRANCH  16   6
ATOM      3  O   UNL     1     -14.565   1.547  33.656  0.00  0.00    -0.270 OA
ATOM      6  N   UNL     1     -14.869   2.280  31.476  0.00  0.00    -0.309 N 
ATOM     17  C   UNL     1     -14.599   2.455  32.831  0.00  0.00    +0.244 C 
ATOM     27  H   UNL     1     -14.952   3.083  30.861  0.00  0.00    +0.149 HD
BRANCH  17  18
ATOM     18  C   UNL     1     -14.365   3.852  33.278  0.00  0.00    +0.037 A 
ATOM     19  C   UNL     1     -14.080   4.846  32.341  0.00  0.00    +0.013 A 
ATOM     20  C   UNL     1     -14.430   4.170  34.634  0.00  0.00    +0.013 A 
ATOM     21  C   UNL     1     -13.862   6.158  32.762  0.00  0.00    +0.001 A 
ATOM     22  C   UNL     1     -14.212   5.482  35.055  0.00  0.00    +0.001 A 
ATOM     23  C   UNL     1     -13.928   6.476  34.119  0.00  0.00    +0.000 A 
ENDBRANCH  17  18
ENDBRANCH  16   6
ENDBRANCH  10  16
TORSDOF 6
ENDMDL
MODEL 5
REMARK VINA RESULT:      -6.4      4.471      9.081
REMARK  Name = 75536616
REMARK  6 active torsions:
REMARK  status: ('A' for Active; 'I' for Inactive)
REMARK    1  A    between atoms: O_2  and  C_8
REMARK    2  A    between atoms: N_4  and  C_7
REMARK    3  A    between atoms: N_4  and  C_9
REMARK    4  A    between atoms: N_6  and  C_16
REMARK    5  A    between atoms: C_10  and  C_16
REMARK    6  A    between atoms: C_17  and  C_18
REMARK                            x       y       z     vdW  Elec       q    Type
REMARK                         _______ _______ _______ _____ _____    ______ ____
ROOT
ATOM      1  O   UNL     1      17.274   7.206  21.076  0.00  0.00    -0.371 OA
ATOM      7  C   UNL     1      18.945   5.934  19.965  0.00  0.00    +0.111 C 
ATOM      8  C   UNL     1      17.592   5.609  19.361  0.00  0.00    +0.164 C 
ATOM     10  C   UNL     1      16.782   6.829  19.779  0.00  0.00    +0.165 C 
ATOM     11  C   UNL     1      18.539   6.557  21.291  0.00  0.00    +0.181 C 
ENDROOT
BRANCH   8   2
ATOM      2  O   UNL     1      17.641   5.466  17.954  0.00  0.00    -0.388 OA
ATOM     26  H   UNL     1      16.993   6.075  17.563  0.00  0.00    +0.210 HD
ENDBRANCH   8   2
BRANCH   7   4
ATOM      4  N   UNL     1      19.807   4.775  20.124  0.00  0.00    -0.306 NA
ATOM     24  H   UNL     1      20.166   4.477  19.217  0.00  0.00    +0.123 HD
BRANCH   4   9
ATOM      5  N   UNL     1      23.793   4.989  21.595  0.00  0.00    -0.316 NA
ATOM      9  C   UNL     1      20.921   5.076  21.020  0.00  0.00    +0.056 C 
ATOM     12  C   UNL     1      21.632   3.784  21.436  0.00  0.00    +0.034 C 
ATOM     13  C   UNL     1      21.916   6.035  20.356  0.00  0.00    +0.034 C 
ATOM     14  C   UNL     1      22.866   4.090  22.286  0.00  0.00    +0.082 C 
ATOM     15  C   UNL     1      23.138   6.254  21.249  0.00  0.00    +0.082 C 
ATOM     25  H   UNL     1      24.591   5.179  22.201  0.00  0.00    +0.122 HD
ENDBRANCH   4   9
ENDBRANCH   7   4
BRANCH  10  16
ATOM     16  C   UNL     1      15.289   6.562  19.855  0.00  0.00    +0.138 C 
BRANCH  16   6
ATOM      3  O   UNL     1      12.443   6.656  19.495  0.00  0.00    -0.270 OA
ATOM      6  N   UNL     1      14.578   7.279  18.836  0.00  0.00    -0.309 N 
ATOM     17  C   UNL     1      13.190   7.268  18.737  0.00  0.00    +0.244 C 
ATOM     27  H   UNL     1      15.140   7.747  18.133  0.00  0.00    +0.149 HD
BRANCH  17  18
ATOM     18  C   UNL     1      12.607   8.039  17.609  0.00  0.00    +0.037 A 
ATOM     19  C   UNL     1      13.444   8.705  16.713  0.00  0.00    +0.013 A 
ATOM     20  C   UNL     1      11.224   8.097  17.446  0.00  0.00    +0.013 A 
ATOM     21  C   UNL     1      12.896   9.428  15.653  0.00  0.00    +0.001 A 
ATOM     22  C   UNL     1      10.676   8.820  16.386  0.00  0.00    +0.001 A 
ATOM     23  C   UNL     1      11.512   9.485  15.489  0.00  0.00    +0.000 A 
ENDBRANCH  17  18
ENDBRANCH  16   6
ENDBRANCH  10  16
TORSDOF 6
ENDMDL
MODEL 6
REMARK VINA RESULT:      -6.1     26.045     28.227
REMARK  Name = 75536616
REMARK  6 active torsions:
REMARK  status: ('A' for Active; 'I' for Inactive)
REMARK    1  A    between atoms: O_2  and  C_8
REMARK    2  A    between atoms: N_4  and  C_7
REMARK    3  A    between atoms: N_4  and  C_9
REMARK    4  A    between atoms: N_6  and  C_16
REMARK    5  A    between atoms: C_10  and  C_16
REMARK    6  A    between atoms: C_17  and  C_18
REMARK                            x       y       z     vdW  Elec       q    Type
REMARK                         _______ _______ _______ _____ _____    ______ ____
ROOT
ATOM      1  O   UNL     1      -8.696 -11.012  18.769  0.00  0.00    -0.371 OA
ATOM      7  C   UNL     1      -9.289  -9.154  17.413  0.00  0.00    +0.111 C 
ATOM      8  C   UNL     1      -7.780  -9.314  17.400  0.00  0.00    +0.164 C 
ATOM     10  C   UNL     1      -7.636 -10.768  17.830  0.00  0.00    +0.165 C 
ATOM     11  C   UNL     1      -9.666  -9.957  18.648  0.00  0.00    +0.181 C 
ENDROOT
BRANCH   8   2
ATOM      2  O   UNL     1      -7.217  -9.083  16.123  0.00  0.00    -0.388 OA
ATOM     26  H   UNL     1      -7.888  -8.654  15.567  0.00  0.00    +0.210 HD
ENDBRANCH   8   2
BRANCH   7   4
ATOM      4  N   UNL     1      -9.729  -7.770  17.483  0.00  0.00    -0.306 NA
ATOM     24  H   UNL     1      -8.953  -7.169  17.759  0.00  0.00    +0.123 HD
BRANCH   4   9
ATOM      5  N   UNL     1     -12.546  -6.962  14.399  0.00  0.00    -0.316 NA
ATOM      9  C   UNL     1     -10.259  -7.330  16.195  0.00  0.00    +0.056 C 
ATOM     12  C   UNL     1     -10.920  -8.503  15.464  0.00  0.00    +0.034 C 
ATOM     13  C   UNL     1     -11.266  -6.188  16.378  0.00  0.00    +0.034 C 
ATOM     14  C   UNL     1     -11.577  -8.035  14.164  0.00  0.00    +0.082 C 
ATOM     15  C   UNL     1     -11.908  -5.810  15.042  0.00  0.00    +0.082 C 
ATOM     25  H   UNL     1     -12.947  -6.670  13.508  0.00  0.00    +0.122 HD
ENDBRANCH   4   9
ENDBRANCH   7   4
BRANCH  10  16
ATOM     16  C   UNL     1      -6.296 -11.073  18.477  0.00  0.00    +0.138 C 
BRANCH  16   6
ATOM      3  O   UNL     1      -5.272 -12.642  16.302  0.00  0.00    -0.270 OA
ATOM      6  N   UNL     1      -5.207 -10.728  17.611  0.00  0.00    -0.309 N 
ATOM     17  C   UNL     1      -4.776 -11.553  16.576  0.00  0.00    +0.244 C 
ATOM     27  H   UNL     1      -4.706  -9.873  17.828  0.00  0.00    +0.149 HD
BRANCH  17  18
ATOM     18  C   UNL     1      -3.617 -11.064  15.786  0.00  0.00    +0.037 A 
ATOM     19  C   UNL     1      -3.721 -10.939  14.400  0.00  0.00    +0.013 A 
ATOM     20  C   UNL     1      -2.426 -10.729  16.429  0.00  0.00    +0.013 A 
ATOM     21  C   UNL     1      -2.633 -10.477  13.659  0.00  0.00    +0.001 A 
ATOM     22  C   UNL     1      -1.338 -10.268  15.688  0.00  0.00    +0.001 A 
ATOM     23  C   UNL     1      -1.442 -10.141  14.302  0.00  0.00    +0.000 A 
ENDBRANCH  17  18
ENDBRANCH  16   6
ENDBRANCH  10  16
TORSDOF 6
ENDMDL
MODEL 7
REMARK VINA RESULT:      -6.0     25.982     27.991
REMARK  Name = 75536616
REMARK  6 active torsions:
REMARK  status: ('A' for Active; 'I' for Inactive)
REMARK    1  A    between atoms: O_2  and  C_8
REMARK    2  A    between atoms: N_4  and  C_7
REMARK    3  A    between atoms: N_4  and  C_9
REMARK    4  A    between atoms: N_6  and  C_16
REMARK    5  A    between atoms: C_10  and  C_16
REMARK    6  A    between atoms: C_17  and  C_18
REMARK                            x       y       z     vdW  Elec       q    Type
REMARK                         _______ _______ _______ _____ _____    ______ ____
ROOT
ATOM      1  O   UNL     1      -3.531 -11.412  12.617  0.00  0.00    -0.371 OA
ATOM      7  C   UNL     1      -2.977 -10.186  10.659  0.00  0.00    +0.111 C 
ATOM      8  C   UNL     1      -2.100  -9.713  11.804  0.00  0.00    +0.164 C 
ATOM     10  C   UNL     1      -2.196 -10.897  12.757  0.00  0.00    +0.165 C 
ATOM     11  C   UNL     1      -4.103 -10.879  11.410  0.00  0.00    +0.181 C 
ENDROOT
BRANCH   8   2
ATOM      2  O   UNL     1      -0.766  -9.464  11.405  0.00  0.00    -0.388 OA
ATOM     26  H   UNL     1      -0.513  -8.581  11.722  0.00  0.00    +0.210 HD
ENDBRANCH   8   2
BRANCH   7   4
ATOM      4  N   UNL     1      -3.446  -9.112   9.801  0.00  0.00    -0.306 NA
ATOM     24  H   UNL     1      -2.853  -9.039   8.974  0.00  0.00    +0.123 HD
BRANCH   4   9
ATOM      5  N   UNL     1      -7.108  -8.647   7.684  0.00  0.00    -0.316 NA
ATOM      9  C   UNL     1      -4.832  -9.339   9.396  0.00  0.00    +0.056 C 
ATOM     12  C   UNL     1      -5.663  -8.071   9.616  0.00  0.00    +0.034 C 
ATOM     13  C   UNL     1      -4.910  -9.773   7.927  0.00  0.00    +0.034 C 
ATOM     14  C   UNL     1      -7.089  -8.257   9.096  0.00  0.00    +0.082 C 
ATOM     15  C   UNL     1      -6.366  -9.894   7.474  0.00  0.00    +0.082 C 
ATOM     25  H   UNL     1      -8.073  -8.776   7.383  0.00  0.00    +0.122 HD
ENDBRANCH   4   9
ENDBRANCH   7   4
BRANCH  10  16
ATOM     16  C   UNL     1      -1.938 -10.525  14.206  0.00  0.00    +0.138 C 
BRANCH  16   6
ATOM      3  O   UNL     1      -2.408 -11.065  16.986  0.00  0.00    -0.270 OA
ATOM      6  N   UNL     1      -3.165 -10.326  14.921  0.00  0.00    -0.309 N 
ATOM     17  C   UNL     1      -3.303 -10.617  16.275  0.00  0.00    +0.244 C 
ATOM     27  H   UNL     1      -3.966 -10.026  14.376  0.00  0.00    +0.149 HD
BRANCH  17  18
ATOM     18  C   UNL     1      -4.647 -10.381  16.863  0.00  0.00    +0.037 A 
ATOM     19  C   UNL     1      -5.623  -9.710  16.125  0.00  0.00    +0.013 A 
ATOM     20  C   UNL     1      -4.933 -10.831  18.151  0.00  0.00    +0.013 A 
ATOM     21  C   UNL     1      -6.885  -9.490  16.677  0.00  0.00    +0.001 A 
ATOM     22  C   UNL     1      -6.195 -10.612  18.703  0.00  0.00    +0.001 A 
ATOM     23  C   UNL     1      -7.172  -9.941  17.966  0.00  0.00    +0.000 A 
ENDBRANCH  17  18
ENDBRANCH  16   6
ENDBRANCH  10  16
TORSDOF 6
ENDMDL
MODEL 8
REMARK VINA RESULT:      -6.0     27.762     30.537
REMARK  Name = 75536616
REMARK  6 active torsions:
REMARK  status: ('A' for Active; 'I' for Inactive)
REMARK    1  A    between atoms: O_2  and  C_8
REMARK    2  A    between atoms: N_4  and  C_7
REMARK    3  A    between atoms: N_4  and  C_9
REMARK    4  A    between atoms: N_6  and  C_16
REMARK    5  A    between atoms: C_10  and  C_16
REMARK    6  A    between atoms: C_17  and  C_18
REMARK                            x       y       z     vdW  Elec       q    Type
REMARK                         _______ _______ _______ _____ _____    ______ ____
ROOT
ATOM      1  O   UNL     1      -9.650 -13.047  18.605  0.00  0.00    -0.371 OA
ATOM      7  C   UNL     1      -8.310 -11.498  19.807  0.00  0.00    +0.111 C 
ATOM      8  C   UNL     1      -9.671 -10.879  19.550  0.00  0.00    +0.164 C 
ATOM     10  C   UNL     1     -10.512 -12.120  19.285  0.00  0.00    +0.165 C 
ATOM     11  C   UNL     1      -8.289 -12.616  18.778  0.00  0.00    +0.181 C 
ENDROOT
BRANCH   8   2
ATOM      2  O   UNL     1     -10.154 -10.141  20.656  0.00  0.00    -0.388 OA
ATOM     26  H   UNL     1      -9.547  -9.399  20.815  0.00  0.00    +0.210 HD
ENDBRANCH   8   2
BRANCH   7   4
ATOM      4  N   UNL     1      -7.206 -10.565  19.653  0.00  0.00    -0.306 NA
ATOM     24  H   UNL     1      -6.519 -10.709  20.393  0.00  0.00    +0.123 HD
BRANCH   4   9
ATOM      5  N   UNL     1      -4.758  -9.714  16.278  0.00  0.00    -0.316 NA
ATOM      9  C   UNL     1      -6.568 -10.729  18.349  0.00  0.00    +0.056 C 
ATOM     12  C   UNL     1      -6.956  -9.574  17.419  0.00  0.00    +0.034 C 
ATOM     13  C   UNL     1      -5.043 -10.802  18.489  0.00  0.00    +0.034 C 
ATOM     14  C   UNL     1      -6.210  -9.672  16.088  0.00  0.00    +0.082 C 
ATOM     15  C   UNL     1      -4.372 -10.853  17.116  0.00  0.00    +0.082 C 
ATOM     25  H   UNL     1      -4.302  -9.795  15.370  0.00  0.00    +0.122 HD
ENDBRANCH   4   9
ENDBRANCH   7   4
BRANCH  10  16
ATOM     16  C   UNL     1     -11.741 -11.844  18.435  0.00  0.00    +0.138 C 
BRANCH  16   6
ATOM      3  O   UNL     1     -13.464  -9.557  18.633  0.00  0.00    -0.270 OA
ATOM      6  N   UNL     1     -11.611 -10.610  17.716  0.00  0.00    -0.309 N 
ATOM     17  C   UNL     1     -12.498  -9.549  17.876  0.00  0.00    +0.244 C 
ATOM     27  H   UNL     1     -10.875 -10.564  17.020  0.00  0.00    +0.149 HD
BRANCH  17  18
ATOM     18  C   UNL     1     -12.243  -8.349  17.038  0.00  0.00    +0.037 A 
ATOM     19  C   UNL     1     -13.277  -7.791  16.286  0.00  0.00    +0.013 A 
ATOM     20  C   UNL     1     -10.970  -7.781  17.004  0.00  0.00    +0.013 A 
ATOM     21  C   UNL     1     -13.037  -6.663  15.501  0.00  0.00    +0.001 A 
ATOM     22  C   UNL     1     -10.730  -6.653  16.219  0.00  0.00    +0.001 A 
ATOM     23  C   UNL     1     -11.763  -6.094  15.467  0.00  0.00    +0.000 A 
ENDBRANCH  17  18
ENDBRANCH  16   6
ENDBRANCH  10  16
TORSDOF 6
ENDMDL
MODEL 9
REMARK VINA RESULT:      -6.0     26.379     28.219
REMARK  Name = 75536616
REMARK  6 active torsions:
REMARK  status: ('A' for Active; 'I' for Inactive)
REMARK    1  A    between atoms: O_2  and  C_8
REMARK    2  A    between atoms: N_4  and  C_7
REMARK    3  A    between atoms: N_4  and  C_9
REMARK    4  A    between atoms: N_6  and  C_16
REMARK    5  A    between atoms: C_10  and  C_16
REMARK    6  A    between atoms: C_17  and  C_18
REMARK                            x       y       z     vdW  Elec       q    Type
REMARK                         _______ _______ _______ _____ _____    ______ ____
ROOT
ATOM      1  O   UNL     1      -3.847 -10.403  13.988  0.00  0.00    -0.371 OA
ATOM      7  C   UNL     1      -3.340 -10.830  16.269  0.00  0.00    +0.111 C 
ATOM      8  C   UNL     1      -2.221 -11.377  15.403  0.00  0.00    +0.164 C 
ATOM     10  C   UNL     1      -2.427 -10.581  14.121  0.00  0.00    +0.165 C 
ATOM     11  C   UNL     1      -4.464 -10.691  15.255  0.00  0.00    +0.181 C 
ENDROOT
BRANCH   8   2
ATOM      2  O   UNL     1      -0.940 -11.155  15.961  0.00  0.00    -0.388 OA
ATOM     26  H   UNL     1      -0.490 -12.012  16.041  0.00  0.00    +0.210 HD
ENDBRANCH   8   2
BRANCH   7   4
ATOM      4  N   UNL     1      -3.689 -11.694  17.385  0.00  0.00    -0.306 NA
ATOM     24  H   UNL     1      -3.138 -11.446  18.206  0.00  0.00    +0.123 HD
BRANCH   4   9
ATOM      5  N   UNL     1      -7.334 -12.063  19.550  0.00  0.00    -0.316 NA
ATOM      9  C   UNL     1      -5.113 -11.589  17.697  0.00  0.00    +0.056 C 
ATOM     12  C   UNL     1      -5.713 -12.982  17.912  0.00  0.00    +0.034 C 
ATOM     13  C   UNL     1      -5.340 -10.719  18.939  0.00  0.00    +0.034 C 
ATOM     14  C   UNL     1      -7.176 -12.884  18.346  0.00  0.00    +0.082 C 
ATOM     15  C   UNL     1      -6.818 -10.709  19.332  0.00  0.00    +0.082 C 
ATOM     25  H   UNL     1      -8.322 -12.011  19.795  0.00  0.00    +0.122 HD
ENDBRANCH   4   9
ENDBRANCH   7   4
BRANCH  10  16
ATOM     16  C   UNL     1      -1.880 -11.278  12.887  0.00  0.00    +0.138 C 
BRANCH  16   6
ATOM      3  O   UNL     1      -3.313 -13.023  11.115  0.00  0.00    -0.270 OA
ATOM      6  N   UNL     1      -2.602 -10.896  11.709  0.00  0.00    -0.309 N 
ATOM     17  C   UNL     1      -3.271 -11.815  10.904  0.00  0.00    +0.244 C 
ATOM     27  H   UNL     1      -2.547  -9.920  11.437  0.00  0.00    +0.149 HD
BRANCH  17  18
ATOM     18  C   UNL     1      -3.949 -11.263   9.703  0.00  0.00    +0.037 A 
ATOM     19  C   UNL     1      -4.389 -12.122   8.695  0.00  0.00    +0.013 A 
ATOM     20  C   UNL     1      -4.146  -9.888   9.584  0.00  0.00    +0.013 A 
ATOM     21  C   UNL     1      -5.028 -11.603   7.568  0.00  0.00    +0.001 A 
ATOM     22  C   UNL     1      -4.784  -9.370   8.457  0.00  0.00    +0.001 A 
ATOM     23  C   UNL     1      -5.226 -10.228   7.449  0.00  0.00    +0.000 A 
ENDBRANCH  17  18
ENDBRANCH  16   6
ENDBRANCH  10  16
TORSDOF 6
ENDMDL
MODEL 10
REMARK VINA RESULT:      -5.9     26.548     29.546
REMARK  Name = 75536616
REMARK  6 active torsions:
REMARK  status: ('A' for Active; 'I' for Inactive)
REMARK    1  A    between atoms: O_2  and  C_8
REMARK    2  A    between atoms: N_4  and  C_7
REMARK    3  A    between atoms: N_4  and  C_9
REMARK    4  A    between atoms: N_6  and  C_16
REMARK    5  A    between atoms: C_10  and  C_16
REMARK    6  A    between atoms: C_17  and  C_18
REMARK                            x       y       z     vdW  Elec       q    Type
REMARK                         _______ _______ _______ _____ _____    ______ ____
ROOT
ATOM      1  O   UNL     1      -6.892 -13.113  18.413  0.00  0.00    -0.371 OA
ATOM      7  C   UNL     1      -5.393 -11.271  18.380  0.00  0.00    +0.111 C 
ATOM      8  C   UNL     1      -6.718 -10.820  18.966  0.00  0.00    +0.164 C 
ATOM     10  C   UNL     1      -7.319 -12.153  19.393  0.00  0.00    +0.165 C 
ATOM     11  C   UNL     1      -5.800 -12.549  17.666  0.00  0.00    +0.181 C 
ENDROOT
BRANCH   8   2
ATOM      2  O   UNL     1      -6.560  -9.938  20.061  0.00  0.00    -0.388 OA
ATOM     26  H   UNL     1      -7.183  -9.200  19.950  0.00  0.00    +0.210 HD
ENDBRANCH   8   2
BRANCH   7   4
ATOM      4  N   UNL     1      -4.785 -10.294  17.491  0.00  0.00    -0.306 NA
ATOM     24  H   UNL     1      -4.078  -9.756  17.992  0.00  0.00    +0.123 HD
BRANCH   4   9
ATOM      5  N   UNL     1      -2.618 -10.775  13.862  0.00  0.00    -0.316 NA
ATOM      9  C   UNL     1      -4.180 -10.951  16.336  0.00  0.00    +0.056 C 
ATOM     12  C   UNL     1      -4.768 -10.390  15.037  0.00  0.00    +0.034 C 
ATOM     13  C   UNL     1      -2.656 -10.779  16.343  0.00  0.00    +0.034 C 
ATOM     14  C   UNL     1      -4.066 -10.989  13.817  0.00  0.00    +0.082 C 
ATOM     15  C   UNL     1      -2.037 -11.364  15.072  0.00  0.00    +0.082 C 
ATOM     25  H   UNL     1      -2.189 -11.202  13.042  0.00  0.00    +0.122 HD
ENDBRANCH   4   9
ENDBRANCH   7   4
BRANCH  10  16
ATOM     16  C   UNL     1      -8.835 -12.133  19.466  0.00  0.00    +0.138 C 
BRANCH  16   6
ATOM      3  O   UNL     1     -10.732 -10.112  20.213  0.00  0.00    -0.270 OA
ATOM      6  N   UNL     1      -9.386 -11.119  18.615  0.00  0.00    -0.309 N 
ATOM     17  C   UNL     1     -10.305 -10.175  19.064  0.00  0.00    +0.244 C 
ATOM     27  H   UNL     1      -9.128 -11.159  17.634  0.00  0.00    +0.149 HD
BRANCH  17  18
ATOM     18  C   UNL     1     -10.801  -9.208  18.051  0.00  0.00    +0.037 A 
ATOM     19  C   UNL     1      -9.927  -8.277  17.490  0.00  0.00    +0.013 A 
ATOM     20  C   UNL     1     -12.139  -9.233  17.661  0.00  0.00    +0.013 A 
ATOM     21  C   UNL     1     -10.392  -7.370  16.537  0.00  0.00    +0.001 A 
ATOM     22  C   UNL     1     -12.604  -8.326  16.708  0.00  0.00    +0.001 A 
ATOM     23  C   UNL     1     -11.731  -7.395  16.146  0.00  0.00    +0.000 A 
ENDBRANCH  17  18
ENDBRANCH  16   6
ENDBRANCH  10  16
TORSDOF 6
ENDMDL
