MODEL 1
REMARK VINA RESULT:      -7.1      0.000      0.000
REMARK  Name = 7674043
REMARK  7 active torsions:
REMARK  status: ('A' for Active; 'I' for Inactive)
REMARK    1  A    between atoms: S_1  and  N_9
REMARK    2  A    between atoms: S_1  and  C_22
REMARK    3  A    between atoms: O_8  and  C_25
REMARK    4  A    between atoms: O_8  and  C_31
REMARK    5  A    between atoms: N_11  and  C_18
REMARK    6  A    between atoms: C_13  and  C_17
REMARK    7  A    between atoms: C_21  and  C_25
REMARK                            x       y       z     vdW  Elec       q    Type
REMARK                         _______ _______ _______ _____ _____    ______ ____
ROOT
ATOM      6  O   UNL     1      11.867   9.018  15.560  0.00  0.00    -0.273 OA
ATOM      9  N   UNL     1      14.148   8.424  19.987  0.00  0.00    -0.162 NA
ATOM     10  N   UNL     1      13.457   9.000  17.259  0.00  0.00    -0.296 N 
ATOM     13  C   UNL     1      12.901   7.854  19.403  0.00  0.00    +0.183 C 
ATOM     14  C   UNL     1      12.928   7.783  17.879  0.00  0.00    +0.138 C 
ATOM     15  C   UNL     1      15.214   8.730  18.998  0.00  0.00    +0.129 C 
ATOM     16  C   UNL     1      14.634   9.601  17.893  0.00  0.00    +0.125 C 
ATOM     21  C   UNL     1      12.857   9.511  16.106  0.00  0.00    +0.241 C 
ENDROOT
BRANCH  13  17
ATOM      3  O   UNL     1      10.660   8.667  19.482  0.00  0.00    -0.274 OA
ATOM     11  N   UNL     1      12.287   9.710  20.780  0.00  0.00    -0.303 N 
ATOM     17  C   UNL     1      11.818   8.767  19.882  0.00  0.00    +0.234 C 
ATOM     32  H   UNL     1      13.261   9.679  21.066  0.00  0.00    +0.149 HD
BRANCH  11  18
ATOM      7  O   UNL     1      12.641  12.304  19.997  0.00  0.00    -0.274 OA
ATOM     12  N   UNL     1      11.826  13.079  21.985  0.00  0.00    -0.314 N 
ATOM     18  C   UNL     1      11.448  10.720  21.372  0.00  0.00    +0.159 C 
ATOM     19  C   UNL     1      11.240  10.451  22.857  0.00  0.00    +0.033 C 
ATOM     20  C   UNL     1      10.503  11.620  23.488  0.00  0.00    +0.021 C 
ATOM     23  C   UNL     1      12.061  12.080  21.061  0.00  0.00    +0.233 C 
ATOM     24  C   UNL     1      11.341  12.875  23.337  0.00  0.00    +0.104 C 
ATOM     33  H   UNL     1      12.180  14.004  21.760  0.00  0.00    +0.149 HD
ENDBRANCH  11  18
ENDBRANCH  13  17
BRANCH   9   1
ATOM      1  S   UNL     1      14.670   7.764  21.476  0.00  0.00    +0.062 S 
ATOM      4  O   UNL     1      14.005   6.496  21.691  0.00  0.00    -0.153 OA
ATOM      5  O   UNL     1      14.643   8.799  22.486  0.00  0.00    -0.153 OA
BRANCH   1  22
ATOM      2  F   UNL     1      20.310   6.633  20.184  0.00  0.00    -0.205 F 
ATOM     22  C   UNL     1      16.360   7.426  21.089  0.00  0.00    +0.106 A 
ATOM     26  C   UNL     1      16.685   6.330  20.287  0.00  0.00    +0.031 A 
ATOM     27  C   UNL     1      17.369   8.251  21.585  0.00  0.00    +0.031 A 
ATOM     28  C   UNL     1      18.020   6.063  19.982  0.00  0.00    +0.040 A 
ATOM     29  C   UNL     1      18.702   7.984  21.279  0.00  0.00    +0.040 A 
ATOM     30  C   UNL     1      19.029   6.890  20.477  0.00  0.00    +0.124 A 
ENDBRANCH   1  22
ENDBRANCH   9   1
BRANCH  21  25
ATOM     25  C   UNL     1      13.495  10.747  15.520  0.00  0.00    +0.255 C 
BRANCH  25   8
ATOM      8  O   UNL     1      14.373  10.306  14.512  0.00  0.00    -0.374 OA
ATOM     31  C   UNL     1      15.604  11.028  14.521  0.00  0.00    +0.194 C 
ENDBRANCH  25   8
ENDBRANCH  21  25
TORSDOF 6
ENDMDL
MODEL 2
REMARK VINA RESULT:      -6.8     13.886     17.648
REMARK  Name = 7674043
REMARK  7 active torsions:
REMARK  status: ('A' for Active; 'I' for Inactive)
REMARK    1  A    between atoms: S_1  and  N_9
REMARK    2  A    between atoms: S_1  and  C_22
REMARK    3  A    between atoms: O_8  and  C_25
REMARK    4  A    between atoms: O_8  and  C_31
REMARK    5  A    between atoms: N_11  and  C_18
REMARK    6  A    between atoms: C_13  and  C_17
REMARK    7  A    between atoms: C_21  and  C_25
REMARK                            x       y       z     vdW  Elec       q    Type
REMARK                         _______ _______ _______ _____ _____    ______ ____
ROOT
ATOM      6  O   UNL     1      12.019   7.497   7.361  0.00  0.00    -0.273 OA
ATOM      9  N   UNL     1      10.558   5.783   2.880  0.00  0.00    -0.162 NA
ATOM     10  N   UNL     1      11.076   6.201   5.675  0.00  0.00    -0.296 N 
ATOM     13  C   UNL     1      11.595   6.767   3.302  0.00  0.00    +0.183 C 
ATOM     14  C   UNL     1      12.131   6.510   4.708  0.00  0.00    +0.138 C 
ATOM     15  C   UNL     1      10.304   4.691   3.855  0.00  0.00    +0.129 C 
ATOM     16  C   UNL     1      10.014   5.300   5.220  0.00  0.00    +0.125 C 
ATOM     21  C   UNL     1      11.133   6.737   6.963  0.00  0.00    +0.241 C 
ENDROOT
BRANCH  13  17
ATOM      3  O   UNL     1      11.528   9.149   3.211  0.00  0.00    -0.274 OA
ATOM     11  N   UNL     1       9.526   7.961   3.181  0.00  0.00    -0.303 N 
ATOM     17  C   UNL     1      10.904   8.090   3.219  0.00  0.00    +0.234 C 
ATOM     32  H   UNL     1       9.118   7.031   3.161  0.00  0.00    +0.149 HD
BRANCH  11  18
ATOM      7  O   UNL     1       8.271   8.730   5.484  0.00  0.00    -0.274 OA
ATOM     12  N   UNL     1       6.537   9.637   4.307  0.00  0.00    -0.314 N 
ATOM     18  C   UNL     1       8.630   9.087   3.124  0.00  0.00    +0.159 C 
ATOM     19  C   UNL     1       7.806   9.059   1.844  0.00  0.00    +0.033 C 
ATOM     20  C   UNL     1       6.752  10.153   1.893  0.00  0.00    +0.021 C 
ATOM     23  C   UNL     1       7.802   9.092   4.404  0.00  0.00    +0.233 C 
ATOM     24  C   UNL     1       5.828   9.899   3.068  0.00  0.00    +0.104 C 
ATOM     33  H   UNL     1       5.998   9.699   5.165  0.00  0.00    +0.149 HD
ENDBRANCH  11  18
ENDBRANCH  13  17
BRANCH   9   1
ATOM      1  S   UNL     1      10.552   5.334   1.230  0.00  0.00    +0.062 S 
ATOM      4  O   UNL     1      10.310   6.510   0.420  0.00  0.00    -0.153 OA
ATOM      5  O   UNL     1       9.748   4.142   1.068  0.00  0.00    -0.153 OA
BRANCH   1  22
ATOM      2  F   UNL     1      16.207   3.815   0.548  0.00  0.00    -0.205 F 
ATOM     22  C   UNL     1      12.246   4.879   1.026  0.00  0.00    +0.106 A 
ATOM     26  C   UNL     1      13.084   5.654   0.223  0.00  0.00    +0.031 A 
ATOM     27  C   UNL     1      12.746   3.745   1.666  0.00  0.00    +0.031 A 
ATOM     28  C   UNL     1      14.422   5.294   0.062  0.00  0.00    +0.040 A 
ATOM     29  C   UNL     1      14.083   3.386   1.505  0.00  0.00    +0.040 A 
ATOM     30  C   UNL     1      14.922   4.161   0.703  0.00  0.00    +0.124 A 
ENDBRANCH   1  22
ENDBRANCH   9   1
BRANCH  21  25
ATOM     25  C   UNL     1      10.020   6.332   7.899  0.00  0.00    +0.255 C 
BRANCH  25   8
ATOM      8  O   UNL     1      10.538   5.314   8.721  0.00  0.00    -0.374 OA
ATOM     31  C   UNL     1       9.542   4.358   9.081  0.00  0.00    +0.194 C 
ENDBRANCH  25   8
ENDBRANCH  21  25
TORSDOF 6
ENDMDL
MODEL 3
REMARK VINA RESULT:      -6.6     13.133     16.034
REMARK  Name = 7674043
REMARK  7 active torsions:
REMARK  status: ('A' for Active; 'I' for Inactive)
REMARK    1  A    between atoms: S_1  and  N_9
REMARK    2  A    between atoms: S_1  and  C_22
REMARK    3  A    between atoms: O_8  and  C_25
REMARK    4  A    between atoms: O_8  and  C_31
REMARK    5  A    between atoms: N_11  and  C_18
REMARK    6  A    between atoms: C_13  and  C_17
REMARK    7  A    between atoms: C_21  and  C_25
REMARK                            x       y       z     vdW  Elec       q    Type
REMARK                         _______ _______ _______ _____ _____    ______ ____
ROOT
ATOM      6  O   UNL     1      14.415   5.956   1.214  0.00  0.00    -0.273 OA
ATOM      9  N   UNL     1      10.530   6.618   4.315  0.00  0.00    -0.162 NA
ATOM     10  N   UNL     1      12.407   5.677   2.355  0.00  0.00    -0.296 N 
ATOM     13  C   UNL     1      11.587   7.535   3.802  0.00  0.00    +0.183 C 
ATOM     14  C   UNL     1      12.141   7.114   2.443  0.00  0.00    +0.138 C 
ATOM     15  C   UNL     1      10.147   5.527   3.383  0.00  0.00    +0.129 C 
ATOM     16  C   UNL     1      11.401   4.786   2.940  0.00  0.00    +0.125 C 
ATOM     21  C   UNL     1      13.559   5.221   1.711  0.00  0.00    +0.241 C 
ENDROOT
BRANCH  13  17
ATOM      3  O   UNL     1      12.705   6.601   5.690  0.00  0.00    -0.274 OA
ATOM     11  N   UNL     1      13.506   8.584   4.769  0.00  0.00    -0.303 N 
ATOM     17  C   UNL     1      12.650   7.500   4.853  0.00  0.00    +0.234 C 
ATOM     32  H   UNL     1      13.384   9.252   4.014  0.00  0.00    +0.149 HD
BRANCH  11  18
ATOM      7  O   UNL     1      13.109  10.253   6.897  0.00  0.00    -0.274 OA
ATOM     12  N   UNL     1      15.337  10.741   7.007  0.00  0.00    -0.314 N 
ATOM     18  C   UNL     1      14.601   8.796   5.681  0.00  0.00    +0.159 C 
ATOM     19  C   UNL     1      15.919   8.910   4.928  0.00  0.00    +0.033 C 
ATOM     20  C   UNL     1      17.024   9.308   5.893  0.00  0.00    +0.021 C 
ATOM     23  C   UNL     1      14.264  10.006   6.545  0.00  0.00    +0.233 C 
ATOM     24  C   UNL     1      16.693  10.659   6.496  0.00  0.00    +0.104 C 
ATOM     33  H   UNL     1      15.129  11.515   7.631  0.00  0.00    +0.149 HD
ENDBRANCH  11  18
ENDBRANCH  13  17
BRANCH   9   1
ATOM      1  S   UNL     1       9.253   7.337   5.198  0.00  0.00    +0.062 S 
ATOM      4  O   UNL     1       7.994   7.015   4.558  0.00  0.00    -0.153 OA
ATOM      5  O   UNL     1       9.604   8.707   5.503  0.00  0.00    -0.153 OA
BRANCH   1  22
ATOM      2  F   UNL     1       9.576   4.227  10.196  0.00  0.00    -0.205 F 
ATOM     22  C   UNL     1       9.350   6.404   6.695  0.00  0.00    +0.106 A 
ATOM     26  C   UNL     1       8.989   6.994   7.907  0.00  0.00    +0.031 A 
ATOM     27  C   UNL     1       9.787   5.080   6.666  0.00  0.00    +0.031 A 
ATOM     28  C   UNL     1       9.065   6.258   9.089  0.00  0.00    +0.040 A 
ATOM     29  C   UNL     1       9.863   4.345   7.847  0.00  0.00    +0.040 A 
ATOM     30  C   UNL     1       9.502   4.933   9.060  0.00  0.00    +0.124 A 
ENDBRANCH   1  22
ENDBRANCH   9   1
BRANCH  21  25
ATOM     25  C   UNL     1      13.727   3.722   1.638  0.00  0.00    +0.255 C 
BRANCH  25   8
ATOM      8  O   UNL     1      14.012   3.415   0.295  0.00  0.00    -0.374 OA
ATOM     31  C   UNL     1      12.826   3.215  -0.472  0.00  0.00    +0.194 C 
ENDBRANCH  25   8
ENDBRANCH  21  25
TORSDOF 6
ENDMDL
MODEL 4
REMARK VINA RESULT:      -6.4     13.338     16.415
REMARK  Name = 7674043
REMARK  7 active torsions:
REMARK  status: ('A' for Active; 'I' for Inactive)
REMARK    1  A    between atoms: S_1  and  N_9
REMARK    2  A    between atoms: S_1  and  C_22
REMARK    3  A    between atoms: O_8  and  C_25
REMARK    4  A    between atoms: O_8  and  C_31
REMARK    5  A    between atoms: N_11  and  C_18
REMARK    6  A    between atoms: C_13  and  C_17
REMARK    7  A    between atoms: C_21  and  C_25
REMARK                            x       y       z     vdW  Elec       q    Type
REMARK                         _______ _______ _______ _____ _____    ______ ____
ROOT
ATOM      6  O   UNL     1      15.989   8.419   6.209  0.00  0.00    -0.273 OA
ATOM      9  N   UNL     1      11.053   7.877   5.512  0.00  0.00    -0.162 NA
ATOM     10  N   UNL     1      13.687   8.749   6.255  0.00  0.00    -0.296 N 
ATOM     13  C   UNL     1      12.203   6.936   5.399  0.00  0.00    +0.183 C 
ATOM     14  C   UNL     1      13.381   7.318   6.292  0.00  0.00    +0.138 C 
ATOM     15  C   UNL     1      11.223   8.949   6.525  0.00  0.00    +0.129 C 
ATOM     16  C   UNL     1      12.543   9.665   6.278  0.00  0.00    +0.125 C 
ATOM     21  C   UNL     1      15.016   9.176   6.228  0.00  0.00    +0.241 C 
ENDROOT
BRANCH  13  17
ATOM      3  O   UNL     1      12.926   8.032   3.409  0.00  0.00    -0.274 OA
ATOM     11  N   UNL     1      12.473   5.749   3.342  0.00  0.00    -0.303 N 
ATOM     17  C   UNL     1      12.582   6.985   3.954  0.00  0.00    +0.234 C 
ATOM     32  H   UNL     1      12.210   4.942   3.900  0.00  0.00    +0.149 HD
BRANCH  11  18
ATOM      7  O   UNL     1      10.709   4.260   1.878  0.00  0.00    -0.274 OA
ATOM     12  N   UNL     1      12.350   3.642   0.415  0.00  0.00    -0.314 N 
ATOM     18  C   UNL     1      12.759   5.532   1.946  0.00  0.00    +0.159 C 
ATOM     19  C   UNL     1      14.246   5.284   1.729  0.00  0.00    +0.033 C 
ATOM     20  C   UNL     1      14.489   4.886   0.283  0.00  0.00    +0.021 C 
ATOM     23  C   UNL     1      11.856   4.409   1.452  0.00  0.00    +0.233 C 
ATOM     24  C   UNL     1      13.737   3.604  -0.013  0.00  0.00    +0.104 C 
ATOM     33  H   UNL     1      11.735   2.928   0.039  0.00  0.00    +0.149 HD
ENDBRANCH  11  18
ENDBRANCH  13  17
BRANCH   9   1
ATOM      1  S   UNL     1       9.489   7.195   5.392  0.00  0.00    +0.062 S 
ATOM      4  O   UNL     1       9.460   6.268   4.280  0.00  0.00    -0.153 OA
ATOM      5  O   UNL     1       8.505   8.250   5.507  0.00  0.00    -0.153 OA
BRANCH   1  22
ATOM      2  F   UNL     1       9.355   4.036  10.368  0.00  0.00    -0.205 F 
ATOM     22  C   UNL     1       9.449   6.249   6.883  0.00  0.00    +0.106 A 
ATOM     26  C   UNL     1       9.856   4.915   6.873  0.00  0.00    +0.031 A 
ATOM     27  C   UNL     1       9.010   6.835   8.070  0.00  0.00    +0.031 A 
ATOM     28  C   UNL     1       9.825   4.167   8.050  0.00  0.00    +0.040 A 
ATOM     29  C   UNL     1       8.978   6.089   9.247  0.00  0.00    +0.040 A 
ATOM     30  C   UNL     1       9.386   4.754   9.238  0.00  0.00    +0.124 A 
ENDBRANCH   1  22
ENDBRANCH   9   1
BRANCH  21  25
ATOM     25  C   UNL     1      15.231  10.670   6.228  0.00  0.00    +0.255 C 
BRANCH  25   8
ATOM      8  O   UNL     1      16.551  10.886   6.665  0.00  0.00    -0.374 OA
ATOM     31  C   UNL     1      17.069  12.135   6.209  0.00  0.00    +0.194 C 
ENDBRANCH  25   8
ENDBRANCH  21  25
TORSDOF 6
ENDMDL
MODEL 5
REMARK VINA RESULT:      -6.3      3.249      5.399
REMARK  Name = 7674043
REMARK  7 active torsions:
REMARK  status: ('A' for Active; 'I' for Inactive)
REMARK    1  A    between atoms: S_1  and  N_9
REMARK    2  A    between atoms: S_1  and  C_22
REMARK    3  A    between atoms: O_8  and  C_25
REMARK    4  A    between atoms: O_8  and  C_31
REMARK    5  A    between atoms: N_11  and  C_18
REMARK    6  A    between atoms: C_13  and  C_17
REMARK    7  A    between atoms: C_21  and  C_25
REMARK                            x       y       z     vdW  Elec       q    Type
REMARK                         _______ _______ _______ _____ _____    ______ ____
ROOT
ATOM      6  O   UNL     1      17.342  13.240  21.128  0.00  0.00    -0.273 OA
ATOM      9  N   UNL     1      15.280   8.670  21.011  0.00  0.00    -0.162 NA
ATOM     10  N   UNL     1      17.046  10.936  20.998  0.00  0.00    -0.296 N 
ATOM     13  C   UNL     1      14.726  10.039  20.813  0.00  0.00    +0.183 C 
ATOM     14  C   UNL     1      15.761  11.039  20.304  0.00  0.00    +0.138 C 
ATOM     15  C   UNL     1      16.697   8.507  20.596  0.00  0.00    +0.129 C 
ATOM     16  C   UNL     1      17.540   9.583  21.265  0.00  0.00    +0.125 C 
ATOM     21  C   UNL     1      17.744  12.094  21.345  0.00  0.00    +0.241 C 
ENDROOT
BRANCH  13  17
ATOM      3  O   UNL     1      14.675   9.949  23.195  0.00  0.00    -0.274 OA
ATOM     11  N   UNL     1      13.182  11.349  22.086  0.00  0.00    -0.303 N 
ATOM     17  C   UNL     1      14.215  10.430  22.163  0.00  0.00    +0.234 C 
ATOM     32  H   UNL     1      12.904  11.704  21.176  0.00  0.00    +0.149 HD
BRANCH  11  18
ATOM      7  O   UNL     1      10.967  10.025  22.984  0.00  0.00    -0.274 OA
ATOM     12  N   UNL     1      10.130  11.934  23.918  0.00  0.00    -0.314 N 
ATOM     18  C   UNL     1      12.502  11.869  23.244  0.00  0.00    +0.159 C 
ATOM     19  C   UNL     1      12.451  13.391  23.205  0.00  0.00    +0.033 C 
ATOM     20  C   UNL     1      11.578  13.900  24.341  0.00  0.00    +0.021 C 
ATOM     23  C   UNL     1      11.136  11.197  23.327  0.00  0.00    +0.233 C 
ATOM     24  C   UNL     1      10.171  13.364  24.165  0.00  0.00    +0.104 C 
ATOM     33  H   UNL     1       9.231  11.475  24.031  0.00  0.00    +0.149 HD
ENDBRANCH  11  18
ENDBRANCH  13  17
BRANCH   9   1
ATOM      1  S   UNL     1      14.237   7.361  20.659  0.00  0.00    +0.062 S 
ATOM      4  O   UNL     1      13.192   7.305  21.661  0.00  0.00    -0.153 OA
ATOM      5  O   UNL     1      15.034   6.194  20.349  0.00  0.00    -0.153 OA
BRANCH   1  22
ATOM      2  F   UNL     1      11.818   9.291  15.642  0.00  0.00    -0.205 F 
ATOM     22  C   UNL     1      13.512   7.939  19.156  0.00  0.00    +0.106 A 
ATOM     26  C   UNL     1      14.288   8.037  18.001  0.00  0.00    +0.031 A 
ATOM     27  C   UNL     1      12.165   8.299  19.124  0.00  0.00    +0.031 A 
ATOM     28  C   UNL     1      13.715   8.493  16.813  0.00  0.00    +0.040 A 
ATOM     29  C   UNL     1      11.593   8.755  17.938  0.00  0.00    +0.040 A 
ATOM     30  C   UNL     1      12.368   8.852  16.781  0.00  0.00    +0.124 A 
ENDBRANCH   1  22
ENDBRANCH   9   1
BRANCH  21  25
ATOM     25  C   UNL     1      19.076  11.886  22.025  0.00  0.00    +0.255 C 
BRANCH  25   8
ATOM      8  O   UNL     1      20.065  12.116  21.051  0.00  0.00    -0.374 OA
ATOM     31  C   UNL     1      21.052  13.044  21.498  0.00  0.00    +0.194 C 
ENDBRANCH  25   8
ENDBRANCH  21  25
TORSDOF 6
ENDMDL
MODEL 6
REMARK VINA RESULT:      -6.1     13.925     17.315
REMARK  Name = 7674043
REMARK  7 active torsions:
REMARK  status: ('A' for Active; 'I' for Inactive)
REMARK    1  A    between atoms: S_1  and  N_9
REMARK    2  A    between atoms: S_1  and  C_22
REMARK    3  A    between atoms: O_8  and  C_25
REMARK    4  A    between atoms: O_8  and  C_31
REMARK    5  A    between atoms: N_11  and  C_18
REMARK    6  A    between atoms: C_13  and  C_17
REMARK    7  A    between atoms: C_21  and  C_25
REMARK                            x       y       z     vdW  Elec       q    Type
REMARK                         _______ _______ _______ _____ _____    ______ ____
ROOT
ATOM      6  O   UNL     1      15.577   7.966   6.348  0.00  0.00    -0.273 OA
ATOM      9  N   UNL     1      10.568   7.794   6.174  0.00  0.00    -0.162 NA
ATOM     10  N   UNL     1      13.322   8.441   6.671  0.00  0.00    -0.296 N 
ATOM     13  C   UNL     1      11.629   6.790   5.878  0.00  0.00    +0.183 C 
ATOM     14  C   UNL     1      12.920   7.033   6.656  0.00  0.00    +0.138 C 
ATOM     15  C   UNL     1      10.922   8.782   7.225  0.00  0.00    +0.129 C 
ATOM     16  C   UNL     1      12.257   9.425   6.876  0.00  0.00    +0.125 C 
ATOM     21  C   UNL     1      14.668   8.781   6.522  0.00  0.00    +0.241 C 
ENDROOT
BRANCH  13  17
ATOM      3  O   UNL     1      11.795   7.995   3.827  0.00  0.00    -0.274 OA
ATOM     11  N   UNL     1      12.102   5.687   3.810  0.00  0.00    -0.303 N 
ATOM     17  C   UNL     1      11.854   6.912   4.405  0.00  0.00    +0.234 C 
ATOM     32  H   UNL     1      12.159   4.858   4.393  0.00  0.00    +0.149 HD
BRANCH  11  18
ATOM      7  O   UNL     1      10.918   3.576   2.540  0.00  0.00    -0.274 OA
ATOM     12  N   UNL     1      12.541   3.556   0.933  0.00  0.00    -0.314 N 
ATOM     18  C   UNL     1      12.328   5.529   2.396  0.00  0.00    +0.159 C 
ATOM     19  C   UNL     1      13.774   5.851   2.040  0.00  0.00    +0.033 C 
ATOM     20  C   UNL     1      14.027   5.507   0.581  0.00  0.00    +0.021 C 
ATOM     23  C   UNL     1      11.882   4.126   2.003  0.00  0.00    +0.233 C 
ATOM     24  C   UNL     1      13.796   4.023   0.373  0.00  0.00    +0.104 C 
ATOM     33  H   UNL     1      12.213   2.645   0.625  0.00  0.00    +0.149 HD
ENDBRANCH  11  18
ENDBRANCH  13  17
BRANCH   9   1
ATOM      1  S   UNL     1       8.955   7.225   6.188  0.00  0.00    +0.062 S 
ATOM      4  O   UNL     1       8.303   7.678   7.400  0.00  0.00    -0.153 OA
ATOM      5  O   UNL     1       8.945   5.827   5.816  0.00  0.00    -0.153 OA
BRANCH   1  22
ATOM      2  F   UNL     1       6.728  10.316   1.690  0.00  0.00    -0.205 F 
ATOM     22  C   UNL     1       8.288   8.151   4.840  0.00  0.00    +0.106 A 
ATOM     26  C   UNL     1       7.550   9.309   5.088  0.00  0.00    +0.031 A 
ATOM     27  C   UNL     1       8.498   7.725   3.529  0.00  0.00    +0.031 A 
ATOM     28  C   UNL     1       7.024  10.041   4.023  0.00  0.00    +0.040 A 
ATOM     29  C   UNL     1       7.972   8.456   2.465  0.00  0.00    +0.040 A 
ATOM     30  C   UNL     1       7.234   9.615   2.712  0.00  0.00    +0.124 A 
ENDBRANCH   1  22
ENDBRANCH   9   1
BRANCH  21  25
ATOM     25  C   UNL     1      14.989  10.255   6.588  0.00  0.00    +0.255 C 
BRANCH  25   8
ATOM      8  O   UNL     1      15.452  10.623   5.311  0.00  0.00    -0.374 OA
ATOM     31  C   UNL     1      14.528  11.471   4.630  0.00  0.00    +0.194 C 
ENDBRANCH  25   8
ENDBRANCH  21  25
TORSDOF 6
ENDMDL
MODEL 7
REMARK VINA RESULT:      -6.0      6.939     10.931
REMARK  Name = 7674043
REMARK  7 active torsions:
REMARK  status: ('A' for Active; 'I' for Inactive)
REMARK    1  A    between atoms: S_1  and  N_9
REMARK    2  A    between atoms: S_1  and  C_22
REMARK    3  A    between atoms: O_8  and  C_25
REMARK    4  A    between atoms: O_8  and  C_31
REMARK    5  A    between atoms: N_11  and  C_18
REMARK    6  A    between atoms: C_13  and  C_17
REMARK    7  A    between atoms: C_21  and  C_25
REMARK                            x       y       z     vdW  Elec       q    Type
REMARK                         _______ _______ _______ _____ _____    ______ ____
ROOT
ATOM      6  O   UNL     1      26.268   8.008  20.203  0.00  0.00    -0.273 OA
ATOM      9  N   UNL     1      21.488   7.634  21.673  0.00  0.00    -0.162 NA
ATOM     10  N   UNL     1      23.992   8.394  20.487  0.00  0.00    -0.296 N 
ATOM     13  C   UNL     1      22.761   7.069  22.205  0.00  0.00    +0.183 C 
ATOM     14  C   UNL     1      23.982   7.923  21.874  0.00  0.00    +0.138 C 
ATOM     15  C   UNL     1      21.624   8.954  21.005  0.00  0.00    +0.129 C 
ATOM     16  C   UNL     1      22.715   8.867  19.946  0.00  0.00    +0.125 C 
ATOM     21  C   UNL     1      25.186   8.402  19.764  0.00  0.00    +0.241 C 
ENDROOT
BRANCH  13  17
ATOM      3  O   UNL     1      22.748   5.559  20.359  0.00  0.00    -0.274 OA
ATOM     11  N   UNL     1      23.058   4.716  22.507  0.00  0.00    -0.303 N 
ATOM     17  C   UNL     1      22.858   5.718  21.573  0.00  0.00    +0.234 C 
ATOM     32  H   UNL     1      23.167   4.967  23.485  0.00  0.00    +0.149 HD
BRANCH  11  18
ATOM      7  O   UNL     1      22.262   2.860  24.348  0.00  0.00    -0.274 OA
ATOM     12  N   UNL     1      23.665   1.291  23.463  0.00  0.00    -0.314 N 
ATOM     18  C   UNL     1      23.163   3.322  22.158  0.00  0.00    +0.159 C 
ATOM     19  C   UNL     1      24.450   3.052  21.390  0.00  0.00    +0.033 C 
ATOM     20  C   UNL     1      24.618   1.555  21.191  0.00  0.00    +0.021 C 
ATOM     23  C   UNL     1      23.011   2.506  23.436  0.00  0.00    +0.233 C 
ATOM     24  C   UNL     1      24.713   0.881  22.546  0.00  0.00    +0.104 C 
ATOM     33  H   UNL     1      23.524   0.712  24.285  0.00  0.00    +0.149 HD
ENDBRANCH  11  18
ENDBRANCH  13  17
BRANCH   9   1
ATOM      1  S   UNL     1      20.091   7.419  22.636  0.00  0.00    +0.062 S 
ATOM      4  O   UNL     1      19.703   8.694  23.201  0.00  0.00    -0.153 OA
ATOM      5  O   UNL     1      20.274   6.256  23.478  0.00  0.00    -0.153 OA
BRANCH   1  22
ATOM      2  F   UNL     1      16.166   6.036  18.460  0.00  0.00    -0.205 F 
ATOM     22  C   UNL     1      18.914   7.004  21.385  0.00  0.00    +0.106 A 
ATOM     26  C   UNL     1      19.185   5.969  20.490  0.00  0.00    +0.031 A 
ATOM     27  C   UNL     1      17.716   7.712  21.292  0.00  0.00    +0.031 A 
ATOM     28  C   UNL     1      18.256   5.642  19.502  0.00  0.00    +0.040 A 
ATOM     29  C   UNL     1      16.788   7.385  20.305  0.00  0.00    +0.040 A 
ATOM     30  C   UNL     1      17.058   6.349  19.409  0.00  0.00    +0.124 A 
ENDBRANCH   1  22
ENDBRANCH   9   1
BRANCH  21  25
ATOM     25  C   UNL     1      25.103   8.939  18.355  0.00  0.00    +0.255 C 
BRANCH  25   8
ATOM      8  O   UNL     1      26.354   8.698  17.758  0.00  0.00    -0.374 OA
ATOM     31  C   UNL     1      26.225   8.118  16.461  0.00  0.00    +0.194 C 
ENDBRANCH  25   8
ENDBRANCH  21  25
TORSDOF 6
ENDMDL
MODEL 8
REMARK VINA RESULT:      -6.0     11.693     14.061
REMARK  Name = 7674043
REMARK  7 active torsions:
REMARK  status: ('A' for Active; 'I' for Inactive)
REMARK    1  A    between atoms: S_1  and  N_9
REMARK    2  A    between atoms: S_1  and  C_22
REMARK    3  A    between atoms: O_8  and  C_25
REMARK    4  A    between atoms: O_8  and  C_31
REMARK    5  A    between atoms: N_11  and  C_18
REMARK    6  A    between atoms: C_13  and  C_17
REMARK    7  A    between atoms: C_21  and  C_25
REMARK                            x       y       z     vdW  Elec       q    Type
REMARK                         _______ _______ _______ _____ _____    ______ ____
ROOT
ATOM      6  O   UNL     1      15.039  10.465   4.263  0.00  0.00    -0.273 OA
ATOM      9  N   UNL     1      10.995   7.717   5.381  0.00  0.00    -0.162 NA
ATOM     10  N   UNL     1      13.646   8.764   5.026  0.00  0.00    -0.296 N 
ATOM     13  C   UNL     1      11.223   8.854   4.444  0.00  0.00    +0.183 C 
ATOM     14  C   UNL     1      12.665   8.949   3.955  0.00  0.00    +0.138 C 
ATOM     15  C   UNL     1      12.175   6.841   5.595  0.00  0.00    +0.129 C 
ATOM     16  C   UNL     1      13.368   7.699   5.993  0.00  0.00    +0.125 C 
ATOM     21  C   UNL     1      14.789   9.565   5.069  0.00  0.00    +0.241 C 
ENDROOT
BRANCH  13  17
ATOM      3  O   UNL     1      10.591  11.140   4.688  0.00  0.00    -0.274 OA
ATOM     11  N   UNL     1      10.821   9.822   6.593  0.00  0.00    -0.303 N 
ATOM     17  C   UNL     1      10.837  10.065   5.230  0.00  0.00    +0.234 C 
ATOM     32  H   UNL     1      11.011   8.882   6.929  0.00  0.00    +0.149 HD
BRANCH  11  18
ATOM      7  O   UNL     1      12.882  11.206   7.736  0.00  0.00    -0.274 OA
ATOM     12  N   UNL     1      11.644  11.621   9.610  0.00  0.00    -0.314 N 
ATOM     18  C   UNL     1      10.504  10.831   7.570  0.00  0.00    +0.159 C 
ATOM     19  C   UNL     1       9.371  10.370   8.477  0.00  0.00    +0.033 C 
ATOM     20  C   UNL     1       9.178  11.374   9.602  0.00  0.00    +0.021 C 
ATOM     23  C   UNL     1      11.789  11.193   8.305  0.00  0.00    +0.233 C 
ATOM     24  C   UNL     1      10.452  11.453  10.421  0.00  0.00    +0.104 C 
ATOM     33  H   UNL     1      12.487  11.920  10.090  0.00  0.00    +0.149 HD
ENDBRANCH  11  18
ENDBRANCH  13  17
BRANCH   9   1
ATOM      1  S   UNL     1       9.481   6.928   5.277  0.00  0.00    +0.062 S 
ATOM      4  O   UNL     1       9.547   5.908   4.251  0.00  0.00    -0.153 OA
ATOM      5  O   UNL     1       8.431   7.923   5.271  0.00  0.00    -0.153 OA
BRANCH   1  22
ATOM      2  F   UNL     1       9.373   4.207  10.506  0.00  0.00    -0.205 F 
ATOM     22  C   UNL     1       9.449   6.113   6.844  0.00  0.00    +0.106 A 
ATOM     26  C   UNL     1       9.785   4.762   6.933  0.00  0.00    +0.031 A 
ATOM     27  C   UNL     1       9.087   6.820   7.991  0.00  0.00    +0.031 A 
ATOM     28  C   UNL     1       9.760   4.118   8.171  0.00  0.00    +0.040 A 
ATOM     29  C   UNL     1       9.062   6.176   9.227  0.00  0.00    +0.040 A 
ATOM     30  C   UNL     1       9.398   4.825   9.318  0.00  0.00    +0.124 A 
ENDBRANCH   1  22
ENDBRANCH   9   1
BRANCH  21  25
ATOM     25  C   UNL     1      15.759   9.275   6.189  0.00  0.00    +0.255 C 
BRANCH  25   8
ATOM      8  O   UNL     1      16.961   8.866   5.583  0.00  0.00    -0.374 OA
ATOM     31  C   UNL     1      18.031   9.772   5.850  0.00  0.00    +0.194 C 
ENDBRANCH  25   8
ENDBRANCH  21  25
TORSDOF 6
ENDMDL
MODEL 9
REMARK VINA RESULT:      -6.0     14.563     18.327
REMARK  Name = 7674043
REMARK  7 active torsions:
REMARK  status: ('A' for Active; 'I' for Inactive)
REMARK    1  A    between atoms: S_1  and  N_9
REMARK    2  A    between atoms: S_1  and  C_22
REMARK    3  A    between atoms: O_8  and  C_25
REMARK    4  A    between atoms: O_8  and  C_31
REMARK    5  A    between atoms: N_11  and  C_18
REMARK    6  A    between atoms: C_13  and  C_17
REMARK    7  A    between atoms: C_21  and  C_25
REMARK                            x       y       z     vdW  Elec       q    Type
REMARK                         _______ _______ _______ _____ _____    ______ ____
ROOT
ATOM      6  O   UNL     1      14.112  10.257   2.058  0.00  0.00    -0.273 OA
ATOM      9  N   UNL     1      13.249   5.317   2.104  0.00  0.00    -0.162 NA
ATOM     10  N   UNL     1      14.388   7.952   2.209  0.00  0.00    -0.296 N 
ATOM     13  C   UNL     1      12.485   6.476   1.560  0.00  0.00    +0.183 C 
ATOM     14  C   UNL     1      13.374   7.662   1.194  0.00  0.00    +0.138 C 
ATOM     15  C   UNL     1      14.724   5.490   2.107  0.00  0.00    +0.129 C 
ATOM     16  C   UNL     1      15.072   6.799   2.801  0.00  0.00    +0.125 C 
ATOM     21  C   UNL     1      14.677   9.276   2.546  0.00  0.00    +0.241 C 
ENDROOT
BRANCH  13  17
ATOM      3  O   UNL     1      10.649   7.678   2.492  0.00  0.00    -0.274 OA
ATOM     11  N   UNL     1      11.776   6.130   3.817  0.00  0.00    -0.303 N 
ATOM     17  C   UNL     1      11.528   6.834   2.651  0.00  0.00    +0.234 C 
ATOM     32  H   UNL     1      12.512   5.430   3.825  0.00  0.00    +0.149 HD
BRANCH  11  18
ATOM      7  O   UNL     1      13.018   7.233   5.987  0.00  0.00    -0.274 OA
ATOM     12  N   UNL     1      11.581   6.184   7.419  0.00  0.00    -0.314 N 
ATOM     18  C   UNL     1      11.009   6.308   5.023  0.00  0.00    +0.159 C 
ATOM     19  C   UNL     1      10.090   5.117   5.262  0.00  0.00    +0.033 C 
ATOM     20  C   UNL     1       9.428   5.249   6.624  0.00  0.00    +0.021 C 
ATOM     23  C   UNL     1      11.983   6.588   6.161  0.00  0.00    +0.233 C 
ATOM     24  C   UNL     1      10.499   5.258   7.698  0.00  0.00    +0.104 C 
ATOM     33  H   UNL     1      12.195   6.418   8.193  0.00  0.00    +0.149 HD
ENDBRANCH  11  18
ENDBRANCH  13  17
BRANCH   9   1
ATOM      1  S   UNL     1      12.674   3.759   1.695  0.00  0.00    +0.062 S 
ATOM      4  O   UNL     1      11.463   3.489   2.442  0.00  0.00    -0.153 OA
ATOM      5  O   UNL     1      13.782   2.828   1.712  0.00  0.00    -0.153 OA
BRANCH   1  22
ATOM      2  F   UNL     1      11.154   4.664  -3.928  0.00  0.00    -0.205 F 
ATOM     22  C   UNL     1      12.218   4.030   0.010  0.00  0.00    +0.106 A 
ATOM     26  C   UNL     1      13.179   3.931  -0.996  0.00  0.00    +0.031 A 
ATOM     27  C   UNL     1      10.898   4.344  -0.314  0.00  0.00    +0.031 A 
ATOM     28  C   UNL     1      12.819   4.145  -2.327  0.00  0.00    +0.040 A 
ATOM     29  C   UNL     1      10.539   4.557  -1.643  0.00  0.00    +0.040 A 
ATOM     30  C   UNL     1      11.499   4.458  -2.651  0.00  0.00    +0.124 A 
ENDBRANCH   1  22
ENDBRANCH   9   1
BRANCH  21  25
ATOM     25  C   UNL     1      15.763   9.475   3.576  0.00  0.00    +0.255 C 
BRANCH  25   8
ATOM      8  O   UNL     1      15.117   9.631   4.815  0.00  0.00    -0.374 OA
ATOM     31  C   UNL     1      16.044   9.837   5.881  0.00  0.00    +0.194 C 
ENDBRANCH  25   8
ENDBRANCH  21  25
TORSDOF 6
ENDMDL
MODEL 10
REMARK VINA RESULT:      -5.9     27.995     29.969
REMARK  Name = 7674043
REMARK  7 active torsions:
REMARK  status: ('A' for Active; 'I' for Inactive)
REMARK    1  A    between atoms: S_1  and  N_9
REMARK    2  A    between atoms: S_1  and  C_22
REMARK    3  A    between atoms: O_8  and  C_25
REMARK    4  A    between atoms: O_8  and  C_31
REMARK    5  A    between atoms: N_11  and  C_18
REMARK    6  A    between atoms: C_13  and  C_17
REMARK    7  A    between atoms: C_21  and  C_25
REMARK                            x       y       z     vdW  Elec       q    Type
REMARK                         _______ _______ _______ _____ _____    ______ ____
ROOT
ATOM      6  O   UNL     1      -3.063 -13.112  14.125  0.00  0.00    -0.273 OA
ATOM      9  N   UNL     1      -6.131 -11.480  17.741  0.00  0.00    -0.162 NA
ATOM     10  N   UNL     1      -4.036 -11.833  15.807  0.00  0.00    -0.296 N 
ATOM     13  C   UNL     1      -5.911 -12.819  17.124  0.00  0.00    +0.183 C 
ATOM     14  C   UNL     1      -4.503 -12.997  16.562  0.00  0.00    +0.138 C 
ATOM     15  C   UNL     1      -4.930 -10.607  17.778  0.00  0.00    +0.129 C 
ATOM     16  C   UNL     1      -4.335 -10.517  16.380  0.00  0.00    +0.125 C 
ATOM     21  C   UNL     1      -3.322 -12.013  14.621  0.00  0.00    +0.241 C 
ENDROOT
BRANCH  13  17
ATOM      3  O   UNL     1      -7.305 -13.979  15.577  0.00  0.00    -0.274 OA
ATOM     11  N   UNL     1      -7.382 -11.653  15.643  0.00  0.00    -0.303 N 
ATOM     17  C   UNL     1      -6.939 -12.902  16.042  0.00  0.00    +0.234 C 
ATOM     32  H   UNL     1      -7.032 -10.829  16.122  0.00  0.00    +0.149 HD
BRANCH  11  18
ATOM      7  O   UNL     1      -6.892  -9.732  13.762  0.00  0.00    -0.274 OA
ATOM     12  N   UNL     1      -9.125  -9.468  13.362  0.00  0.00    -0.314 N 
ATOM     18  C   UNL     1      -8.356 -11.458  14.600  0.00  0.00    +0.159 C 
ATOM     19  C   UNL     1      -9.770 -11.564  15.153  0.00  0.00    +0.033 C 
ATOM     20  C   UNL     1     -10.769 -11.181  14.073  0.00  0.00    +0.021 C 
ATOM     23  C   UNL     1      -8.048 -10.133  13.912  0.00  0.00    +0.233 C 
ATOM     24  C   UNL     1     -10.520  -9.746  13.653  0.00  0.00    +0.104 C 
ATOM     33  H   UNL     1      -8.925  -8.614  12.851  0.00  0.00    +0.149 HD
ENDBRANCH  11  18
ENDBRANCH  13  17
BRANCH   9   1
ATOM      1  S   UNL     1      -7.143 -11.427  19.119  0.00  0.00    +0.062 S 
ATOM      4  O   UNL     1      -6.468 -10.701  20.175  0.00  0.00    -0.153 OA
ATOM      5  O   UNL     1      -7.689 -12.746  19.354  0.00  0.00    -0.153 OA
BRANCH   1  22
ATOM      2  F   UNL     1     -11.487  -8.004  17.078  0.00  0.00    -0.205 F 
ATOM     22  C   UNL     1      -8.444 -10.401  18.507  0.00  0.00    +0.106 A 
ATOM     26  C   UNL     1      -9.770 -10.688  18.834  0.00  0.00    +0.031 A 
ATOM     27  C   UNL     1      -8.147  -9.305  17.697  0.00  0.00    +0.031 A 
ATOM     28  C   UNL     1     -10.798  -9.878  18.351  0.00  0.00    +0.040 A 
ATOM     29  C   UNL     1      -9.174  -8.495  17.215  0.00  0.00    +0.040 A 
ATOM     30  C   UNL     1     -10.500  -8.781  17.542  0.00  0.00    +0.124 A 
ENDBRANCH   1  22
ENDBRANCH   9   1
BRANCH  21  25
ATOM     25  C   UNL     1      -2.853 -10.753  13.933  0.00  0.00    +0.255 C 
BRANCH  25   8
ATOM      8  O   UNL     1      -3.806 -10.457  12.942  0.00  0.00    -0.374 OA
ATOM     31  C   UNL     1      -3.244 -10.491  11.631  0.00  0.00    +0.194 C 
ENDBRANCH  25   8
ENDBRANCH  21  25
TORSDOF 6
ENDMDL
