MODEL 1
REMARK VINA RESULT:      -7.7      0.000      0.000
REMARK  Name = 45784258
REMARK  6 active torsions:
REMARK  status: ('A' for Active; 'I' for Inactive)
REMARK    1  A    between atoms: O_4  and  C_28
REMARK    2  A    between atoms: N_6  and  C_14
REMARK    3  A    between atoms: C_9  and  C_13
REMARK    4  A    between atoms: C_14  and  C_15
REMARK    5  A    between atoms: C_22  and  C_27
REMARK    6  A    between atoms: C_26  and  C_28
REMARK                            x       y       z     vdW  Elec       q    Type
REMARK                         _______ _______ _______ _____ _____    ______ ____
ROOT
ATOM      6  N   UNL     1      10.828   5.711   4.139  0.00  0.00    -0.297 NA
ATOM      9  C   UNL     1      11.956   4.652   2.377  0.00  0.00    +0.070 C 
ATOM     10  C   UNL     1      12.530   6.065   2.579  0.00  0.00    +0.028 C 
ATOM     11  C   UNL     1      10.625   4.660   3.139  0.00  0.00    +0.096 C 
ATOM     12  C   UNL     1      11.487   6.797   3.414  0.00  0.00    +0.085 C 
ENDROOT
BRANCH   9  13
ATOM      7  N   UNL     1      10.785   4.700   0.157  0.00  0.00    -0.342 N 
ATOM      8  N   UNL     1      12.588   3.404   0.272  0.00  0.00    -0.232 NA
ATOM     13  C   UNL     1      11.807   4.228   0.934  0.00  0.00    +0.113 A 
ATOM     16  C   UNL     1      10.916   4.144  -1.089  0.00  0.00    +0.067 A 
ATOM     17  C   UNL     1      12.047   3.339  -0.992  0.00  0.00    +0.089 A 
ATOM     18  C   UNL     1      10.164   4.272  -2.257  0.00  0.00    +0.040 A 
ATOM     21  C   UNL     1      12.467   2.611  -2.118  0.00  0.00    +0.030 A 
ATOM     22  C   UNL     1      10.597   3.540  -3.368  0.00  0.00    +0.057 A 
ATOM     23  C   UNL     1      11.728   2.723  -3.301  0.00  0.00    +0.014 A 
ATOM     29  H   UNL     1      10.062   5.346   0.446  0.00  0.00    +0.167 HD
BRANCH  22  27
ATOM      1  F   UNL     1      10.436   4.424  -5.585  0.00  0.00    -0.166 F 
ATOM      2  F   UNL     1       8.585   4.157  -4.477  0.00  0.00    -0.166 F 
ATOM      3  F   UNL     1       9.648   2.429  -5.262  0.00  0.00    -0.166 F 
ATOM     27  C   UNL     1       9.834   3.635  -4.648  0.00  0.00    +0.417 C 
ENDBRANCH  22  27
ENDBRANCH   9  13
BRANCH   6  14
ATOM     14  C   UNL     1       9.582   6.136   4.759  0.00  0.00    +0.119 C 
BRANCH  14  15
ATOM     15  C   UNL     1       9.524   5.759   6.216  0.00  0.00    -0.033 A 
ATOM     19  C   UNL     1       9.846   4.461   6.613  0.00  0.00    +0.006 A 
ATOM     20  C   UNL     1       9.149   6.707   7.167  0.00  0.00    +0.006 A 
ATOM     24  C   UNL     1       9.793   4.112   7.963  0.00  0.00    +0.015 A 
ATOM     25  C   UNL     1       9.095   6.358   8.517  0.00  0.00    +0.015 A 
ATOM     26  C   UNL     1       9.418   5.060   8.915  0.00  0.00    +0.059 A 
BRANCH  26  28
ATOM      5  O   UNL     1      10.336   4.410  11.026  0.00  0.00    -0.245 OA
ATOM     28  C   UNL     1       9.363   4.697  10.322  0.00  0.00    +0.337 C 
BRANCH  28   4
ATOM      4  O   UNL     1       8.092   4.703  10.811  0.00  0.00    -0.477 OA
ATOM     30  H   UNL     1       7.894   5.531  11.299  0.00  0.00    +0.295 HD
ENDBRANCH  28   4
ENDBRANCH  26  28
ENDBRANCH  14  15
ENDBRANCH   6  14
TORSDOF 6
ENDMDL
MODEL 2
REMARK VINA RESULT:      -7.7     19.585     21.830
REMARK  Name = 45784258
REMARK  6 active torsions:
REMARK  status: ('A' for Active; 'I' for Inactive)
REMARK    1  A    between atoms: O_4  and  C_28
REMARK    2  A    between atoms: N_6  and  C_14
REMARK    3  A    between atoms: C_9  and  C_13
REMARK    4  A    between atoms: C_14  and  C_15
REMARK    5  A    between atoms: C_22  and  C_27
REMARK    6  A    between atoms: C_26  and  C_28
REMARK                            x       y       z     vdW  Elec       q    Type
REMARK                         _______ _______ _______ _____ _____    ______ ____
ROOT
ATOM      6  N   UNL     1      17.382   7.809  20.667  0.00  0.00    -0.297 NA
ATOM      9  C   UNL     1      19.325   6.566  20.242  0.00  0.00    +0.070 C 
ATOM     10  C   UNL     1      18.103   5.816  19.685  0.00  0.00    +0.028 C 
ATOM     11  C   UNL     1      18.736   7.618  21.192  0.00  0.00    +0.096 C 
ATOM     12  C   UNL     1      16.902   6.460  20.364  0.00  0.00    +0.085 C 
ENDROOT
BRANCH   9  13
ATOM      7  N   UNL     1      20.963   4.663  20.228  0.00  0.00    -0.342 N 
ATOM      8  N   UNL     1      20.796   5.781  22.143  0.00  0.00    -0.232 NA
ATOM     13  C   UNL     1      20.361   5.687  20.906  0.00  0.00    +0.113 A 
ATOM     16  C   UNL     1      21.845   4.057  21.084  0.00  0.00    +0.067 A 
ATOM     17  C   UNL     1      21.722   4.772  22.273  0.00  0.00    +0.089 A 
ATOM     18  C   UNL     1      22.714   2.976  20.927  0.00  0.00    +0.040 A 
ATOM     21  C   UNL     1      22.504   4.401  23.379  0.00  0.00    +0.030 A 
ATOM     22  C   UNL     1      23.484   2.621  22.039  0.00  0.00    +0.057 A 
ATOM     23  C   UNL     1      23.382   3.319  23.245  0.00  0.00    +0.014 A 
ATOM     29  H   UNL     1      20.792   4.398  19.267  0.00  0.00    +0.167 HD
BRANCH  22  27
ATOM      1  F   UNL     1      24.025   0.505  21.061  0.00  0.00    -0.166 F 
ATOM      2  F   UNL     1      24.621   0.837  23.125  0.00  0.00    -0.166 F 
ATOM      3  F   UNL     1      25.680   1.834  21.508  0.00  0.00    -0.166 F 
ATOM     27  C   UNL     1      24.434   1.472  21.933  0.00  0.00    +0.417 C 
ENDBRANCH  22  27
ENDBRANCH   9  13
BRANCH   6  14
ATOM     14  C   UNL     1      16.517   8.508  21.604  0.00  0.00    +0.119 C 
BRANCH  14  15
ATOM     15  C   UNL     1      15.070   8.438  21.192  0.00  0.00    -0.033 A 
ATOM     19  C   UNL     1      14.139   7.812  22.021  0.00  0.00    +0.006 A 
ATOM     20  C   UNL     1      14.662   8.999  19.982  0.00  0.00    +0.006 A 
ATOM     24  C   UNL     1      12.799   7.747  21.640  0.00  0.00    +0.015 A 
ATOM     25  C   UNL     1      13.321   8.933  19.600  0.00  0.00    +0.015 A 
ATOM     26  C   UNL     1      12.389   8.308  20.430  0.00  0.00    +0.059 A 
BRANCH  26  28
ATOM      5  O   UNL     1      10.544   8.578  18.931  0.00  0.00    -0.245 OA
ATOM     28  C   UNL     1      10.993   8.240  20.032  0.00  0.00    +0.337 C 
BRANCH  28   4
ATOM      4  O   UNL     1      10.193   7.750  21.020  0.00  0.00    -0.477 OA
ATOM     30  H   UNL     1       9.265   7.647  20.719  0.00  0.00    +0.295 HD
ENDBRANCH  28   4
ENDBRANCH  26  28
ENDBRANCH  14  15
ENDBRANCH   6  14
TORSDOF 6
ENDMDL
MODEL 3
REMARK VINA RESULT:      -7.7     29.532     34.043
REMARK  Name = 45784258
REMARK  6 active torsions:
REMARK  status: ('A' for Active; 'I' for Inactive)
REMARK    1  A    between atoms: O_4  and  C_28
REMARK    2  A    between atoms: N_6  and  C_14
REMARK    3  A    between atoms: C_9  and  C_13
REMARK    4  A    between atoms: C_14  and  C_15
REMARK    5  A    between atoms: C_22  and  C_27
REMARK    6  A    between atoms: C_26  and  C_28
REMARK                            x       y       z     vdW  Elec       q    Type
REMARK                         _______ _______ _______ _____ _____    ______ ____
ROOT
ATOM      6  N   UNL     1     -14.471   6.760  21.921  0.00  0.00    -0.297 NA
ATOM      9  C   UNL     1     -15.565   4.798  22.594  0.00  0.00    +0.070 C 
ATOM     10  C   UNL     1     -16.604   5.906  22.343  0.00  0.00    +0.028 C 
ATOM     11  C   UNL     1     -14.224   5.537  22.687  0.00  0.00    +0.096 C 
ATOM     12  C   UNL     1     -15.803   7.201  22.336  0.00  0.00    +0.085 C 
ENDROOT
BRANCH   9  13
ATOM      7  N   UNL     1     -15.661   4.396  25.070  0.00  0.00    -0.342 N 
ATOM      8  N   UNL     1     -16.275   2.686  23.788  0.00  0.00    -0.232 NA
ATOM     13  C   UNL     1     -15.845   3.928  23.798  0.00  0.00    +0.113 A 
ATOM     16  C   UNL     1     -15.996   3.389  25.938  0.00  0.00    +0.067 A 
ATOM     17  C   UNL     1     -16.374   2.333  25.115  0.00  0.00    +0.089 A 
ATOM     18  C   UNL     1     -15.999   3.313  27.331  0.00  0.00    +0.040 A 
ATOM     21  C   UNL     1     -16.783   1.122  25.698  0.00  0.00    +0.030 A 
ATOM     22  C   UNL     1     -16.409   2.101  27.895  0.00  0.00    +0.057 A 
ATOM     23  C   UNL     1     -16.794   1.023  27.094  0.00  0.00    +0.014 A 
ATOM     29  H   UNL     1     -15.338   5.319  25.328  0.00  0.00    +0.167 HD
BRANCH  22  27
ATOM      1  F   UNL     1     -16.534   0.663  29.803  0.00  0.00    -0.166 F 
ATOM      2  F   UNL     1     -17.485   2.612  29.953  0.00  0.00    -0.166 F 
ATOM      3  F   UNL     1     -15.316   2.447  29.995  0.00  0.00    -0.166 F 
ATOM     27  C   UNL     1     -16.434   1.957  29.382  0.00  0.00    +0.417 C 
ENDBRANCH  22  27
ENDBRANCH   9  13
BRANCH   6  14
ATOM     14  C   UNL     1     -13.454   7.775  22.152  0.00  0.00    +0.119 C 
BRANCH  14  15
ATOM     15  C   UNL     1     -12.616   8.018  20.924  0.00  0.00    -0.033 A 
ATOM     19  C   UNL     1     -12.119   6.938  20.196  0.00  0.00    +0.006 A 
ATOM     20  C   UNL     1     -12.338   9.322  20.516  0.00  0.00    +0.006 A 
ATOM     24  C   UNL     1     -11.342   7.163  19.058  0.00  0.00    +0.015 A 
ATOM     25  C   UNL     1     -11.561   9.547  19.380  0.00  0.00    +0.015 A 
ATOM     26  C   UNL     1     -11.064   8.467  18.650  0.00  0.00    +0.059 A 
BRANCH  26  28
ATOM      5  O   UNL     1     -10.403   8.140  16.374  0.00  0.00    -0.245 OA
ATOM     28  C   UNL     1     -10.255   8.701  17.465  0.00  0.00    +0.337 C 
BRANCH  28   4
ATOM      4  O   UNL     1      -9.283   9.632  17.674  0.00  0.00    -0.477 OA
ATOM     30  H   UNL     1      -8.617   9.323  18.324  0.00  0.00    +0.295 HD
ENDBRANCH  28   4
ENDBRANCH  26  28
ENDBRANCH  14  15
ENDBRANCH   6  14
TORSDOF 6
ENDMDL
MODEL 4
REMARK VINA RESULT:      -7.6     18.826     21.813
REMARK  Name = 45784258
REMARK  6 active torsions:
REMARK  status: ('A' for Active; 'I' for Inactive)
REMARK    1  A    between atoms: O_4  and  C_28
REMARK    2  A    between atoms: N_6  and  C_14
REMARK    3  A    between atoms: C_9  and  C_13
REMARK    4  A    between atoms: C_14  and  C_15
REMARK    5  A    between atoms: C_22  and  C_27
REMARK    6  A    between atoms: C_26  and  C_28
REMARK                            x       y       z     vdW  Elec       q    Type
REMARK                         _______ _______ _______ _____ _____    ______ ____
ROOT
ATOM      6  N   UNL     1      20.295   7.044  22.092  0.00  0.00    -0.297 NA
ATOM      9  C   UNL     1      18.463   7.830  20.859  0.00  0.00    +0.070 C 
ATOM     10  C   UNL     1      18.868   8.883  21.905  0.00  0.00    +0.028 C 
ATOM     11  C   UNL     1      19.161   6.542  21.313  0.00  0.00    +0.096 C 
ATOM     12  C   UNL     1      19.744   8.133  22.899  0.00  0.00    +0.085 C 
ENDROOT
BRANCH   9  13
ATOM      7  N   UNL     1      16.100   7.875  21.708  0.00  0.00    -0.342 N 
ATOM      8  N   UNL     1      16.350   7.304  19.574  0.00  0.00    -0.232 NA
ATOM     13  C   UNL     1      16.971   7.659  20.677  0.00  0.00    +0.113 A 
ATOM     16  C   UNL     1      14.833   7.645  21.241  0.00  0.00    +0.067 A 
ATOM     17  C   UNL     1      15.014   7.289  19.907  0.00  0.00    +0.089 A 
ATOM     18  C   UNL     1      13.580   7.714  21.851  0.00  0.00    +0.040 A 
ATOM     21  C   UNL     1      13.891   6.981  19.121  0.00  0.00    +0.030 A 
ATOM     22  C   UNL     1      12.473   7.405  21.054  0.00  0.00    +0.057 A 
ATOM     23  C   UNL     1      12.624   7.044  19.712  0.00  0.00    +0.014 A 
ATOM     29  H   UNL     1      16.344   8.156  22.649  0.00  0.00    +0.167 HD
BRANCH  22  27
ATOM      1  F   UNL     1      10.556   6.231  21.873  0.00  0.00    -0.166 F 
ATOM      2  F   UNL     1      10.214   8.120  20.854  0.00  0.00    -0.166 F 
ATOM      3  F   UNL     1      11.062   8.096  22.857  0.00  0.00    -0.166 F 
ATOM     27  C   UNL     1      11.104   7.461  21.649  0.00  0.00    +0.417 C 
ENDBRANCH  22  27
ENDBRANCH   9  13
BRANCH   6  14
ATOM     14  C   UNL     1      20.911   6.007  22.907  0.00  0.00    +0.119 C 
BRANCH  14  15
ATOM     15  C   UNL     1      21.948   5.231  22.138  0.00  0.00    -0.033 A 
ATOM     19  C   UNL     1      22.020   3.845  22.271  0.00  0.00    +0.006 A 
ATOM     20  C   UNL     1      22.833   5.899  21.293  0.00  0.00    +0.006 A 
ATOM     24  C   UNL     1      22.981   3.126  21.559  0.00  0.00    +0.015 A 
ATOM     25  C   UNL     1      23.794   5.180  20.582  0.00  0.00    +0.015 A 
ATOM     26  C   UNL     1      23.868   3.793  20.714  0.00  0.00    +0.059 A 
BRANCH  26  28
ATOM      5  O   UNL     1      25.900   2.560  20.449  0.00  0.00    -0.245 OA
ATOM     28  C   UNL     1      24.869   3.044  19.972  0.00  0.00    +0.337 C 
BRANCH  28   4
ATOM      4  O   UNL     1      24.553   2.919  18.653  0.00  0.00    -0.477 OA
ATOM     30  H   UNL     1      23.586   2.816  18.518  0.00  0.00    +0.295 HD
ENDBRANCH  28   4
ENDBRANCH  26  28
ENDBRANCH  14  15
ENDBRANCH   6  14
TORSDOF 6
ENDMDL
MODEL 5
REMARK VINA RESULT:      -7.4      8.365     11.025
REMARK  Name = 45784258
REMARK  6 active torsions:
REMARK  status: ('A' for Active; 'I' for Inactive)
REMARK    1  A    between atoms: O_4  and  C_28
REMARK    2  A    between atoms: N_6  and  C_14
REMARK    3  A    between atoms: C_9  and  C_13
REMARK    4  A    between atoms: C_14  and  C_15
REMARK    5  A    between atoms: C_22  and  C_27
REMARK    6  A    between atoms: C_26  and  C_28
REMARK                            x       y       z     vdW  Elec       q    Type
REMARK                         _______ _______ _______ _____ _____    ______ ____
ROOT
ATOM      6  N   UNL     1      16.256   9.044   5.377  0.00  0.00    -0.297 NA
ATOM      9  C   UNL     1      14.105   8.131   5.181  0.00  0.00    +0.070 C 
ATOM     10  C   UNL     1      14.083   9.602   4.729  0.00  0.00    +0.028 C 
ATOM     11  C   UNL     1      15.427   7.979   5.946  0.00  0.00    +0.096 C 
ATOM     12  C   UNL     1      15.369  10.203   5.282  0.00  0.00    +0.085 C 
ENDROOT
BRANCH   9  13
ATOM      7  N   UNL     1      12.939   6.576   6.770  0.00  0.00    -0.342 N 
ATOM      8  N   UNL     1      11.737   8.301   6.049  0.00  0.00    -0.232 NA
ATOM     13  C   UNL     1      12.903   7.698   5.989  0.00  0.00    +0.113 A 
ATOM     16  C   UNL     1      11.715   6.447   7.374  0.00  0.00    +0.067 A 
ATOM     17  C   UNL     1      10.983   7.535   6.908  0.00  0.00    +0.089 A 
ATOM     18  C   UNL     1      11.201   5.501   8.261  0.00  0.00    +0.040 A 
ATOM     21  C   UNL     1       9.657   7.705   7.341  0.00  0.00    +0.030 A 
ATOM     22  C   UNL     1       9.881   5.685   8.682  0.00  0.00    +0.057 A 
ATOM     23  C   UNL     1       9.120   6.767   8.231  0.00  0.00    +0.014 A 
ATOM     29  H   UNL     1      13.727   5.951   6.885  0.00  0.00    +0.167 HD
BRANCH  22  27
ATOM      1  F   UNL     1       8.954   3.511   9.054  0.00  0.00    -0.166 F 
ATOM      2  F   UNL     1       8.115   5.165  10.188  0.00  0.00    -0.166 F 
ATOM      3  F   UNL     1      10.086   4.389  10.682  0.00  0.00    -0.166 F 
ATOM     27  C   UNL     1       9.272   4.706   9.632  0.00  0.00    +0.417 C 
ENDBRANCH  22  27
ENDBRANCH   9  13
BRANCH   6  14
ATOM     14  C   UNL     1      17.439   9.316   6.181  0.00  0.00    +0.119 C 
BRANCH  14  15
ATOM     15  C   UNL     1      18.662   8.635   5.626  0.00  0.00    -0.033 A 
ATOM     19  C   UNL     1      18.707   8.270   4.281  0.00  0.00    +0.006 A 
ATOM     20  C   UNL     1      19.750   8.371   6.458  0.00  0.00    +0.006 A 
ATOM     24  C   UNL     1      19.841   7.640   3.767  0.00  0.00    +0.015 A 
ATOM     25  C   UNL     1      20.883   7.739   5.944  0.00  0.00    +0.015 A 
ATOM     26  C   UNL     1      20.929   7.375   4.598  0.00  0.00    +0.059 A 
BRANCH  26  28
ATOM      5  O   UNL     1      22.107   5.813   3.222  0.00  0.00    -0.245 OA
ATOM     28  C   UNL     1      22.111   6.718   4.063  0.00  0.00    +0.337 C 
BRANCH  28   4
ATOM      4  O   UNL     1      23.265   7.211   4.591  0.00  0.00    -0.477 OA
ATOM     30  H   UNL     1      23.126   7.576   5.491  0.00  0.00    +0.295 HD
ENDBRANCH  28   4
ENDBRANCH  26  28
ENDBRANCH  14  15
ENDBRANCH   6  14
TORSDOF 6
ENDMDL
MODEL 6
REMARK VINA RESULT:      -7.4     23.569     26.911
REMARK  Name = 45784258
REMARK  6 active torsions:
REMARK  status: ('A' for Active; 'I' for Inactive)
REMARK    1  A    between atoms: O_4  and  C_28
REMARK    2  A    between atoms: N_6  and  C_14
REMARK    3  A    between atoms: C_9  and  C_13
REMARK    4  A    between atoms: C_14  and  C_15
REMARK    5  A    between atoms: C_22  and  C_27
REMARK    6  A    between atoms: C_26  and  C_28
REMARK                            x       y       z     vdW  Elec       q    Type
REMARK                         _______ _______ _______ _____ _____    ______ ____
ROOT
ATOM      6  N   UNL     1      -2.028 -11.015  13.803  0.00  0.00    -0.297 NA
ATOM      9  C   UNL     1      -3.180 -10.191  15.671  0.00  0.00    +0.070 C 
ATOM     10  C   UNL     1      -1.827 -10.773  16.117  0.00  0.00    +0.028 C 
ATOM     11  C   UNL     1      -3.394 -10.744  14.256  0.00  0.00    +0.096 C 
ATOM     12  C   UNL     1      -1.367 -11.637  14.950  0.00  0.00    +0.085 C 
ENDROOT
BRANCH   9  13
ATOM      7  N   UNL     1      -5.576  -9.957  16.384  0.00  0.00    -0.342 N 
ATOM      8  N   UNL     1      -4.307 -11.250  17.671  0.00  0.00    -0.232 NA
ATOM     13  C   UNL     1      -4.336 -10.489  16.600  0.00  0.00    +0.113 A 
ATOM     16  C   UNL     1      -6.403 -10.405  17.382  0.00  0.00    +0.067 A 
ATOM     17  C   UNL     1      -5.588 -11.210  18.172  0.00  0.00    +0.089 A 
ATOM     18  C   UNL     1      -7.754 -10.182  17.653  0.00  0.00    +0.040 A 
ATOM     21  C   UNL     1      -6.135 -11.837  19.304  0.00  0.00    +0.030 A 
ATOM     22  C   UNL     1      -8.282 -10.814  18.782  0.00  0.00    +0.057 A 
ATOM     23  C   UNL     1      -7.488 -11.627  19.595  0.00  0.00    +0.014 A 
ATOM     29  H   UNL     1      -5.841  -9.343  15.625  0.00  0.00    +0.167 HD
BRANCH  22  27
ATOM      1  F   UNL     1     -10.550 -11.542  18.563  0.00  0.00    -0.166 F 
ATOM      2  F   UNL     1     -10.195  -9.402  18.716  0.00  0.00    -0.166 F 
ATOM      3  F   UNL     1      -9.975 -10.675  20.466  0.00  0.00    -0.166 F 
ATOM     27  C   UNL     1      -9.722 -10.614  19.126  0.00  0.00    +0.417 C 
ENDBRANCH  22  27
ENDBRANCH   9  13
BRANCH   6  14
ATOM     14  C   UNL     1      -1.993 -11.860  12.618  0.00  0.00    +0.119 C 
BRANCH  14  15
ATOM     15  C   UNL     1      -2.775 -11.260  11.479  0.00  0.00    -0.033 A 
ATOM     19  C   UNL     1      -2.571  -9.928  11.119  0.00  0.00    +0.006 A 
ATOM     20  C   UNL     1      -3.702 -12.037  10.784  0.00  0.00    +0.006 A 
ATOM     24  C   UNL     1      -3.295  -9.373  10.064  0.00  0.00    +0.015 A 
ATOM     25  C   UNL     1      -4.426 -11.481   9.729  0.00  0.00    +0.015 A 
ATOM     26  C   UNL     1      -4.222 -10.149   9.368  0.00  0.00    +0.059 A 
BRANCH  26  28
ATOM      5  O   UNL     1      -5.154 -10.099   7.166  0.00  0.00    -0.245 OA
ATOM     28  C   UNL     1      -4.977  -9.571   8.268  0.00  0.00    +0.337 C 
BRANCH  28   4
ATOM      4  O   UNL     1      -5.491  -8.348   8.577  0.00  0.00    -0.477 OA
ATOM     30  H   UNL     1      -5.032  -7.628   8.094  0.00  0.00    +0.295 HD
ENDBRANCH  28   4
ENDBRANCH  26  28
ENDBRANCH  14  15
ENDBRANCH   6  14
TORSDOF 6
ENDMDL
MODEL 7
REMARK VINA RESULT:      -7.4      6.872     10.643
REMARK  Name = 45784258
REMARK  6 active torsions:
REMARK  status: ('A' for Active; 'I' for Inactive)
REMARK    1  A    between atoms: O_4  and  C_28
REMARK    2  A    between atoms: N_6  and  C_14
REMARK    3  A    between atoms: C_9  and  C_13
REMARK    4  A    between atoms: C_14  and  C_15
REMARK    5  A    between atoms: C_22  and  C_27
REMARK    6  A    between atoms: C_26  and  C_28
REMARK                            x       y       z     vdW  Elec       q    Type
REMARK                         _______ _______ _______ _____ _____    ______ ____
ROOT
ATOM      6  N   UNL     1      12.099   4.097   1.266  0.00  0.00    -0.297 NA
ATOM      9  C   UNL     1      10.453   5.023   2.656  0.00  0.00    +0.070 C 
ATOM     10  C   UNL     1      11.195   6.150   1.916  0.00  0.00    +0.028 C 
ATOM     11  C   UNL     1      11.351   3.790   2.487  0.00  0.00    +0.096 C 
ATOM     12  C   UNL     1      12.473   5.505   1.397  0.00  0.00    +0.085 C 
ENDROOT
BRANCH   9  13
ATOM      7  N   UNL     1      10.283   4.373   5.076  0.00  0.00    -0.342 N 
ATOM      8  N   UNL     1       9.681   6.457   4.589  0.00  0.00    -0.232 NA
ATOM     13  C   UNL     1      10.127   5.321   4.102  0.00  0.00    +0.113 A 
ATOM     16  C   UNL     1       9.913   4.935   6.270  0.00  0.00    +0.067 A 
ATOM     17  C   UNL     1       9.540   6.235   5.941  0.00  0.00    +0.089 A 
ATOM     18  C   UNL     1       9.873   4.433   7.571  0.00  0.00    +0.040 A 
ATOM     21  C   UNL     1       9.099   7.099   6.956  0.00  0.00    +0.030 A 
ATOM     22  C   UNL     1       9.431   5.307   8.570  0.00  0.00    +0.057 A 
ATOM     23  C   UNL     1       9.050   6.617   8.269  0.00  0.00    +0.014 A 
ATOM     29  H   UNL     1      10.614   3.426   4.943  0.00  0.00    +0.167 HD
BRANCH  22  27
ATOM      1  F   UNL     1      10.325   5.372  10.788  0.00  0.00    -0.166 F 
ATOM      2  F   UNL     1       9.521   3.478  10.087  0.00  0.00    -0.166 F 
ATOM      3  F   UNL     1       8.180   5.112  10.599  0.00  0.00    -0.166 F 
ATOM     27  C   UNL     1       9.365   4.829   9.983  0.00  0.00    +0.417 C 
ENDBRANCH  22  27
ENDBRANCH   9  13
BRANCH   6  14
ATOM     14  C   UNL     1      13.254   3.230   1.090  0.00  0.00    +0.119 C 
BRANCH  14  15
ATOM     15  C   UNL     1      14.182   3.743   0.021  0.00  0.00    -0.033 A 
ATOM     19  C   UNL     1      13.710   3.935  -1.278  0.00  0.00    +0.006 A 
ATOM     20  C   UNL     1      15.513   4.026   0.329  0.00  0.00    +0.006 A 
ATOM     24  C   UNL     1      14.570   4.411  -2.269  0.00  0.00    +0.015 A 
ATOM     25  C   UNL     1      16.372   4.500  -0.663  0.00  0.00    +0.015 A 
ATOM     26  C   UNL     1      15.901   4.694  -1.961  0.00  0.00    +0.059 A 
BRANCH  26  28
ATOM      5  O   UNL     1      17.559   6.154  -2.877  0.00  0.00    -0.245 OA
ATOM     28  C   UNL     1      16.796   5.189  -2.994  0.00  0.00    +0.337 C 
BRANCH  28   4
ATOM      4  O   UNL     1      16.716   4.464  -4.144  0.00  0.00    -0.477 OA
ATOM     30  H   UNL     1      16.822   5.030  -4.939  0.00  0.00    +0.295 HD
ENDBRANCH  28   4
ENDBRANCH  26  28
ENDBRANCH  14  15
ENDBRANCH   6  14
TORSDOF 6
ENDMDL
MODEL 8
REMARK VINA RESULT:      -7.2      1.638      2.278
REMARK  Name = 45784258
REMARK  6 active torsions:
REMARK  status: ('A' for Active; 'I' for Inactive)
REMARK    1  A    between atoms: O_4  and  C_28
REMARK    2  A    between atoms: N_6  and  C_14
REMARK    3  A    between atoms: C_9  and  C_13
REMARK    4  A    between atoms: C_14  and  C_15
REMARK    5  A    between atoms: C_22  and  C_27
REMARK    6  A    between atoms: C_26  and  C_28
REMARK                            x       y       z     vdW  Elec       q    Type
REMARK                         _______ _______ _______ _____ _____    ______ ____
ROOT
ATOM      6  N   UNL     1      10.636   7.450   4.517  0.00  0.00    -0.297 NA
ATOM      9  C   UNL     1      12.349   6.787   3.059  0.00  0.00    +0.070 C 
ATOM     10  C   UNL     1      12.059   8.286   2.864  0.00  0.00    +0.028 C 
ATOM     11  C   UNL     1      11.138   6.254   3.836  0.00  0.00    +0.096 C 
ATOM     12  C   UNL     1      10.698   8.510   3.511  0.00  0.00    +0.085 C 
ENDROOT
BRANCH   9  13
ATOM      7  N   UNL     1      11.668   5.198   1.239  0.00  0.00    -0.342 N 
ATOM      8  N   UNL     1      13.718   6.041   1.070  0.00  0.00    -0.232 NA
ATOM     13  C   UNL     1      12.614   6.021   1.783  0.00  0.00    +0.113 A 
ATOM     16  C   UNL     1      12.195   4.651   0.098  0.00  0.00    +0.067 A 
ATOM     17  C   UNL     1      13.475   5.191   0.014  0.00  0.00    +0.089 A 
ATOM     18  C   UNL     1      11.679   3.756  -0.840  0.00  0.00    +0.040 A 
ATOM     21  C   UNL     1      14.303   4.829  -1.062  0.00  0.00    +0.030 A 
ATOM     22  C   UNL     1      12.516   3.406  -1.904  0.00  0.00    +0.057 A 
ATOM     23  C   UNL     1      13.806   3.932  -2.015  0.00  0.00    +0.014 A 
ATOM     29  H   UNL     1      10.742   5.022   1.608  0.00  0.00    +0.167 HD
BRANCH  22  27
ATOM      1  F   UNL     1      12.970   2.101  -3.857  0.00  0.00    -0.166 F 
ATOM      2  F   UNL     1      10.981   2.959  -3.665  0.00  0.00    -0.166 F 
ATOM      3  F   UNL     1      11.569   1.272  -2.423  0.00  0.00    -0.166 F 
ATOM     27  C   UNL     1      12.020   2.452  -2.941  0.00  0.00    +0.417 C 
ENDBRANCH  22  27
ENDBRANCH   9  13
BRANCH   6  14
ATOM     14  C   UNL     1       9.293   7.266   5.045  0.00  0.00    +0.119 C 
BRANCH  14  15
ATOM     15  C   UNL     1       9.308   6.621   6.406  0.00  0.00    -0.033 A 
ATOM     19  C   UNL     1       8.989   7.372   7.536  0.00  0.00    +0.006 A 
ATOM     20  C   UNL     1       9.641   5.273   6.535  0.00  0.00    +0.006 A 
ATOM     24  C   UNL     1       9.004   6.775   8.797  0.00  0.00    +0.015 A 
ATOM     25  C   UNL     1       9.656   4.676   7.796  0.00  0.00    +0.015 A 
ATOM     26  C   UNL     1       9.337   5.427   8.927  0.00  0.00    +0.059 A 
BRANCH  26  28
ATOM      5  O   UNL     1      10.356   4.374  10.818  0.00  0.00    -0.245 OA
ATOM     28  C   UNL     1       9.352   4.804  10.241  0.00  0.00    +0.337 C 
BRANCH  28   4
ATOM      4  O   UNL     1       8.111   4.738  10.800  0.00  0.00    -0.477 OA
ATOM     30  H   UNL     1       8.008   5.380  11.534  0.00  0.00    +0.295 HD
ENDBRANCH  28   4
ENDBRANCH  26  28
ENDBRANCH  14  15
ENDBRANCH   6  14
TORSDOF 6
ENDMDL
MODEL 9
REMARK VINA RESULT:      -7.0     28.930     33.386
REMARK  Name = 45784258
REMARK  6 active torsions:
REMARK  status: ('A' for Active; 'I' for Inactive)
REMARK    1  A    between atoms: O_4  and  C_28
REMARK    2  A    between atoms: N_6  and  C_14
REMARK    3  A    between atoms: C_9  and  C_13
REMARK    4  A    between atoms: C_14  and  C_15
REMARK    5  A    between atoms: C_22  and  C_27
REMARK    6  A    between atoms: C_26  and  C_28
REMARK                            x       y       z     vdW  Elec       q    Type
REMARK                         _______ _______ _______ _____ _____    ______ ____
ROOT
ATOM      6  N   UNL     1     -13.461   6.820  21.303  0.00  0.00    -0.297 NA
ATOM      9  C   UNL     1     -15.317   5.585  22.030  0.00  0.00    +0.070 C 
ATOM     10  C   UNL     1     -15.500   7.063  22.416  0.00  0.00    +0.028 C 
ATOM     11  C   UNL     1     -13.827   5.454  21.686  0.00  0.00    +0.096 C 
ATOM     12  C   UNL     1     -14.111   7.676  22.295  0.00  0.00    +0.085 C 
ENDROOT
BRANCH   9  13
ATOM      7  N   UNL     1     -15.485   4.787  24.405  0.00  0.00    -0.342 N 
ATOM      8  N   UNL     1     -16.449   3.490  22.879  0.00  0.00    -0.232 NA
ATOM     13  C   UNL     1     -15.768   4.595  23.081  0.00  0.00    +0.113 A 
ATOM     16  C   UNL     1     -16.019   3.736  25.104  0.00  0.00    +0.067 A 
ATOM     17  C   UNL     1     -16.615   2.939  24.129  0.00  0.00    +0.089 A 
ATOM     18  C   UNL     1     -16.032   3.421  26.463  0.00  0.00    +0.040 A 
ATOM     21  C   UNL     1     -17.266   1.756  24.516  0.00  0.00    +0.030 A 
ATOM     22  C   UNL     1     -16.685   2.240  26.830  0.00  0.00    +0.057 A 
ATOM     23  C   UNL     1     -17.292   1.421  25.874  0.00  0.00    +0.014 A 
ATOM     29  H   UNL     1     -14.974   5.565  24.802  0.00  0.00    +0.167 HD
BRANCH  22  27
ATOM      1  F   UNL     1     -16.188   0.623  28.521  0.00  0.00    -0.166 F 
ATOM      2  F   UNL     1     -18.007   1.790  28.754  0.00  0.00    -0.166 F 
ATOM      3  F   UNL     1     -16.066   2.712  29.092  0.00  0.00    -0.166 F 
ATOM     27  C   UNL     1     -16.734   1.849  28.271  0.00  0.00    +0.417 C 
ENDBRANCH  22  27
ENDBRANCH   9  13
BRANCH   6  14
ATOM     14  C   UNL     1     -12.020   7.017  21.261  0.00  0.00    +0.119 C 
BRANCH  14  15
ATOM     15  C   UNL     1     -11.594   7.782  20.035  0.00  0.00    -0.033 A 
ATOM     19  C   UNL     1     -11.436   9.167  20.100  0.00  0.00    +0.006 A 
ATOM     20  C   UNL     1     -11.357   7.107  18.839  0.00  0.00    +0.006 A 
ATOM     24  C   UNL     1     -11.042   9.876  18.965  0.00  0.00    +0.015 A 
ATOM     25  C   UNL     1     -10.964   7.817  17.704  0.00  0.00    +0.015 A 
ATOM     26  C   UNL     1     -10.805   9.202  17.767  0.00  0.00    +0.059 A 
BRANCH  26  28
ATOM      5  O   UNL     1     -10.757   9.701  15.428  0.00  0.00    -0.245 OA
ATOM     28  C   UNL     1     -10.394   9.941  16.584  0.00  0.00    +0.337 C 
BRANCH  28   4
ATOM      4  O   UNL     1      -9.541  10.961  16.879  0.00  0.00    -0.477 OA
ATOM     30  H   UNL     1      -9.288  11.467  16.077  0.00  0.00    +0.295 HD
ENDBRANCH  28   4
ENDBRANCH  26  28
ENDBRANCH  14  15
ENDBRANCH   6  14
TORSDOF 6
ENDMDL
MODEL 10
REMARK VINA RESULT:      -7.0     25.091     27.808
REMARK  Name = 45784258
REMARK  6 active torsions:
REMARK  status: ('A' for Active; 'I' for Inactive)
REMARK    1  A    between atoms: O_4  and  C_28
REMARK    2  A    between atoms: N_6  and  C_14
REMARK    3  A    between atoms: C_9  and  C_13
REMARK    4  A    between atoms: C_14  and  C_15
REMARK    5  A    between atoms: C_22  and  C_27
REMARK    6  A    between atoms: C_26  and  C_28
REMARK                            x       y       z     vdW  Elec       q    Type
REMARK                         _______ _______ _______ _____ _____    ______ ____
ROOT
ATOM      6  N   UNL     1     -10.727  -7.461  16.051  0.00  0.00    -0.297 NA
ATOM      9  C   UNL     1      -9.349  -9.337  16.341  0.00  0.00    +0.070 C 
ATOM     10  C   UNL     1     -10.079  -9.026  17.660  0.00  0.00    +0.028 C 
ATOM     11  C   UNL     1      -9.513  -8.066  15.497  0.00  0.00    +0.096 C 
ATOM     12  C   UNL     1     -10.588  -7.599  17.501  0.00  0.00    +0.085 C 
ENDROOT
BRANCH   9  13
ATOM      7  N   UNL     1      -7.034  -9.717  15.446  0.00  0.00    -0.342 N 
ATOM      8  N   UNL     1      -7.329 -10.188  17.599  0.00  0.00    -0.232 NA
ATOM     13  C   UNL     1      -7.905  -9.757  16.499  0.00  0.00    +0.113 A 
ATOM     16  C   UNL     1      -5.814 -10.150  15.896  0.00  0.00    +0.067 A 
ATOM     17  C   UNL     1      -6.023 -10.439  17.242  0.00  0.00    +0.089 A 
ATOM     18  C   UNL     1      -4.582 -10.311  15.261  0.00  0.00    +0.040 A 
ATOM     21  C   UNL     1      -4.952 -10.917  18.014  0.00  0.00    +0.030 A 
ATOM     22  C   UNL     1      -3.527 -10.787  16.045  0.00  0.00    +0.057 A 
ATOM     23  C   UNL     1      -3.707 -11.086  17.398  0.00  0.00    +0.014 A 
ATOM     29  H   UNL     1      -7.247  -9.419  14.503  0.00  0.00    +0.167 HD
BRANCH  22  27
ATOM      1  F   UNL     1      -1.147 -10.805  16.295  0.00  0.00    -0.166 F 
ATOM      2  F   UNL     1      -1.951 -10.111  14.397  0.00  0.00    -0.166 F 
ATOM      3  F   UNL     1      -2.000 -12.228  14.897  0.00  0.00    -0.166 F 
ATOM     27  C   UNL     1      -2.183 -10.980  15.422  0.00  0.00    +0.417 C 
ENDBRANCH  22  27
ENDBRANCH   9  13
BRANCH   6  14
ATOM     14  C   UNL     1     -10.894  -6.075  15.640  0.00  0.00    +0.119 C 
BRANCH  14  15
ATOM     15  C   UNL     1     -12.147  -5.879  14.827  0.00  0.00    -0.033 A 
ATOM     19  C   UNL     1     -12.117  -5.080  13.684  0.00  0.00    +0.006 A 
ATOM     20  C   UNL     1     -13.335  -6.496  15.217  0.00  0.00    +0.006 A 
ATOM     24  C   UNL     1     -13.278  -4.898  12.931  0.00  0.00    +0.015 A 
ATOM     25  C   UNL     1     -14.495  -6.313  14.465  0.00  0.00    +0.015 A 
ATOM     26  C   UNL     1     -14.467  -5.515  13.321  0.00  0.00    +0.059 A 
BRANCH  26  28
ATOM      5  O   UNL     1     -15.787  -4.572  11.563  0.00  0.00    -0.245 OA
ATOM     28  C   UNL     1     -15.676  -5.325  12.536  0.00  0.00    +0.337 C 
BRANCH  28   4
ATOM      4  O   UNL     1     -16.713  -6.083  12.988  0.00  0.00    -0.477 OA
ATOM     30  H   UNL     1     -16.770  -6.941  12.516  0.00  0.00    +0.295 HD
ENDBRANCH  28   4
ENDBRANCH  26  28
ENDBRANCH  14  15
ENDBRANCH   6  14
TORSDOF 6
ENDMDL
