MODEL 1
REMARK VINA RESULT:      -6.9      0.000      0.000
REMARK  Name = 7050141
REMARK  12 active torsions:
REMARK  status: ('A' for Active; 'I' for Inactive)
REMARK    1  A    between atoms: O_2  and  C_11
REMARK    2  A    between atoms: O_3  and  C_13
REMARK    3  A    between atoms: O_7  and  C_30
REMARK    4  A    between atoms: O_7  and  C_33
REMARK    5  A    between atoms: N_8  and  C_12
REMARK    6  A    between atoms: N_9  and  C_18
REMARK    7  A    between atoms: C_15  and  C_17
REMARK    8  A    between atoms: C_18  and  C_20
REMARK    9  A    between atoms: C_18  and  C_23
REMARK   10  A    between atoms: C_19  and  C_21
REMARK   11  A    between atoms: C_20  and  C_22
REMARK   12  A    between atoms: C_21  and  C_24
REMARK                            x       y       z     vdW  Elec       q    Type
REMARK                         _______ _______ _______ _____ _____    ______ ____
ROOT
ATOM     11  C   UNL     1     -17.950   2.356  24.577  0.00  0.00    +0.167 C 
ATOM     12  C   UNL     1     -16.573   2.307  25.263  0.00  0.00    +0.127 C 
ATOM     13  C   UNL     1     -17.818   2.579  23.064  0.00  0.00    +0.149 C 
ATOM     14  C   UNL     1     -17.012   3.846  22.734  0.00  0.00    +0.074 C 
ATOM     15  C   UNL     1     -15.843   4.067  23.654  0.00  0.00    +0.015 C 
ATOM     16  C   UNL     1     -15.631   3.378  24.785  0.00  0.00    +0.006 C 
ENDROOT
BRANCH  15  17
ATOM      4  O   UNL     1     -13.651   4.863  23.383  0.00  0.00    -0.271 OA
ATOM      9  N   UNL     1     -15.435   6.262  22.842  0.00  0.00    -0.300 N 
ATOM     17  C   UNL     1     -14.857   5.086  23.285  0.00  0.00    +0.241 C 
ATOM     37  H   UNL     1     -16.449   6.343  22.832  0.00  0.00    +0.150 HD
BRANCH   9  18
ATOM     18  C   UNL     1     -14.665   7.413  22.427  0.00  0.00    +0.163 C 
BRANCH  18  23
ATOM      6  O   UNL     1     -14.304   9.566  23.494  0.00  0.00    -0.274 OA
ATOM     10  N   UNL     1     -16.089   8.288  24.173  0.00  0.00    -0.328 N 
ATOM     23  C   UNL     1     -14.964   8.532  23.412  0.00  0.00    +0.231 C 
ATOM     38  H   UNL     1     -16.626   7.432  24.092  0.00  0.00    +0.145 HD
ATOM     39  H   UNL     1     -16.408   8.963  24.859  0.00  0.00    +0.145 HD
ENDBRANCH  18  23
BRANCH  18  20
ATOM     20  C   UNL     1     -15.008   7.853  20.998  0.00  0.00    +0.067 C 
BRANCH  20  22
ATOM     22  C   UNL     1     -13.817   7.811  20.072  0.00  0.00    -0.045 A 
ATOM     25  C   UNL     1     -12.593   7.386  20.560  0.00  0.00    +0.007 A 
ATOM     26  C   UNL     1     -13.970   8.202  18.751  0.00  0.00    +0.007 A 
ATOM     28  C   UNL     1     -11.491   7.348  19.704  0.00  0.00    +0.046 A 
ATOM     29  C   UNL     1     -12.869   8.164  17.895  0.00  0.00    +0.046 A 
ATOM     30  C   UNL     1     -11.630   7.738  18.372  0.00  0.00    +0.120 A 
BRANCH  30   7
ATOM      7  O   UNL     1     -10.555   7.699  17.537  0.00  0.00    -0.495 OA
ATOM     33  C   UNL     1     -10.173   8.925  16.914  0.00  0.00    +0.277 C 
ENDBRANCH  30   7
ENDBRANCH  20  22
ENDBRANCH  18  20
ENDBRANCH   9  18
ENDBRANCH  15  17
BRANCH  12   8
ATOM      5  O   UNL     1     -17.372   0.204  27.059  0.00  0.00    -0.275 OA
ATOM      8  N   UNL     1     -16.689   2.395  26.698  0.00  0.00    -0.306 N 
ATOM     19  C   UNL     1     -17.084   1.322  27.483  0.00  0.00    +0.218 C 
ATOM     34  H   UNL     1     -16.512   3.292  27.138  0.00  0.00    +0.149 HD
BRANCH  19  21
ATOM     21  C   UNL     1     -17.117   1.649  28.963  0.00  0.00    +0.138 C 
BRANCH  21  24
ATOM      1  S   UNL     1     -14.921   3.001  29.946  0.00  0.00    -0.101 S 
ATOM     24  C   UNL     1     -15.722   1.564  29.517  0.00  0.00    -0.001 A 
ATOM     27  C   UNL     1     -14.978   0.442  29.732  0.00  0.00    +0.011 A 
ATOM     31  C   UNL     1     -13.699   0.766  30.269  0.00  0.00    +0.008 A 
ATOM     32  C   UNL     1     -13.536   2.122  30.436  0.00  0.00    +0.045 A 
ENDBRANCH  21  24
ENDBRANCH  19  21
ENDBRANCH  12   8
BRANCH  11   2
ATOM      2  O   UNL     1     -18.724   3.422  25.131  0.00  0.00    -0.387 OA
ATOM     35  H   UNL     1     -18.125   4.135  25.407  0.00  0.00    +0.210 HD
ENDBRANCH  11   2
BRANCH  13   3
ATOM      3  O   UNL     1     -17.213   1.441  22.452  0.00  0.00    -0.389 OA
ATOM     36  H   UNL     1     -16.250   1.577  22.466  0.00  0.00    +0.210 HD
ENDBRANCH  13   3
TORSDOF 11
ENDMDL
MODEL 2
REMARK VINA RESULT:      -6.8     19.147     21.534
REMARK  Name = 7050141
REMARK  12 active torsions:
REMARK  status: ('A' for Active; 'I' for Inactive)
REMARK    1  A    between atoms: O_2  and  C_11
REMARK    2  A    between atoms: O_3  and  C_13
REMARK    3  A    between atoms: O_7  and  C_30
REMARK    4  A    between atoms: O_7  and  C_33
REMARK    5  A    between atoms: N_8  and  C_12
REMARK    6  A    between atoms: N_9  and  C_18
REMARK    7  A    between atoms: C_15  and  C_17
REMARK    8  A    between atoms: C_18  and  C_20
REMARK    9  A    between atoms: C_18  and  C_23
REMARK   10  A    between atoms: C_19  and  C_21
REMARK   11  A    between atoms: C_20  and  C_22
REMARK   12  A    between atoms: C_21  and  C_24
REMARK                            x       y       z     vdW  Elec       q    Type
REMARK                         _______ _______ _______ _____ _____    ______ ____
ROOT
ATOM     11  C   UNL     1      -2.179 -11.099  13.855  0.00  0.00    +0.167 C 
ATOM     12  C   UNL     1      -3.565 -10.961  13.197  0.00  0.00    +0.127 C 
ATOM     13  C   UNL     1      -2.266 -11.834  15.199  0.00  0.00    +0.149 C 
ATOM     14  C   UNL     1      -3.251 -11.155  16.167  0.00  0.00    +0.074 C 
ATOM     15  C   UNL     1      -4.486 -10.631  15.491  0.00  0.00    +0.015 C 
ATOM     16  C   UNL     1      -4.643 -10.547  14.161  0.00  0.00    +0.006 C 
ENDROOT
BRANCH  15  17
ATOM      4  O   UNL     1      -5.941  -9.019  16.386  0.00  0.00    -0.271 OA
ATOM      9  N   UNL     1      -6.195 -11.247  17.022  0.00  0.00    -0.300 N 
ATOM     17  C   UNL     1      -5.606 -10.202  16.333  0.00  0.00    +0.241 C 
ATOM     37  H   UNL     1      -5.813 -12.184  16.923  0.00  0.00    +0.150 HD
BRANCH   9  18
ATOM     18  C   UNL     1      -7.315 -11.070  17.918  0.00  0.00    +0.163 C 
BRANCH  18  23
ATOM      6  O   UNL     1      -6.956 -11.853  20.191  0.00  0.00    -0.274 OA
ATOM     10  N   UNL     1      -7.400 -13.400  18.552  0.00  0.00    -0.328 N 
ATOM     23  C   UNL     1      -7.184 -12.118  19.013  0.00  0.00    +0.231 C 
ATOM     38  H   UNL     1      -7.592 -13.605  17.577  0.00  0.00    +0.145 HD
ATOM     39  H   UNL     1      -7.358 -14.193  19.183  0.00  0.00    +0.145 HD
ENDBRANCH  18  23
BRANCH  18  20
ATOM     20  C   UNL     1      -8.662 -11.215  17.198  0.00  0.00    +0.067 C 
BRANCH  20  22
ATOM     22  C   UNL     1      -9.212  -9.894  16.719  0.00  0.00    -0.045 A 
ATOM     25  C   UNL     1      -9.369  -9.676  15.360  0.00  0.00    +0.007 A 
ATOM     26  C   UNL     1      -9.550  -8.922  17.648  0.00  0.00    +0.007 A 
ATOM     28  C   UNL     1      -9.877  -8.455  14.917  0.00  0.00    +0.046 A 
ATOM     29  C   UNL     1     -10.058  -7.701  17.205  0.00  0.00    +0.046 A 
ATOM     30  C   UNL     1     -10.221  -7.467  15.840  0.00  0.00    +0.120 A 
BRANCH  30   7
ATOM      7  O   UNL     1     -10.718  -6.276  15.407  0.00  0.00    -0.495 OA
ATOM     33  C   UNL     1     -12.122  -6.068  15.551  0.00  0.00    +0.277 C 
ENDBRANCH  30   7
ENDBRANCH  20  22
ENDBRANCH  18  20
ENDBRANCH   9  18
ENDBRANCH  15  17
BRANCH  12   8
ATOM      5  O   UNL     1      -3.284 -11.598  10.404  0.00  0.00    -0.275 OA
ATOM      8  N   UNL     1      -3.540 -10.028  12.096  0.00  0.00    -0.306 N 
ATOM     19  C   UNL     1      -3.400 -10.432  10.777  0.00  0.00    +0.218 C 
ATOM     34  H   UNL     1      -3.588  -9.036  12.309  0.00  0.00    +0.149 HD
BRANCH  19  21
ATOM     21  C   UNL     1      -3.419  -9.276   9.797  0.00  0.00    +0.138 C 
BRANCH  21  24
ATOM      1  S   UNL     1      -5.251  -9.991   7.861  0.00  0.00    -0.101 S 
ATOM     24  C   UNL     1      -4.811  -9.116   9.251  0.00  0.00    -0.001 A 
ATOM     27  C   UNL     1      -5.812  -8.331   9.740  0.00  0.00    +0.011 A 
ATOM     31  C   UNL     1      -6.991  -8.446   8.948  0.00  0.00    +0.008 A 
ATOM     32  C   UNL     1      -6.824  -9.316   7.894  0.00  0.00    +0.045 A 
ENDBRANCH  21  24
ENDBRANCH  19  21
ENDBRANCH  12   8
BRANCH  11   2
ATOM      2  O   UNL     1      -1.622  -9.802  14.076  0.00  0.00    -0.387 OA
ATOM     35  H   UNL     1      -0.660  -9.847  13.943  0.00  0.00    +0.210 HD
ENDBRANCH  11   2
BRANCH  13   3
ATOM      3  O   UNL     1      -2.643 -13.194  14.992  0.00  0.00    -0.389 OA
ATOM     36  H   UNL     1      -1.827 -13.712  14.889  0.00  0.00    +0.210 HD
ENDBRANCH  13   3
TORSDOF 11
ENDMDL
MODEL 3
REMARK VINA RESULT:      -6.7     19.370     22.147
REMARK  Name = 7050141
REMARK  12 active torsions:
REMARK  status: ('A' for Active; 'I' for Inactive)
REMARK    1  A    between atoms: O_2  and  C_11
REMARK    2  A    between atoms: O_3  and  C_13
REMARK    3  A    between atoms: O_7  and  C_30
REMARK    4  A    between atoms: O_7  and  C_33
REMARK    5  A    between atoms: N_8  and  C_12
REMARK    6  A    between atoms: N_9  and  C_18
REMARK    7  A    between atoms: C_15  and  C_17
REMARK    8  A    between atoms: C_18  and  C_20
REMARK    9  A    between atoms: C_18  and  C_23
REMARK   10  A    between atoms: C_19  and  C_21
REMARK   11  A    between atoms: C_20  and  C_22
REMARK   12  A    between atoms: C_21  and  C_24
REMARK                            x       y       z     vdW  Elec       q    Type
REMARK                         _______ _______ _______ _____ _____    ______ ____
ROOT
ATOM     11  C   UNL     1      -1.937 -10.935  13.545  0.00  0.00    +0.167 C 
ATOM     12  C   UNL     1      -3.387 -10.893  13.029  0.00  0.00    +0.127 C 
ATOM     13  C   UNL     1      -1.836 -11.691  14.876  0.00  0.00    +0.149 C 
ATOM     14  C   UNL     1      -2.766 -11.100  15.949  0.00  0.00    +0.074 C 
ATOM     15  C   UNL     1      -4.098 -10.662  15.408  0.00  0.00    +0.015 C 
ATOM     16  C   UNL     1      -4.392 -10.573  14.102  0.00  0.00    +0.006 C 
ENDROOT
BRANCH  15  17
ATOM      4  O   UNL     1      -5.889  -9.356  16.184  0.00  0.00    -0.271 OA
ATOM      9  N   UNL     1      -5.213 -11.203  17.435  0.00  0.00    -0.300 N 
ATOM     17  C   UNL     1      -5.157 -10.328  16.364  0.00  0.00    +0.241 C 
ATOM     37  H   UNL     1      -4.534 -11.957  17.495  0.00  0.00    +0.150 HD
BRANCH   9  18
ATOM     18  C   UNL     1      -6.172 -11.076  18.509  0.00  0.00    +0.163 C 
BRANCH  18  23
ATOM      6  O   UNL     1      -5.937 -11.284  20.919  0.00  0.00    -0.274 OA
ATOM     10  N   UNL     1      -4.196 -11.963  19.582  0.00  0.00    -0.328 N 
ATOM     23  C   UNL     1      -5.447 -11.423  19.801  0.00  0.00    +0.231 C 
ATOM     38  H   UNL     1      -3.805 -12.076  18.654  0.00  0.00    +0.145 HD
ATOM     39  H   UNL     1      -3.613 -12.253  20.360  0.00  0.00    +0.145 HD
ENDBRANCH  18  23
BRANCH  18  20
ATOM     20  C   UNL     1      -7.385 -11.994  18.313  0.00  0.00    +0.067 C 
BRANCH  20  22
ATOM     22  C   UNL     1      -8.690 -11.318  18.657  0.00  0.00    -0.045 A 
ATOM     25  C   UNL     1      -9.133 -10.262  17.878  0.00  0.00    +0.007 A 
ATOM     26  C   UNL     1      -9.419 -11.765  19.748  0.00  0.00    +0.007 A 
ATOM     28  C   UNL     1     -10.339  -9.636  18.197  0.00  0.00    +0.046 A 
ATOM     29  C   UNL     1     -10.625 -11.141  20.066  0.00  0.00    +0.046 A 
ATOM     30  C   UNL     1     -11.084 -10.076  19.291  0.00  0.00    +0.120 A 
BRANCH  30   7
ATOM      7  O   UNL     1     -12.262  -9.466  19.600  0.00  0.00    -0.495 OA
ATOM     33  C   UNL     1     -13.041 -10.050  20.642  0.00  0.00    +0.277 C 
ENDBRANCH  30   7
ENDBRANCH  20  22
ENDBRANCH  18  20
ENDBRANCH   9  18
ENDBRANCH  15  17
BRANCH  12   8
ATOM      5  O   UNL     1      -3.408 -11.482  10.211  0.00  0.00    -0.275 OA
ATOM      8  N   UNL     1      -3.540  -9.948  11.950  0.00  0.00    -0.306 N 
ATOM     19  C   UNL     1      -3.537 -10.328  10.616  0.00  0.00    +0.218 C 
ATOM     34  H   UNL     1      -3.612  -8.962  12.184  0.00  0.00    +0.149 HD
BRANCH  19  21
ATOM     21  C   UNL     1      -3.731  -9.164   9.666  0.00  0.00    +0.138 C 
BRANCH  21  24
ATOM      1  S   UNL     1      -6.470  -8.830   9.648  0.00  0.00    -0.101 S 
ATOM     24  C   UNL     1      -5.023  -9.347   8.919  0.00  0.00    -0.001 A 
ATOM     27  C   UNL     1      -5.201  -9.895   7.684  0.00  0.00    +0.011 A 
ATOM     31  C   UNL     1      -6.576  -9.895   7.313  0.00  0.00    +0.008 A 
ATOM     32  C   UNL     1      -7.376  -9.345   8.289  0.00  0.00    +0.045 A 
ENDBRANCH  21  24
ENDBRANCH  19  21
ENDBRANCH  12   8
BRANCH  11   2
ATOM      2  O   UNL     1      -1.456  -9.603  13.736  0.00  0.00    -0.387 OA
ATOM     35  H   UNL     1      -0.628  -9.494  13.241  0.00  0.00    +0.210 HD
ENDBRANCH  11   2
BRANCH  13   3
ATOM      3  O   UNL     1      -2.130 -13.073  14.680  0.00  0.00    -0.389 OA
ATOM     36  H   UNL     1      -1.487 -13.587  15.197  0.00  0.00    +0.210 HD
ENDBRANCH  13   3
TORSDOF 11
ENDMDL
MODEL 4
REMARK VINA RESULT:      -6.6     28.303     31.974
REMARK  Name = 7050141
REMARK  12 active torsions:
REMARK  status: ('A' for Active; 'I' for Inactive)
REMARK    1  A    between atoms: O_2  and  C_11
REMARK    2  A    between atoms: O_3  and  C_13
REMARK    3  A    between atoms: O_7  and  C_30
REMARK    4  A    between atoms: O_7  and  C_33
REMARK    5  A    between atoms: N_8  and  C_12
REMARK    6  A    between atoms: N_9  and  C_18
REMARK    7  A    between atoms: C_15  and  C_17
REMARK    8  A    between atoms: C_18  and  C_20
REMARK    9  A    between atoms: C_18  and  C_23
REMARK   10  A    between atoms: C_19  and  C_21
REMARK   11  A    between atoms: C_20  and  C_22
REMARK   12  A    between atoms: C_21  and  C_24
REMARK                            x       y       z     vdW  Elec       q    Type
REMARK                         _______ _______ _______ _____ _____    ______ ____
ROOT
ATOM     11  C   UNL     1      14.409  13.237  15.236  0.00  0.00    +0.167 C 
ATOM     12  C   UNL     1      13.722  12.171  14.362  0.00  0.00    +0.127 C 
ATOM     13  C   UNL     1      15.657  12.675  15.930  0.00  0.00    +0.149 C 
ATOM     14  C   UNL     1      15.340  11.424  16.766  0.00  0.00    +0.074 C 
ATOM     15  C   UNL     1      14.339  10.510  16.117  0.00  0.00    +0.015 C 
ATOM     16  C   UNL     1      13.614  10.830  15.034  0.00  0.00    +0.006 C 
ENDROOT
BRANCH  15  17
ATOM      4  O   UNL     1      13.920   8.204  15.964  0.00  0.00    -0.271 OA
ATOM      9  N   UNL     1      14.265   9.153  18.065  0.00  0.00    -0.300 N 
ATOM     17  C   UNL     1      14.153   9.173  16.686  0.00  0.00    +0.241 C 
ATOM     37  H   UNL     1      14.430  10.024  18.562  0.00  0.00    +0.150 HD
BRANCH   9  18
ATOM     18  C   UNL     1      14.116   7.949  18.852  0.00  0.00    +0.163 C 
BRANCH  18  23
ATOM      6  O   UNL     1      12.062   6.665  19.042  0.00  0.00    -0.274 OA
ATOM     10  N   UNL     1      11.986   8.926  19.441  0.00  0.00    -0.328 N 
ATOM     23  C   UNL     1      12.628   7.754  19.097  0.00  0.00    +0.231 C 
ATOM     38  H   UNL     1      12.466   9.818  19.486  0.00  0.00    +0.145 HD
ATOM     39  H   UNL     1      10.993   8.933  19.646  0.00  0.00    +0.145 HD
ENDBRANCH  18  23
BRANCH  18  20
ATOM     20  C   UNL     1      14.871   8.031  20.184  0.00  0.00    +0.067 C 
BRANCH  20  22
ATOM     22  C   UNL     1      16.171   7.264  20.167  0.00  0.00    -0.045 A 
ATOM     25  C   UNL     1      16.408   6.352  19.152  0.00  0.00    +0.007 A 
ATOM     26  C   UNL     1      17.102   7.484  21.171  0.00  0.00    +0.007 A 
ATOM     28  C   UNL     1      17.609   5.642  19.137  0.00  0.00    +0.046 A 
ATOM     29  C   UNL     1      18.303   6.774  21.156  0.00  0.00    +0.046 A 
ATOM     30  C   UNL     1      18.555   5.853  20.140  0.00  0.00    +0.120 A 
BRANCH  30   7
ATOM      7  O   UNL     1      19.728   5.160  20.124  0.00  0.00    -0.495 OA
ATOM     33  C   UNL     1      20.824   5.723  20.843  0.00  0.00    +0.277 C 
ENDBRANCH  30   7
ENDBRANCH  20  22
ENDBRANCH  18  20
ENDBRANCH   9  18
ENDBRANCH  15  17
BRANCH  12   8
ATOM      5  O   UNL     1      12.601  11.969  11.719  0.00  0.00    -0.275 OA
ATOM      8  N   UNL     1      12.406  12.593  13.947  0.00  0.00    -0.306 N 
ATOM     19  C   UNL     1      11.952  12.454  12.645  0.00  0.00    +0.218 C 
ATOM     34  H   UNL     1      11.809  13.044  14.634  0.00  0.00    +0.149 HD
BRANCH  19  21
ATOM     21  C   UNL     1      10.533  12.951  12.453  0.00  0.00    +0.138 C 
BRANCH  21  24
ATOM      1  S   UNL     1      10.341  13.695   9.802  0.00  0.00    -0.101 S 
ATOM     24  C   UNL     1      10.069  12.593  11.069  0.00  0.00    -0.001 A 
ATOM     27  C   UNL     1       9.431  11.455  10.672  0.00  0.00    +0.011 A 
ATOM     31  C   UNL     1       9.150  11.481   9.276  0.00  0.00    +0.008 A 
ATOM     32  C   UNL     1       9.592  12.641   8.680  0.00  0.00    +0.045 A 
ENDBRANCH  21  24
ENDBRANCH  19  21
ENDBRANCH  12   8
BRANCH  11   2
ATOM      2  O   UNL     1      13.499  13.700  16.234  0.00  0.00    -0.387 OA
ATOM     35  H   UNL     1      12.595  13.463  15.969  0.00  0.00    +0.210 HD
ENDBRANCH  11   2
BRANCH  13   3
ATOM      3  O   UNL     1      16.663  12.376  14.964  0.00  0.00    -0.389 OA
ATOM     36  H   UNL     1      16.250  12.421  14.085  0.00  0.00    +0.210 HD
ENDBRANCH  13   3
TORSDOF 11
ENDMDL
MODEL 5
REMARK VINA RESULT:      -6.5     30.324     33.701
REMARK  Name = 7050141
REMARK  12 active torsions:
REMARK  status: ('A' for Active; 'I' for Inactive)
REMARK    1  A    between atoms: O_2  and  C_11
REMARK    2  A    between atoms: O_3  and  C_13
REMARK    3  A    between atoms: O_7  and  C_30
REMARK    4  A    between atoms: O_7  and  C_33
REMARK    5  A    between atoms: N_8  and  C_12
REMARK    6  A    between atoms: N_9  and  C_18
REMARK    7  A    between atoms: C_15  and  C_17
REMARK    8  A    between atoms: C_18  and  C_20
REMARK    9  A    between atoms: C_18  and  C_23
REMARK   10  A    between atoms: C_19  and  C_21
REMARK   11  A    between atoms: C_20  and  C_22
REMARK   12  A    between atoms: C_21  and  C_24
REMARK                            x       y       z     vdW  Elec       q    Type
REMARK                         _______ _______ _______ _____ _____    ______ ____
ROOT
ATOM     11  C   UNL     1      14.130  10.433   5.005  0.00  0.00    +0.167 C 
ATOM     12  C   UNL     1      14.073   8.894   5.036  0.00  0.00    +0.127 C 
ATOM     13  C   UNL     1      13.744  11.038   6.361  0.00  0.00    +0.149 C 
ATOM     14  C   UNL     1      12.358  10.565   6.832  0.00  0.00    +0.074 C 
ATOM     15  C   UNL     1      12.084   9.120   6.524  0.00  0.00    +0.015 C 
ATOM     16  C   UNL     1      12.849   8.358   5.728  0.00  0.00    +0.006 C 
ENDROOT
BRANCH  15  17
ATOM      4  O   UNL     1      10.137   9.146   7.837  0.00  0.00    -0.271 OA
ATOM      9  N   UNL     1      10.821   7.138   6.871  0.00  0.00    -0.300 N 
ATOM     17  C   UNL     1      10.916   8.490   7.147  0.00  0.00    +0.241 C 
ATOM     37  H   UNL     1      11.543   6.694   6.309  0.00  0.00    +0.150 HD
BRANCH   9  18
ATOM     18  C   UNL     1       9.756   6.302   7.378  0.00  0.00    +0.163 C 
BRANCH  18  23
ATOM      6  O   UNL     1      10.914   5.522   9.366  0.00  0.00    -0.274 OA
ATOM     10  N   UNL     1      10.287   3.979   7.783  0.00  0.00    -0.328 N 
ATOM     23  C   UNL     1      10.396   5.261   8.283  0.00  0.00    +0.231 C 
ATOM     38  H   UNL     1       9.853   3.778   6.889  0.00  0.00    +0.145 HD
ATOM     39  H   UNL     1      10.659   3.188   8.297  0.00  0.00    +0.145 HD
ENDBRANCH  18  23
BRANCH  18  20
ATOM     20  C   UNL     1       8.969   5.620   6.252  0.00  0.00    +0.067 C 
BRANCH  20  22
ATOM     22  C   UNL     1       8.828   6.491   5.027  0.00  0.00    -0.045 A 
ATOM     25  C   UNL     1       9.593   6.216   3.906  0.00  0.00    +0.007 A 
ATOM     26  C   UNL     1       7.936   7.552   5.049  0.00  0.00    +0.007 A 
ATOM     28  C   UNL     1       9.464   7.022   2.775  0.00  0.00    +0.046 A 
ATOM     29  C   UNL     1       7.806   8.358   3.918  0.00  0.00    +0.046 A 
ATOM     30  C   UNL     1       8.570   8.093   2.782  0.00  0.00    +0.120 A 
BRANCH  30   7
ATOM      7  O   UNL     1       8.443   8.879   1.677  0.00  0.00    -0.495 OA
ATOM     33  C   UNL     1       7.202   9.561   1.504  0.00  0.00    +0.277 C 
ENDBRANCH  30   7
ENDBRANCH  20  22
ENDBRANCH  18  20
ENDBRANCH   9  18
ENDBRANCH  15  17
BRANCH  12   8
ATOM      5  O   UNL     1      15.696   6.673   4.190  0.00  0.00    -0.275 OA
ATOM      8  N   UNL     1      14.143   8.332   3.710  0.00  0.00    -0.306 N 
ATOM     19  C   UNL     1      14.959   7.256   3.396  0.00  0.00    +0.218 C 
ATOM     34  H   UNL     1      13.600   8.774   2.974  0.00  0.00    +0.149 HD
BRANCH  19  21
ATOM     21  C   UNL     1      14.851   6.832   1.945  0.00  0.00    +0.138 C 
BRANCH  21  24
ATOM      1  S   UNL     1      14.840   4.120   1.434  0.00  0.00    -0.101 S 
ATOM     24  C   UNL     1      14.049   5.564   1.861  0.00  0.00    -0.001 A 
ATOM     27  C   UNL     1      12.714   5.405   2.090  0.00  0.00    +0.011 A 
ATOM     31  C   UNL     1      12.317   4.049   1.910  0.00  0.00    +0.008 A 
ATOM     32  C   UNL     1      13.375   3.243   1.552  0.00  0.00    +0.045 A 
ENDBRANCH  21  24
ENDBRANCH  19  21
ENDBRANCH  12   8
BRANCH  11   2
ATOM      2  O   UNL     1      13.231  10.926   4.010  0.00  0.00    -0.387 OA
ATOM     35  H   UNL     1      13.194  11.895   4.072  0.00  0.00    +0.210 HD
ENDBRANCH  11   2
BRANCH  13   3
ATOM      3  O   UNL     1      14.729  10.715   7.341  0.00  0.00    -0.389 OA
ATOM     36  H   UNL     1      15.468  10.279   6.883  0.00  0.00    +0.210 HD
ENDBRANCH  13   3
TORSDOF 11
ENDMDL
MODEL 6
REMARK VINA RESULT:      -6.5      3.442      9.175
REMARK  Name = 7050141
REMARK  12 active torsions:
REMARK  status: ('A' for Active; 'I' for Inactive)
REMARK    1  A    between atoms: O_2  and  C_11
REMARK    2  A    between atoms: O_3  and  C_13
REMARK    3  A    between atoms: O_7  and  C_30
REMARK    4  A    between atoms: O_7  and  C_33
REMARK    5  A    between atoms: N_8  and  C_12
REMARK    6  A    between atoms: N_9  and  C_18
REMARK    7  A    between atoms: C_15  and  C_17
REMARK    8  A    between atoms: C_18  and  C_20
REMARK    9  A    between atoms: C_18  and  C_23
REMARK   10  A    between atoms: C_19  and  C_21
REMARK   11  A    between atoms: C_20  and  C_22
REMARK   12  A    between atoms: C_21  and  C_24
REMARK                            x       y       z     vdW  Elec       q    Type
REMARK                         _______ _______ _______ _____ _____    ______ ____
ROOT
ATOM     11  C   UNL     1     -15.321   3.959  23.652  0.00  0.00    +0.167 C 
ATOM     12  C   UNL     1     -16.461   4.965  23.408  0.00  0.00    +0.127 C 
ATOM     13  C   UNL     1     -15.719   2.898  24.686  0.00  0.00    +0.149 C 
ATOM     14  C   UNL     1     -16.169   3.527  26.016  0.00  0.00    +0.074 C 
ATOM     15  C   UNL     1     -16.982   4.778  25.840  0.00  0.00    +0.015 C 
ATOM     16  C   UNL     1     -17.128   5.427  24.675  0.00  0.00    +0.006 C 
ENDROOT
BRANCH  15  17
ATOM      4  O   UNL     1     -18.888   5.554  26.972  0.00  0.00    -0.271 OA
ATOM      9  N   UNL     1     -16.845   5.519  28.093  0.00  0.00    -0.300 N 
ATOM     17  C   UNL     1     -17.681   5.319  27.009  0.00  0.00    +0.241 C 
ATOM     37  H   UNL     1     -15.853   5.315  27.999  0.00  0.00    +0.150 HD
BRANCH   9  18
ATOM     18  C   UNL     1     -17.305   6.047  29.358  0.00  0.00    +0.163 C 
BRANCH  18  23
ATOM      6  O   UNL     1     -17.126   8.332  28.550  0.00  0.00    -0.274 OA
ATOM     10  N   UNL     1     -16.198   7.810  30.586  0.00  0.00    -0.328 N 
ATOM     23  C   UNL     1     -16.869   7.503  29.420  0.00  0.00    +0.231 C 
ATOM     38  H   UNL     1     -15.996   7.116  31.298  0.00  0.00    +0.145 HD
ATOM     39  H   UNL     1     -15.866   8.752  30.761  0.00  0.00    +0.145 HD
ENDBRANCH  18  23
BRANCH  18  20
ATOM     20  C   UNL     1     -16.738   5.268  30.551  0.00  0.00    +0.067 C 
BRANCH  20  22
ATOM     22  C   UNL     1     -16.261   3.887  30.173  0.00  0.00    -0.045 A 
ATOM     25  C   UNL     1     -14.907   3.600  30.214  0.00  0.00    +0.007 A 
ATOM     26  C   UNL     1     -17.189   2.930  29.790  0.00  0.00    +0.007 A 
ATOM     28  C   UNL     1     -14.467   2.323  29.863  0.00  0.00    +0.046 A 
ATOM     29  C   UNL     1     -16.750   1.653  29.441  0.00  0.00    +0.046 A 
ATOM     30  C   UNL     1     -15.389   1.351  29.476  0.00  0.00    +0.120 A 
BRANCH  30   7
ATOM      7  O   UNL     1     -14.959   0.105  29.136  0.00  0.00    -0.495 OA
ATOM     33  C   UNL     1     -13.847  -0.419  29.861  0.00  0.00    +0.277 C 
ENDBRANCH  30   7
ENDBRANCH  20  22
ENDBRANCH  18  20
ENDBRANCH   9  18
ENDBRANCH  15  17
BRANCH  12   8
ATOM      5  O   UNL     1     -15.918   5.107  20.585  0.00  0.00    -0.275 OA
ATOM      8  N   UNL     1     -16.004   6.119  22.673  0.00  0.00    -0.306 N 
ATOM     19  C   UNL     1     -15.768   6.091  21.308  0.00  0.00    +0.218 C 
ATOM     34  H   UNL     1     -15.812   6.971  23.192  0.00  0.00    +0.149 HD
BRANCH  19  21
ATOM     21  C   UNL     1     -15.311   7.427  20.756  0.00  0.00    +0.138 C 
BRANCH  21  24
ATOM      1  S   UNL     1     -13.327   7.976  18.917  0.00  0.00    -0.101 S 
ATOM     24  C   UNL     1     -13.851   7.340  20.405  0.00  0.00    -0.001 A 
ATOM     27  C   UNL     1     -12.846   6.798  21.149  0.00  0.00    +0.011 A 
ATOM     31  C   UNL     1     -11.593   6.904  20.479  0.00  0.00    +0.008 A 
ATOM     32  C   UNL     1     -11.711   7.524  19.256  0.00  0.00    +0.045 A 
ENDBRANCH  21  24
ENDBRANCH  19  21
ENDBRANCH  12   8
BRANCH  11   2
ATOM      2  O   UNL     1     -14.164   4.650  24.125  0.00  0.00    -0.387 OA
ATOM     35  H   UNL     1     -13.402   4.397  23.580  0.00  0.00    +0.210 HD
ENDBRANCH  11   2
BRANCH  13   3
ATOM      3  O   UNL     1     -16.754   2.067  24.164  0.00  0.00    -0.389 OA
ATOM     36  H   UNL     1     -16.378   1.556  23.427  0.00  0.00    +0.210 HD
ENDBRANCH  13   3
TORSDOF 11
ENDMDL
MODEL 7
REMARK VINA RESULT:      -6.5     27.067     29.193
REMARK  Name = 7050141
REMARK  12 active torsions:
REMARK  status: ('A' for Active; 'I' for Inactive)
REMARK    1  A    between atoms: O_2  and  C_11
REMARK    2  A    between atoms: O_3  and  C_13
REMARK    3  A    between atoms: O_7  and  C_30
REMARK    4  A    between atoms: O_7  and  C_33
REMARK    5  A    between atoms: N_8  and  C_12
REMARK    6  A    between atoms: N_9  and  C_18
REMARK    7  A    between atoms: C_15  and  C_17
REMARK    8  A    between atoms: C_18  and  C_20
REMARK    9  A    between atoms: C_18  and  C_23
REMARK   10  A    between atoms: C_19  and  C_21
REMARK   11  A    between atoms: C_20  and  C_22
REMARK   12  A    between atoms: C_21  and  C_24
REMARK                            x       y       z     vdW  Elec       q    Type
REMARK                         _______ _______ _______ _____ _____    ______ ____
ROOT
ATOM     11  C   UNL     1      10.929  11.211  24.317  0.00  0.00    +0.167 C 
ATOM     12  C   UNL     1      11.156  10.767  22.860  0.00  0.00    +0.127 C 
ATOM     13  C   UNL     1      10.723  12.728  24.417  0.00  0.00    +0.149 C 
ATOM     14  C   UNL     1      11.891  13.512  23.796  0.00  0.00    +0.074 C 
ATOM     15  C   UNL     1      12.431  12.886  22.541  0.00  0.00    +0.015 C 
ATOM     16  C   UNL     1      12.102  11.660  22.106  0.00  0.00    +0.006 C 
ENDROOT
BRANCH  15  17
ATOM      4  O   UNL     1      13.680  14.812  22.046  0.00  0.00    -0.271 OA
ATOM      9  N   UNL     1      13.800  12.986  20.602  0.00  0.00    -0.300 N 
ATOM     17  C   UNL     1      13.361  13.669  21.722  0.00  0.00    +0.241 C 
ATOM     37  H   UNL     1      13.444  12.052  20.419  0.00  0.00    +0.150 HD
BRANCH   9  18
ATOM     18  C   UNL     1      14.720  13.554  19.642  0.00  0.00    +0.163 C 
BRANCH  18  23
ATOM      6  O   UNL     1      12.671  14.281  18.558  0.00  0.00    -0.274 OA
ATOM     10  N   UNL     1      14.658  15.226  17.898  0.00  0.00    -0.328 N 
ATOM     23  C   UNL     1      13.893  14.359  18.651  0.00  0.00    +0.231 C 
ATOM     38  H   UNL     1      15.667  15.282  17.988  0.00  0.00    +0.145 HD
ATOM     39  H   UNL     1      14.228  15.833  17.209  0.00  0.00    +0.145 HD
ENDBRANCH  18  23
BRANCH  18  20
ATOM     20  C   UNL     1      15.532  12.477  18.911  0.00  0.00    +0.067 C 
BRANCH  20  22
ATOM     22  C   UNL     1      14.666  11.544  18.100  0.00  0.00    -0.045 A 
ATOM     25  C   UNL     1      13.822  10.661  18.752  0.00  0.00    +0.007 A 
ATOM     26  C   UNL     1      14.734  11.588  16.715  0.00  0.00    +0.007 A 
ATOM     28  C   UNL     1      13.023   9.798  18.001  0.00  0.00    +0.046 A 
ATOM     29  C   UNL     1      13.935  10.726  15.965  0.00  0.00    +0.046 A 
ATOM     30  C   UNL     1      13.080   9.831  16.608  0.00  0.00    +0.120 A 
BRANCH  30   7
ATOM      7  O   UNL     1      12.299   8.989  15.876  0.00  0.00    -0.495 OA
ATOM     33  C   UNL     1      10.919   8.912  16.230  0.00  0.00    +0.277 C 
ENDBRANCH  30   7
ENDBRANCH  20  22
ENDBRANCH  18  20
ENDBRANCH   9  18
ENDBRANCH  15  17
BRANCH  12   8
ATOM      5  O   UNL     1      10.824   8.936  20.663  0.00  0.00    -0.275 OA
ATOM      8  N   UNL     1      11.637   9.409  22.787  0.00  0.00    -0.306 N 
ATOM     19  C   UNL     1      11.428   8.599  21.681  0.00  0.00    +0.218 C 
ATOM     34  H   UNL     1      12.113   9.026  23.598  0.00  0.00    +0.149 HD
BRANCH  19  21
ATOM     21  C   UNL     1      12.040   7.221  21.828  0.00  0.00    +0.138 C 
BRANCH  21  24
ATOM      1  S   UNL     1      14.735   7.808  21.931  0.00  0.00    -0.101 S 
ATOM     24  C   UNL     1      13.369   7.195  21.125  0.00  0.00    -0.001 A 
ATOM     27  C   UNL     1      13.640   6.726  19.874  0.00  0.00    +0.011 A 
ATOM     31  C   UNL     1      15.021   6.873  19.557  0.00  0.00    +0.008 A 
ATOM     32  C   UNL     1      15.731   7.447  20.587  0.00  0.00    +0.045 A 
ENDBRANCH  21  24
ENDBRANCH  19  21
ENDBRANCH  12   8
BRANCH  11   2
ATOM      2  O   UNL     1      12.060  10.848  25.111  0.00  0.00    -0.387 OA
ATOM     35  H   UNL     1      12.154   9.881  25.100  0.00  0.00    +0.210 HD
ENDBRANCH  11   2
BRANCH  13   3
ATOM      3  O   UNL     1       9.497  13.099  23.789  0.00  0.00    -0.389 OA
ATOM     36  H   UNL     1       8.771  12.787  24.355  0.00  0.00    +0.210 HD
ENDBRANCH  13   3
TORSDOF 11
ENDMDL
MODEL 8
REMARK VINA RESULT:      -6.5     29.949     34.772
REMARK  Name = 7050141
REMARK  12 active torsions:
REMARK  status: ('A' for Active; 'I' for Inactive)
REMARK    1  A    between atoms: O_2  and  C_11
REMARK    2  A    between atoms: O_3  and  C_13
REMARK    3  A    between atoms: O_7  and  C_30
REMARK    4  A    between atoms: O_7  and  C_33
REMARK    5  A    between atoms: N_8  and  C_12
REMARK    6  A    between atoms: N_9  and  C_18
REMARK    7  A    between atoms: C_15  and  C_17
REMARK    8  A    between atoms: C_18  and  C_20
REMARK    9  A    between atoms: C_18  and  C_23
REMARK   10  A    between atoms: C_19  and  C_21
REMARK   11  A    between atoms: C_20  and  C_22
REMARK   12  A    between atoms: C_21  and  C_24
REMARK                            x       y       z     vdW  Elec       q    Type
REMARK                         _______ _______ _______ _____ _____    ______ ____
ROOT
ATOM     11  C   UNL     1      14.073   7.956   6.924  0.00  0.00    +0.167 C 
ATOM     12  C   UNL     1      12.733   8.308   6.252  0.00  0.00    +0.127 C 
ATOM     13  C   UNL     1      15.246   8.096   5.945  0.00  0.00    +0.149 C 
ATOM     14  C   UNL     1      15.047   7.248   4.678  0.00  0.00    +0.074 C 
ATOM     15  C   UNL     1      13.627   7.236   4.185  0.00  0.00    +0.015 C 
ATOM     16  C   UNL     1      12.582   7.716   4.877  0.00  0.00    +0.006 C 
ENDROOT
BRANCH  15  17
ATOM      4  O   UNL     1      13.829   7.213   1.845  0.00  0.00    -0.271 OA
ATOM      9  N   UNL     1      12.559   5.558   2.886  0.00  0.00    -0.300 N 
ATOM     17  C   UNL     1      13.361   6.684   2.854  0.00  0.00    +0.241 C 
ATOM     37  H   UNL     1      12.205   5.227   3.780  0.00  0.00    +0.150 HD
BRANCH   9  18
ATOM     18  C   UNL     1      12.158   4.840   1.697  0.00  0.00    +0.163 C 
BRANCH  18  23
ATOM      6  O   UNL     1      10.153   4.393   2.996  0.00  0.00    -0.274 OA
ATOM     10  N   UNL     1      10.089   4.056   0.725  0.00  0.00    -0.328 N 
ATOM     23  C   UNL     1      10.716   4.399   1.904  0.00  0.00    +0.231 C 
ATOM     38  H   UNL     1      10.564   4.070  -0.171  0.00  0.00    +0.145 HD
ATOM     39  H   UNL     1       9.119   3.758   0.720  0.00  0.00    +0.145 HD
ENDBRANCH  18  23
BRANCH  18  20
ATOM     20  C   UNL     1      13.054   3.626   1.424  0.00  0.00    +0.067 C 
BRANCH  20  22
ATOM     22  C   UNL     1      14.077   3.886   0.346  0.00  0.00    -0.045 A 
ATOM     25  C   UNL     1      13.654   4.082  -0.958  0.00  0.00    +0.007 A 
ATOM     26  C   UNL     1      15.422   3.921   0.680  0.00  0.00    +0.007 A 
ATOM     28  C   UNL     1      14.600   4.322  -1.956  0.00  0.00    +0.046 A 
ATOM     29  C   UNL     1      16.368   4.161  -0.316  0.00  0.00    +0.046 A 
ATOM     30  C   UNL     1      15.957   4.361  -1.634  0.00  0.00    +0.120 A 
BRANCH  30   7
ATOM      7  O   UNL     1      16.879   4.595  -2.608  0.00  0.00    -0.495 OA
ATOM     33  C   UNL     1      18.237   4.742  -2.194  0.00  0.00    +0.277 C 
ENDBRANCH  30   7
ENDBRANCH  20  22
ENDBRANCH  18  20
ENDBRANCH   9  18
ENDBRANCH  15  17
BRANCH  12   8
ATOM      5  O   UNL     1      10.077   9.416   6.192  0.00  0.00    -0.275 OA
ATOM      8  N   UNL     1      11.609   7.903   7.060  0.00  0.00    -0.306 N 
ATOM     19  C   UNL     1      10.362   8.499   6.960  0.00  0.00    +0.218 C 
ATOM     34  H   UNL     1      11.758   7.178   7.756  0.00  0.00    +0.149 HD
BRANCH  19  21
ATOM     21  C   UNL     1       9.336   7.893   7.898  0.00  0.00    +0.138 C 
BRANCH  21  24
ATOM      1  S   UNL     1       9.483   5.576   6.406  0.00  0.00    -0.101 S 
ATOM     24  C   UNL     1       9.490   6.397   7.895  0.00  0.00    -0.001 A 
ATOM     27  C   UNL     1       9.639   5.574   8.971  0.00  0.00    +0.011 A 
ATOM     31  C   UNL     1       9.754   4.212   8.566  0.00  0.00    +0.008 A 
ATOM     32  C   UNL     1       9.685   4.072   7.198  0.00  0.00    +0.045 A 
ENDBRANCH  21  24
ENDBRANCH  19  21
ENDBRANCH  12   8
BRANCH  11   2
ATOM      2  O   UNL     1      14.031   6.610   7.401  0.00  0.00    -0.387 OA
ATOM     35  H   UNL     1      13.406   6.103   6.857  0.00  0.00    +0.210 HD
ENDBRANCH  11   2
BRANCH  13   3
ATOM      3  O   UNL     1      15.432   9.465   5.594  0.00  0.00    -0.389 OA
ATOM     36  H   UNL     1      16.389   9.632   5.556  0.00  0.00    +0.210 HD
ENDBRANCH  13   3
TORSDOF 11
ENDMDL
MODEL 9
REMARK VINA RESULT:      -6.5      3.273     10.448
REMARK  Name = 7050141
REMARK  12 active torsions:
REMARK  status: ('A' for Active; 'I' for Inactive)
REMARK    1  A    between atoms: O_2  and  C_11
REMARK    2  A    between atoms: O_3  and  C_13
REMARK    3  A    between atoms: O_7  and  C_30
REMARK    4  A    between atoms: O_7  and  C_33
REMARK    5  A    between atoms: N_8  and  C_12
REMARK    6  A    between atoms: N_9  and  C_18
REMARK    7  A    between atoms: C_15  and  C_17
REMARK    8  A    between atoms: C_18  and  C_20
REMARK    9  A    between atoms: C_18  and  C_23
REMARK   10  A    between atoms: C_19  and  C_21
REMARK   11  A    between atoms: C_20  and  C_22
REMARK   12  A    between atoms: C_21  and  C_24
REMARK                            x       y       z     vdW  Elec       q    Type
REMARK                         _______ _______ _______ _____ _____    ______ ____
ROOT
ATOM     11  C   UNL     1     -14.838   8.871  21.816  0.00  0.00    +0.167 C 
ATOM     12  C   UNL     1     -13.690   7.846  21.759  0.00  0.00    +0.127 C 
ATOM     13  C   UNL     1     -15.572   8.820  23.162  0.00  0.00    +0.149 C 
ATOM     14  C   UNL     1     -16.099   7.411  23.481  0.00  0.00    +0.074 C 
ATOM     15  C   UNL     1     -15.156   6.314  23.072  0.00  0.00    +0.015 C 
ATOM     16  C   UNL     1     -14.069   6.497  22.308  0.00  0.00    +0.006 C 
ENDROOT
BRANCH  15  17
ATOM      4  O   UNL     1     -15.191   3.976  22.846  0.00  0.00    -0.271 OA
ATOM      9  N   UNL     1     -15.952   4.931  24.832  0.00  0.00    -0.300 N 
ATOM     17  C   UNL     1     -15.426   4.956  23.553  0.00  0.00    +0.241 C 
ATOM     37  H   UNL     1     -16.132   5.809  25.312  0.00  0.00    +0.150 HD
BRANCH   9  18
ATOM     18  C   UNL     1     -16.302   3.707  25.518  0.00  0.00    +0.163 C 
BRANCH  18  23
ATOM      6  O   UNL     1     -18.435   3.485  24.376  0.00  0.00    -0.274 OA
ATOM     10  N   UNL     1     -16.917   1.769  24.211  0.00  0.00    -0.328 N 
ATOM     23  C   UNL     1     -17.345   2.999  24.667  0.00  0.00    +0.231 C 
ATOM     38  H   UNL     1     -16.012   1.381  24.456  0.00  0.00    +0.145 HD
ATOM     39  H   UNL     1     -17.511   1.199  23.620  0.00  0.00    +0.145 HD
ENDBRANCH  18  23
BRANCH  18  20
ATOM     20  C   UNL     1     -16.849   3.969  26.926  0.00  0.00    +0.067 C 
BRANCH  20  22
ATOM     22  C   UNL     1     -16.213   3.088  27.973  0.00  0.00    -0.045 A 
ATOM     25  C   UNL     1     -16.515   1.736  27.998  0.00  0.00    +0.007 A 
ATOM     26  C   UNL     1     -15.340   3.648  28.893  0.00  0.00    +0.007 A 
ATOM     28  C   UNL     1     -15.928   0.921  28.966  0.00  0.00    +0.046 A 
ATOM     29  C   UNL     1     -14.753   2.833  29.861  0.00  0.00    +0.046 A 
ATOM     30  C   UNL     1     -15.048   1.471  29.898  0.00  0.00    +0.120 A 
BRANCH  30   7
ATOM      7  O   UNL     1     -14.474   0.674  30.842  0.00  0.00    -0.495 OA
ATOM     33  C   UNL     1     -15.077  -0.599  31.070  0.00  0.00    +0.277 C 
ENDBRANCH  30   7
ENDBRANCH  20  22
ENDBRANCH  18  20
ENDBRANCH   9  18
ENDBRANCH  15  17
BRANCH  12   8
ATOM      5  O   UNL     1     -10.974   7.290  20.986  0.00  0.00    -0.275 OA
ATOM      8  N   UNL     1     -13.191   7.679  20.416  0.00  0.00    -0.306 N 
ATOM     19  C   UNL     1     -11.859   7.413  20.141  0.00  0.00    +0.218 C 
ATOM     34  H   UNL     1     -13.841   7.804  19.645  0.00  0.00    +0.149 HD
BRANCH  19  21
ATOM     21  C   UNL     1     -11.576   7.262  18.659  0.00  0.00    +0.138 C 
BRANCH  21  24
ATOM      1  S   UNL     1     -10.652   8.675  16.476  0.00  0.00    -0.101 S 
ATOM     24  C   UNL     1     -10.981   8.541  18.139  0.00  0.00    -0.001 A 
ATOM     27  C   UNL     1     -10.653   9.657  18.851  0.00  0.00    +0.011 A 
ATOM     31  C   UNL     1     -10.110  10.667  18.005  0.00  0.00    +0.008 A 
ATOM     32  C   UNL     1     -10.053  10.265  16.690  0.00  0.00    +0.045 A 
ENDBRANCH  21  24
ENDBRANCH  19  21
ENDBRANCH  12   8
BRANCH  11   2
ATOM      2  O   UNL     1     -15.775   8.599  20.772  0.00  0.00    -0.387 OA
ATOM     35  H   UNL     1     -15.574   9.170  20.012  0.00  0.00    +0.210 HD
ENDBRANCH  11   2
BRANCH  13   3
ATOM      3  O   UNL     1     -14.711   9.267  24.208  0.00  0.00    -0.389 OA
ATOM     36  H   UNL     1     -14.200   8.500  24.517  0.00  0.00    +0.210 HD
ENDBRANCH  13   3
TORSDOF 11
ENDMDL
MODEL 10
REMARK VINA RESULT:      -6.4     27.611     32.117
REMARK  Name = 7050141
REMARK  12 active torsions:
REMARK  status: ('A' for Active; 'I' for Inactive)
REMARK    1  A    between atoms: O_2  and  C_11
REMARK    2  A    between atoms: O_3  and  C_13
REMARK    3  A    between atoms: O_7  and  C_30
REMARK    4  A    between atoms: O_7  and  C_33
REMARK    5  A    between atoms: N_8  and  C_12
REMARK    6  A    between atoms: N_9  and  C_18
REMARK    7  A    between atoms: C_15  and  C_17
REMARK    8  A    between atoms: C_18  and  C_20
REMARK    9  A    between atoms: C_18  and  C_23
REMARK   10  A    between atoms: C_19  and  C_21
REMARK   11  A    between atoms: C_20  and  C_22
REMARK   12  A    between atoms: C_21  and  C_24
REMARK                            x       y       z     vdW  Elec       q    Type
REMARK                         _______ _______ _______ _____ _____    ______ ____
ROOT
ATOM     11  C   UNL     1      18.353   6.999  21.129  0.00  0.00    +0.167 C 
ATOM     12  C   UNL     1      18.173   8.527  21.067  0.00  0.00    +0.127 C 
ATOM     13  C   UNL     1      17.118   6.265  20.592  0.00  0.00    +0.149 C 
ATOM     14  C   UNL     1      15.833   6.680  21.327  0.00  0.00    +0.074 C 
ATOM     15  C   UNL     1      15.779   8.146  21.654  0.00  0.00    +0.015 C 
ATOM     16  C   UNL     1      16.819   8.986  21.534  0.00  0.00    +0.006 C 
ENDROOT
BRANCH  15  17
ATOM      4  O   UNL     1      14.478   9.681  22.865  0.00  0.00    -0.271 OA
ATOM      9  N   UNL     1      13.407   8.024  21.623  0.00  0.00    -0.300 N 
ATOM     17  C   UNL     1      14.506   8.706  22.115  0.00  0.00    +0.241 C 
ATOM     37  H   UNL     1      13.552   7.210  21.032  0.00  0.00    +0.150 HD
BRANCH   9  18
ATOM     18  C   UNL     1      12.045   8.388  21.942  0.00  0.00    +0.163 C 
BRANCH  18  23
ATOM      6  O   UNL     1      11.645   6.043  21.444  0.00  0.00    -0.274 OA
ATOM     10  N   UNL     1       9.853   7.372  21.992  0.00  0.00    -0.328 N 
ATOM     23  C   UNL     1      11.191   7.145  21.745  0.00  0.00    +0.231 C 
ATOM     38  H   UNL     1       9.491   8.285  22.244  0.00  0.00    +0.145 HD
ATOM     39  H   UNL     1       9.175   6.621  21.912  0.00  0.00    +0.145 HD
ENDBRANCH  18  23
BRANCH  18  20
ATOM     20  C   UNL     1      11.531   9.534  21.061  0.00  0.00    +0.067 C 
BRANCH  20  22
ATOM     22  C   UNL     1      11.913   9.372  19.610  0.00  0.00    -0.045 A 
ATOM     25  C   UNL     1      12.990  10.082  19.108  0.00  0.00    +0.007 A 
ATOM     26  C   UNL     1      11.176   8.516  18.806  0.00  0.00    +0.007 A 
ATOM     28  C   UNL     1      13.343   9.933  17.766  0.00  0.00    +0.046 A 
ATOM     29  C   UNL     1      11.529   8.366  17.465  0.00  0.00    +0.046 A 
ATOM     30  C   UNL     1      12.611   9.075  16.945  0.00  0.00    +0.120 A 
BRANCH  30   7
ATOM      7  O   UNL     1      12.957   8.929  15.636  0.00  0.00    -0.495 OA
ATOM     33  C   UNL     1      14.350   8.849  15.338  0.00  0.00    +0.277 C 
ENDBRANCH  30   7
ENDBRANCH  20  22
ENDBRANCH  18  20
ENDBRANCH   9  18
ENDBRANCH  15  17
BRANCH  12   8
ATOM      5  O   UNL     1      19.356  11.079  20.458  0.00  0.00    -0.275 OA
ATOM      8  N   UNL     1      19.187   9.214  21.831  0.00  0.00    -0.306 N 
ATOM     19  C   UNL     1      19.698  10.446  21.456  0.00  0.00    +0.218 C 
ATOM     34  H   UNL     1      19.564   8.750  22.652  0.00  0.00    +0.149 HD
BRANCH  19  21
ATOM     21  C   UNL     1      20.739  10.977  22.422  0.00  0.00    +0.138 C 
BRANCH  21  24
ATOM      1  S   UNL     1      22.053   9.157  24.027  0.00  0.00    -0.101 S 
ATOM     24  C   UNL     1      21.850   9.972  22.548  0.00  0.00    -0.001 A 
ATOM     27  C   UNL     1      22.757   9.609  21.598  0.00  0.00    +0.011 A 
ATOM     31  C   UNL     1      23.659   8.624  22.095  0.00  0.00    +0.008 A 
ATOM     32  C   UNL     1      23.389   8.287  23.402  0.00  0.00    +0.045 A 
ENDBRANCH  21  24
ENDBRANCH  19  21
ENDBRANCH  12   8
BRANCH  11   2
ATOM      2  O   UNL     1      18.573   6.596  22.483  0.00  0.00    -0.387 OA
ATOM     35  H   UNL     1      19.472   6.856  22.746  0.00  0.00    +0.210 HD
ENDBRANCH  11   2
BRANCH  13   3
ATOM      3  O   UNL     1      16.978   6.499  19.192  0.00  0.00    -0.389 OA
ATOM     36  H   UNL     1      17.561   7.242  18.958  0.00  0.00    +0.210 HD
ENDBRANCH  13   3
TORSDOF 11
ENDMDL
