MODEL 1
REMARK VINA RESULT:      -6.4      0.000      0.000
REMARK  Name = 40587832
REMARK  6 active torsions:
REMARK  status: ('A' for Active; 'I' for Inactive)
REMARK    1  A    between atoms: O_5  and  C_30
REMARK    2  A    between atoms: O_5  and  C_34
REMARK    3  A    between atoms: N_8  and  C_14
REMARK    4  A    between atoms: C_10  and  C_15
REMARK    5  A    between atoms: C_18  and  C_22
REMARK    6  A    between atoms: C_21  and  C_23
REMARK                            x       y       z     vdW  Elec       q    Type
REMARK                         _______ _______ _______ _____ _____    ______ ____
ROOT
ATOM      2  O   UNL     1      11.377   5.001   3.248  0.00  0.00    -0.270 OA
ATOM      4  O   UNL     1       8.053  10.418   0.197  0.00  0.00    -0.270 OA
ATOM      6  N   UNL     1       9.876   6.799   3.268  0.00  0.00    -0.283 N 
ATOM      7  N   UNL     1       8.281   8.808   1.873  0.00  0.00    -0.294 N 
ATOM     10  C   UNL     1       8.919   7.643   3.998  0.00  0.00    +0.179 C 
ATOM     11  C   UNL     1       7.794   8.176   3.109  0.00  0.00    +0.140 C 
ATOM     12  C   UNL     1       9.888   6.921   1.809  0.00  0.00    +0.128 C 
ATOM     13  C   UNL     1       9.554   8.328   1.338  0.00  0.00    +0.127 C 
ATOM     18  C   UNL     1      10.663   5.799   3.854  0.00  0.00    +0.247 C 
ATOM     21  C   UNL     1       7.635   9.857   1.209  0.00  0.00    +0.247 C 
ENDROOT
BRANCH  18  22
ATOM     22  C   UNL     1      10.650   5.677   5.316  0.00  0.00    +0.037 A 
ATOM     24  C   UNL     1      11.604   6.349   6.081  0.00  0.00    +0.016 A 
ATOM     25  C   UNL     1       9.684   4.890   5.942  0.00  0.00    +0.016 A 
ATOM     28  C   UNL     1      11.593   6.233   7.471  0.00  0.00    +0.046 A 
ATOM     29  C   UNL     1       9.673   4.773   7.332  0.00  0.00    +0.046 A 
ATOM     30  C   UNL     1      10.627   5.445   8.097  0.00  0.00    +0.120 A 
BRANCH  30   5
ATOM      5  O   UNL     1      10.616   5.331   9.453  0.00  0.00    -0.495 OA
ATOM     34  C   UNL     1       9.465   4.731  10.044  0.00  0.00    +0.277 C 
ENDBRANCH  30   5
ENDBRANCH  18  22
BRANCH  21  23
ATOM     23  C   UNL     1       6.349  10.334   1.744  0.00  0.00    +0.037 A 
ATOM     26  C   UNL     1       6.324  11.358   2.691  0.00  0.00    +0.013 A 
ATOM     27  C   UNL     1       5.156   9.761   1.305  0.00  0.00    +0.013 A 
ATOM     31  C   UNL     1       5.106  11.811   3.197  0.00  0.00    +0.001 A 
ATOM     32  C   UNL     1       3.937  10.215   1.810  0.00  0.00    +0.001 A 
ATOM     33  C   UNL     1       3.912  11.240   2.756  0.00  0.00    +0.000 A 
ENDBRANCH  21  23
BRANCH  10  15
ATOM      1  O   UNL     1      10.825   9.061   4.265  0.00  0.00    -0.274 OA
ATOM      8  N   UNL     1       8.942   9.445   5.578  0.00  0.00    -0.302 N 
ATOM     15  C   UNL     1       9.677   8.788   4.607  0.00  0.00    +0.236 C 
ATOM     35  H   UNL     1       7.987   9.149   5.759  0.00  0.00    +0.150 HD
BRANCH   8  14
ATOM      3  O   UNL     1       9.693   9.028   8.173  0.00  0.00    -0.274 OA
ATOM      9  N   UNL     1       9.297  11.214   8.702  0.00  0.00    -0.314 N 
ATOM     14  C   UNL     1       9.450  10.565   6.328  0.00  0.00    +0.159 C 
ATOM     16  C   UNL     1       8.664  11.830   6.014  0.00  0.00    +0.033 C 
ATOM     17  C   UNL     1       9.105  12.949   6.944  0.00  0.00    +0.021 C 
ATOM     19  C   UNL     1       8.818  12.544   8.377  0.00  0.00    +0.104 C 
ATOM     20  C   UNL     1       9.456  10.179   7.802  0.00  0.00    +0.233 C 
ATOM     36  H   UNL     1       9.357  10.977   9.688  0.00  0.00    +0.149 HD
ENDBRANCH   8  14
ENDBRANCH  10  15
TORSDOF 5
ENDMDL
MODEL 2
REMARK VINA RESULT:      -6.2     24.550     27.798
REMARK  Name = 40587832
REMARK  6 active torsions:
REMARK  status: ('A' for Active; 'I' for Inactive)
REMARK    1  A    between atoms: O_5  and  C_30
REMARK    2  A    between atoms: O_5  and  C_34
REMARK    3  A    between atoms: N_8  and  C_14
REMARK    4  A    between atoms: C_10  and  C_15
REMARK    5  A    between atoms: C_18  and  C_22
REMARK    6  A    between atoms: C_21  and  C_23
REMARK                            x       y       z     vdW  Elec       q    Type
REMARK                         _______ _______ _______ _____ _____    ______ ____
ROOT
ATOM      2  O   UNL     1      -4.335 -11.634  19.013  0.00  0.00    -0.270 OA
ATOM      4  O   UNL     1     -11.127  -9.812  18.509  0.00  0.00    -0.270 OA
ATOM      6  N   UNL     1      -6.188 -10.812  17.837  0.00  0.00    -0.283 N 
ATOM      7  N   UNL     1      -8.910  -9.759  17.778  0.00  0.00    -0.294 N 
ATOM     10  C   UNL     1      -6.770 -10.298  16.589  0.00  0.00    +0.179 C 
ATOM     11  C   UNL     1      -7.891  -9.285  16.827  0.00  0.00    +0.140 C 
ATOM     12  C   UNL     1      -6.979 -10.644  19.057  0.00  0.00    +0.128 C 
ATOM     13  C   UNL     1      -8.475 -10.714  18.796  0.00  0.00    +0.127 C 
ATOM     18  C   UNL     1      -4.885 -11.314  17.959  0.00  0.00    +0.247 C 
ATOM     21  C   UNL     1     -10.260  -9.392  17.743  0.00  0.00    +0.247 C 
ENDROOT
BRANCH  18  22
ATOM     22  C   UNL     1      -4.091 -11.482  16.736  0.00  0.00    +0.037 A 
ATOM     24  C   UNL     1      -3.237 -10.463  16.314  0.00  0.00    +0.016 A 
ATOM     25  C   UNL     1      -4.190 -12.659  15.995  0.00  0.00    +0.016 A 
ATOM     28  C   UNL     1      -2.483 -10.620  15.151  0.00  0.00    +0.046 A 
ATOM     29  C   UNL     1      -3.436 -12.817  14.833  0.00  0.00    +0.046 A 
ATOM     30  C   UNL     1      -2.582 -11.798  14.411  0.00  0.00    +0.120 A 
BRANCH  30   5
ATOM      5  O   UNL     1      -1.847 -11.952  13.276  0.00  0.00    -0.495 OA
ATOM     34  C   UNL     1      -2.057 -11.003  12.232  0.00  0.00    +0.277 C 
ENDBRANCH  30   5
ENDBRANCH  18  22
BRANCH  21  23
ATOM     23  C   UNL     1     -10.694  -8.424  16.723  0.00  0.00    +0.037 A 
ATOM     26  C   UNL     1     -11.063  -8.867  15.453  0.00  0.00    +0.013 A 
ATOM     27  C   UNL     1     -10.736  -7.063  17.027  0.00  0.00    +0.013 A 
ATOM     31  C   UNL     1     -11.476  -7.950  14.487  0.00  0.00    +0.001 A 
ATOM     32  C   UNL     1     -11.149  -6.146  16.060  0.00  0.00    +0.001 A 
ATOM     33  C   UNL     1     -11.519  -6.589  14.791  0.00  0.00    +0.000 A 
ENDBRANCH  21  23
BRANCH  10  15
ATOM      1  O   UNL     1      -7.614 -12.522  16.347  0.00  0.00    -0.274 OA
ATOM      8  N   UNL     1      -7.341 -11.206  14.445  0.00  0.00    -0.302 N 
ATOM     15  C   UNL     1      -7.294 -11.467  15.804  0.00  0.00    +0.236 C 
ATOM     35  H   UNL     1      -7.078 -10.284  14.111  0.00  0.00    +0.150 HD
BRANCH   8  14
ATOM      3  O   UNL     1      -5.694 -11.767  12.338  0.00  0.00    -0.274 OA
ATOM      9  N   UNL     1      -7.468 -12.377  11.036  0.00  0.00    -0.314 N 
ATOM     14  C   UNL     1      -7.786 -12.170  13.473  0.00  0.00    +0.159 C 
ATOM     16  C   UNL     1      -9.271 -12.007  13.186  0.00  0.00    +0.033 C 
ATOM     17  C   UNL     1      -9.671 -12.915  12.034  0.00  0.00    +0.021 C 
ATOM     19  C   UNL     1      -8.893 -12.517  10.796  0.00  0.00    +0.104 C 
ATOM     20  C   UNL     1      -6.891 -12.045  12.245  0.00  0.00    +0.233 C 
ATOM     36  H   UNL     1      -6.866 -12.353  10.218  0.00  0.00    +0.149 HD
ENDBRANCH   8  14
ENDBRANCH  10  15
TORSDOF 5
ENDMDL
MODEL 3
REMARK VINA RESULT:      -6.0     23.480     27.450
REMARK  Name = 40587832
REMARK  6 active torsions:
REMARK  status: ('A' for Active; 'I' for Inactive)
REMARK    1  A    between atoms: O_5  and  C_30
REMARK    2  A    between atoms: O_5  and  C_34
REMARK    3  A    between atoms: N_8  and  C_14
REMARK    4  A    between atoms: C_10  and  C_15
REMARK    5  A    between atoms: C_18  and  C_22
REMARK    6  A    between atoms: C_21  and  C_23
REMARK                            x       y       z     vdW  Elec       q    Type
REMARK                         _______ _______ _______ _____ _____    ______ ____
ROOT
ATOM      2  O   UNL     1      -1.146  -9.671  12.621  0.00  0.00    -0.270 OA
ATOM      4  O   UNL     1      -3.081 -11.865  19.036  0.00  0.00    -0.270 OA
ATOM      6  N   UNL     1      -2.694 -10.564  14.136  0.00  0.00    -0.283 N 
ATOM      7  N   UNL     1      -3.552 -11.140  16.866  0.00  0.00    -0.294 N 
ATOM     10  C   UNL     1      -4.032 -11.109  14.406  0.00  0.00    +0.179 C 
ATOM     11  C   UNL     1      -4.528 -10.797  15.820  0.00  0.00    +0.140 C 
ATOM     12  C   UNL     1      -1.878 -10.202  15.295  0.00  0.00    +0.128 C 
ATOM     13  C   UNL     1      -2.139 -11.099  16.495  0.00  0.00    +0.127 C 
ATOM     18  C   UNL     1      -2.210 -10.240  12.861  0.00  0.00    +0.247 C 
ATOM     21  C   UNL     1      -3.887 -11.540  18.165  0.00  0.00    +0.247 C 
ENDROOT
BRANCH  18  22
ATOM     22  C   UNL     1      -3.028 -10.603  11.698  0.00  0.00    +0.037 A 
ATOM     24  C   UNL     1      -3.874  -9.657  11.118  0.00  0.00    +0.016 A 
ATOM     25  C   UNL     1      -2.962 -11.893  11.172  0.00  0.00    +0.016 A 
ATOM     28  C   UNL     1      -4.653 -10.001  10.013  0.00  0.00    +0.046 A 
ATOM     29  C   UNL     1      -3.741 -12.237  10.068  0.00  0.00    +0.046 A 
ATOM     30  C   UNL     1      -4.586 -11.291   9.487  0.00  0.00    +0.120 A 
BRANCH  30   5
ATOM      5  O   UNL     1      -5.347 -11.627   8.410  0.00  0.00    -0.495 OA
ATOM     34  C   UNL     1      -5.345 -10.723   7.307  0.00  0.00    +0.277 C 
ENDBRANCH  30   5
ENDBRANCH  18  22
BRANCH  21  23
ATOM     23  C   UNL     1      -5.310 -11.572  18.539  0.00  0.00    +0.037 A 
ATOM     26  C   UNL     1      -6.054 -12.738  18.357  0.00  0.00    +0.013 A 
ATOM     27  C   UNL     1      -5.916 -10.435  19.075  0.00  0.00    +0.013 A 
ATOM     31  C   UNL     1      -7.402 -12.769  18.714  0.00  0.00    +0.001 A 
ATOM     32  C   UNL     1      -7.264 -10.466  19.431  0.00  0.00    +0.001 A 
ATOM     33  C   UNL     1      -8.007 -11.633  19.251  0.00  0.00    +0.000 A 
ENDBRANCH  21  23
BRANCH  10  15
ATOM      1  O   UNL     1      -2.921 -13.216  14.209  0.00  0.00    -0.274 OA
ATOM      8  N   UNL     1      -5.236 -13.137  13.979  0.00  0.00    -0.302 N 
ATOM     15  C   UNL     1      -3.981 -12.596  14.198  0.00  0.00    +0.236 C 
ATOM     35  H   UNL     1      -6.050 -12.529  14.021  0.00  0.00    +0.150 HD
BRANCH   8  14
ATOM      3  O   UNL     1      -6.426 -13.858  11.626  0.00  0.00    -0.274 OA
ATOM      9  N   UNL     1      -7.233 -15.782  12.555  0.00  0.00    -0.314 N 
ATOM     14  C   UNL     1      -5.458 -14.538  13.730  0.00  0.00    +0.159 C 
ATOM     16  C   UNL     1      -5.908 -15.249  14.998  0.00  0.00    +0.033 C 
ATOM     17  C   UNL     1      -6.301 -16.680  14.668  0.00  0.00    +0.021 C 
ATOM     19  C   UNL     1      -7.457 -16.663  13.687  0.00  0.00    +0.104 C 
ATOM     20  C   UNL     1      -6.430 -14.660  12.563  0.00  0.00    +0.233 C 
ATOM     36  H   UNL     1      -7.844 -15.903  11.753  0.00  0.00    +0.149 HD
ENDBRANCH   8  14
ENDBRANCH  10  15
TORSDOF 5
ENDMDL
MODEL 4
REMARK VINA RESULT:      -6.0     23.182     26.921
REMARK  Name = 40587832
REMARK  6 active torsions:
REMARK  status: ('A' for Active; 'I' for Inactive)
REMARK    1  A    between atoms: O_5  and  C_30
REMARK    2  A    between atoms: O_5  and  C_34
REMARK    3  A    between atoms: N_8  and  C_14
REMARK    4  A    between atoms: C_10  and  C_15
REMARK    5  A    between atoms: C_18  and  C_22
REMARK    6  A    between atoms: C_21  and  C_23
REMARK                            x       y       z     vdW  Elec       q    Type
REMARK                         _______ _______ _______ _____ _____    ______ ____
ROOT
ATOM      2  O   UNL     1      -1.184  -9.882  12.137  0.00  0.00    -0.270 OA
ATOM      4  O   UNL     1      -3.806 -11.648  18.439  0.00  0.00    -0.270 OA
ATOM      6  N   UNL     1      -2.929 -10.542  13.555  0.00  0.00    -0.283 N 
ATOM      7  N   UNL     1      -4.036 -10.934  16.227  0.00  0.00    -0.294 N 
ATOM     10  C   UNL     1      -4.338 -10.917  13.739  0.00  0.00    +0.179 C 
ATOM     11  C   UNL     1      -4.890 -10.508  15.107  0.00  0.00    +0.140 C 
ATOM     12  C   UNL     1      -2.157 -10.246  14.762  0.00  0.00    +0.128 C 
ATOM     13  C   UNL     1      -2.606 -11.072  15.958  0.00  0.00    +0.127 C 
ATOM     18  C   UNL     1      -2.323 -10.315  12.312  0.00  0.00    +0.247 C 
ATOM     21  C   UNL     1      -4.506 -11.254  17.506  0.00  0.00    +0.247 C 
ENDROOT
BRANCH  18  22
ATOM     22  C   UNL     1      -3.097 -10.611  11.100  0.00  0.00    +0.037 A 
ATOM     24  C   UNL     1      -3.689  -9.574  10.380  0.00  0.00    +0.016 A 
ATOM     25  C   UNL     1      -3.241 -11.930  10.670  0.00  0.00    +0.016 A 
ATOM     28  C   UNL     1      -4.425  -9.854   9.229  0.00  0.00    +0.046 A 
ATOM     29  C   UNL     1      -3.978 -12.211   9.519  0.00  0.00    +0.046 A 
ATOM     30  C   UNL     1      -4.570 -11.173   8.798  0.00  0.00    +0.120 A 
BRANCH  30   5
ATOM      5  O   UNL     1      -5.288 -11.448   7.675  0.00  0.00    -0.495 OA
ATOM     34  C   UNL     1      -5.513 -10.370   6.769  0.00  0.00    +0.277 C 
ENDBRANCH  30   5
ENDBRANCH  18  22
BRANCH  21  23
ATOM     23  C   UNL     1      -5.944 -11.107  17.778  0.00  0.00    +0.037 A 
ATOM     26  C   UNL     1      -6.685 -12.200  18.228  0.00  0.00    +0.013 A 
ATOM     27  C   UNL     1      -6.568  -9.874  17.585  0.00  0.00    +0.013 A 
ATOM     31  C   UNL     1      -8.048 -12.060  18.487  0.00  0.00    +0.001 A 
ATOM     32  C   UNL     1      -7.932  -9.735  17.843  0.00  0.00    +0.001 A 
ATOM     33  C   UNL     1      -8.672 -10.827  18.295  0.00  0.00    +0.000 A 
ENDBRANCH  21  23
BRANCH  10  15
ATOM      1  O   UNL     1      -5.464 -12.929  13.109  0.00  0.00    -0.274 OA
ATOM      8  N   UNL     1      -3.315 -13.070  13.993  0.00  0.00    -0.302 N 
ATOM     15  C   UNL     1      -4.452 -12.405  13.565  0.00  0.00    +0.236 C 
ATOM     35  H   UNL     1      -2.523 -12.529  14.327  0.00  0.00    +0.150 HD
BRANCH   8  14
ATOM      3  O   UNL     1      -4.439 -14.531  16.011  0.00  0.00    -0.274 OA
ATOM      9  N   UNL     1      -2.938 -16.224  15.702  0.00  0.00    -0.314 N 
ATOM     14  C   UNL     1      -3.179 -14.503  13.952  0.00  0.00    +0.159 C 
ATOM     16  C   UNL     1      -1.790 -14.903  13.478  0.00  0.00    +0.033 C 
ATOM     17  C   UNL     1      -1.618 -16.408  13.614  0.00  0.00    +0.021 C 
ATOM     19  C   UNL     1      -1.761 -16.794  15.073  0.00  0.00    +0.104 C 
ATOM     20  C   UNL     1      -3.557 -15.049  15.324  0.00  0.00    +0.233 C 
ATOM     36  H   UNL     1      -3.224 -16.628  16.589  0.00  0.00    +0.149 HD
ENDBRANCH   8  14
ENDBRANCH  10  15
TORSDOF 5
ENDMDL
MODEL 5
REMARK VINA RESULT:      -5.9     24.002     27.466
REMARK  Name = 40587832
REMARK  6 active torsions:
REMARK  status: ('A' for Active; 'I' for Inactive)
REMARK    1  A    between atoms: O_5  and  C_30
REMARK    2  A    between atoms: O_5  and  C_34
REMARK    3  A    between atoms: N_8  and  C_14
REMARK    4  A    between atoms: C_10  and  C_15
REMARK    5  A    between atoms: C_18  and  C_22
REMARK    6  A    between atoms: C_21  and  C_23
REMARK                            x       y       z     vdW  Elec       q    Type
REMARK                         _______ _______ _______ _____ _____    ______ ____
ROOT
ATOM      2  O   UNL     1      -6.238 -10.557  19.649  0.00  0.00    -0.270 OA
ATOM      4  O   UNL     1      -1.133 -11.665  14.914  0.00  0.00    -0.270 OA
ATOM      6  N   UNL     1      -5.471 -11.139  17.513  0.00  0.00    -0.283 N 
ATOM      7  N   UNL     1      -3.320 -11.911  15.697  0.00  0.00    -0.294 N 
ATOM     10  C   UNL     1      -5.761 -11.539  16.129  0.00  0.00    +0.179 C 
ATOM     11  C   UNL     1      -4.681 -12.444  15.531  0.00  0.00    +0.140 C 
ATOM     12  C   UNL     1      -4.087 -11.277  17.968  0.00  0.00    +0.128 C 
ATOM     13  C   UNL     1      -3.080 -11.047  16.852  0.00  0.00    +0.127 C 
ATOM     18  C   UNL     1      -6.443 -10.775  18.455  0.00  0.00    +0.247 C 
ATOM     21  C   UNL     1      -2.264 -12.138  14.806  0.00  0.00    +0.247 C 
ENDROOT
BRANCH  18  22
ATOM     22  C   UNL     1      -7.831 -10.638  17.999  0.00  0.00    +0.037 A 
ATOM     24  C   UNL     1      -8.368  -9.370  17.772  0.00  0.00    +0.016 A 
ATOM     25  C   UNL     1      -8.614 -11.773  17.793  0.00  0.00    +0.016 A 
ATOM     28  C   UNL     1      -9.687  -9.238  17.339  0.00  0.00    +0.046 A 
ATOM     29  C   UNL     1      -9.933 -11.641  17.360  0.00  0.00    +0.046 A 
ATOM     30  C   UNL     1     -10.470 -10.374  17.133  0.00  0.00    +0.120 A 
BRANCH  30   5
ATOM      5  O   UNL     1     -11.758 -10.246  16.711  0.00  0.00    -0.495 OA
ATOM     34  C   UNL     1     -12.546  -9.232  17.331  0.00  0.00    +0.277 C 
ENDBRANCH  30   5
ENDBRANCH  18  22
BRANCH  21  23
ATOM     23  C   UNL     1      -2.504 -13.014  13.649  0.00  0.00    +0.037 A 
ATOM     26  C   UNL     1      -3.101 -12.501  12.497  0.00  0.00    +0.013 A 
ATOM     27  C   UNL     1      -2.136 -14.359  13.704  0.00  0.00    +0.013 A 
ATOM     31  C   UNL     1      -3.327 -13.331  11.399  0.00  0.00    +0.001 A 
ATOM     32  C   UNL     1      -2.363 -15.189  12.606  0.00  0.00    +0.001 A 
ATOM     33  C   UNL     1      -2.957 -14.675  11.454  0.00  0.00    +0.000 A 
ENDBRANCH  21  23
BRANCH  10  15
ATOM      1  O   UNL     1      -5.817  -9.172  15.800  0.00  0.00    -0.274 OA
ATOM      8  N   UNL     1      -6.142 -10.573  13.968  0.00  0.00    -0.302 N 
ATOM     15  C   UNL     1      -5.899 -10.292  15.302  0.00  0.00    +0.236 C 
ATOM     35  H   UNL     1      -6.160 -11.542  13.663  0.00  0.00    +0.150 HD
BRANCH   8  14
ATOM      3  O   UNL     1      -8.684 -10.090  13.089  0.00  0.00    -0.274 OA
ATOM      9  N   UNL     1      -7.908  -9.309  11.088  0.00  0.00    -0.314 N 
ATOM     14  C   UNL     1      -6.334  -9.552  12.971  0.00  0.00    +0.159 C 
ATOM     16  C   UNL     1      -5.222  -9.590  11.934  0.00  0.00    +0.033 C 
ATOM     17  C   UNL     1      -5.544  -8.624  10.805  0.00  0.00    +0.021 C 
ATOM     19  C   UNL     1      -6.839  -9.050  10.141  0.00  0.00    +0.104 C 
ATOM     20  C   UNL     1      -7.736  -9.716  12.396  0.00  0.00    +0.233 C 
ATOM     36  H   UNL     1      -8.851  -9.360  10.713  0.00  0.00    +0.149 HD
ENDBRANCH   8  14
ENDBRANCH  10  15
TORSDOF 5
ENDMDL
MODEL 6
REMARK VINA RESULT:      -5.9      1.570      2.194
REMARK  Name = 40587832
REMARK  6 active torsions:
REMARK  status: ('A' for Active; 'I' for Inactive)
REMARK    1  A    between atoms: O_5  and  C_30
REMARK    2  A    between atoms: O_5  and  C_34
REMARK    3  A    between atoms: N_8  and  C_14
REMARK    4  A    between atoms: C_10  and  C_15
REMARK    5  A    between atoms: C_18  and  C_22
REMARK    6  A    between atoms: C_21  and  C_23
REMARK                            x       y       z     vdW  Elec       q    Type
REMARK                         _______ _______ _______ _____ _____    ______ ____
ROOT
ATOM      2  O   UNL     1      12.778   6.973   4.478  0.00  0.00    -0.270 OA
ATOM      4  O   UNL     1       8.604  11.539   1.096  0.00  0.00    -0.270 OA
ATOM      6  N   UNL     1      10.680   7.846   3.907  0.00  0.00    -0.283 N 
ATOM      7  N   UNL     1       8.989   9.533   2.229  0.00  0.00    -0.294 N 
ATOM     10  C   UNL     1       9.216   7.815   4.040  0.00  0.00    +0.179 C 
ATOM     11  C   UNL     1       8.492   8.256   2.766  0.00  0.00    +0.140 C 
ATOM     12  C   UNL     1      11.230   8.649   2.815  0.00  0.00    +0.128 C 
ATOM     13  C   UNL     1      10.383   9.874   2.507  0.00  0.00    +0.127 C 
ATOM     18  C   UNL     1      11.563   7.055   4.656  0.00  0.00    +0.247 C 
ATOM     21  C   UNL     1       8.210  10.451   1.516  0.00  0.00    +0.247 C 
ENDROOT
BRANCH  18  22
ATOM     22  C   UNL     1      11.010   6.249   5.751  0.00  0.00    +0.037 A 
ATOM     24  C   UNL     1      10.207   5.145   5.467  0.00  0.00    +0.016 A 
ATOM     25  C   UNL     1      11.289   6.586   7.075  0.00  0.00    +0.016 A 
ATOM     28  C   UNL     1       9.681   4.378   6.506  0.00  0.00    +0.046 A 
ATOM     29  C   UNL     1      10.763   5.820   8.115  0.00  0.00    +0.046 A 
ATOM     30  C   UNL     1       9.959   4.715   7.831  0.00  0.00    +0.120 A 
BRANCH  30   5
ATOM      5  O   UNL     1       9.445   3.968   8.846  0.00  0.00    -0.495 OA
ATOM     34  C   UNL     1       9.075   4.660  10.038  0.00  0.00    +0.277 C 
ENDBRANCH  30   5
ENDBRANCH  18  22
BRANCH  21  23
ATOM     23  C   UNL     1       6.809  10.103   1.230  0.00  0.00    +0.037 A 
ATOM     26  C   UNL     1       6.458   9.590  -0.018  0.00  0.00    +0.013 A 
ATOM     27  C   UNL     1       5.831  10.287   2.208  0.00  0.00    +0.013 A 
ATOM     31  C   UNL     1       5.131   9.258  -0.289  0.00  0.00    +0.001 A 
ATOM     32  C   UNL     1       4.503   9.955   1.937  0.00  0.00    +0.001 A 
ATOM     33  C   UNL     1       4.153   9.441   0.689  0.00  0.00    +0.000 A 
ENDBRANCH  21  23
BRANCH  10  15
ATOM      1  O   UNL     1       7.681   8.771   5.603  0.00  0.00    -0.274 OA
ATOM      8  N   UNL     1       9.909   9.443   5.658  0.00  0.00    -0.302 N 
ATOM     15  C   UNL     1       8.833   8.712   5.183  0.00  0.00    +0.236 C 
ATOM     35  H   UNL     1      10.827   9.290   5.251  0.00  0.00    +0.150 HD
BRANCH   8  14
ATOM      3  O   UNL     1      11.418  11.718   5.529  0.00  0.00    -0.274 OA
ATOM      9  N   UNL     1      11.417  11.918   7.804  0.00  0.00    -0.314 N 
ATOM     14  C   UNL     1       9.802  10.391   6.736  0.00  0.00    +0.159 C 
ATOM     16  C   UNL     1       9.708   9.680   8.078  0.00  0.00    +0.033 C 
ATOM     17  C   UNL     1       9.775  10.700   9.203  0.00  0.00    +0.021 C 
ATOM     19  C   UNL     1      11.102  11.429   9.133  0.00  0.00    +0.104 C 
ATOM     20  C   UNL     1      10.969  11.365   6.622  0.00  0.00    +0.233 C 
ATOM     36  H   UNL     1      12.156  12.612   7.734  0.00  0.00    +0.149 HD
ENDBRANCH   8  14
ENDBRANCH  10  15
TORSDOF 5
ENDMDL
MODEL 7
REMARK VINA RESULT:      -5.8      3.702      6.614
REMARK  Name = 40587832
REMARK  6 active torsions:
REMARK  status: ('A' for Active; 'I' for Inactive)
REMARK    1  A    between atoms: O_5  and  C_30
REMARK    2  A    between atoms: O_5  and  C_34
REMARK    3  A    between atoms: N_8  and  C_14
REMARK    4  A    between atoms: C_10  and  C_15
REMARK    5  A    between atoms: C_18  and  C_22
REMARK    6  A    between atoms: C_21  and  C_23
REMARK                            x       y       z     vdW  Elec       q    Type
REMARK                         _______ _______ _______ _____ _____    ______ ____
ROOT
ATOM      2  O   UNL     1       7.933   7.384   7.292  0.00  0.00    -0.270 OA
ATOM      4  O   UNL     1      11.462   3.322   2.736  0.00  0.00    -0.270 OA
ATOM      6  N   UNL     1       9.561   7.035   5.644  0.00  0.00    -0.283 N 
ATOM      7  N   UNL     1      10.754   5.397   3.543  0.00  0.00    -0.294 N 
ATOM     10  C   UNL     1      10.643   7.562   4.801  0.00  0.00    +0.179 C 
ATOM     11  C   UNL     1      10.734   6.865   3.442  0.00  0.00    +0.140 C 
ATOM     12  C   UNL     1       9.027   5.718   5.292  0.00  0.00    +0.128 C 
ATOM     13  C   UNL     1      10.083   4.801   4.696  0.00  0.00    +0.127 C 
ATOM     18  C   UNL     1       8.919   7.758   6.658  0.00  0.00    +0.247 C 
ATOM     21  C   UNL     1      11.406   4.548   2.640  0.00  0.00    +0.247 C 
ENDROOT
BRANCH  18  22
ATOM     22  C   UNL     1       9.454   9.079   7.010  0.00  0.00    +0.037 A 
ATOM     24  C   UNL     1      10.158   9.251   8.202  0.00  0.00    +0.016 A 
ATOM     25  C   UNL     1       9.258  10.162   6.154  0.00  0.00    +0.016 A 
ATOM     28  C   UNL     1      10.666  10.505   8.538  0.00  0.00    +0.046 A 
ATOM     29  C   UNL     1       9.766  11.417   6.490  0.00  0.00    +0.046 A 
ATOM     30  C   UNL     1      10.471  11.589   7.682  0.00  0.00    +0.120 A 
BRANCH  30   5
ATOM      5  O   UNL     1      10.966  12.814   8.009  0.00  0.00    -0.495 OA
ATOM     34  C   UNL     1      12.056  12.848   8.929  0.00  0.00    +0.277 C 
ENDBRANCH  30   5
ENDBRANCH  18  22
BRANCH  21  23
ATOM     23  C   UNL     1      12.074   5.149   1.475  0.00  0.00    +0.037 A 
ATOM     26  C   UNL     1      11.388   5.282   0.268  0.00  0.00    +0.013 A 
ATOM     27  C   UNL     1      13.395   5.587   1.578  0.00  0.00    +0.013 A 
ATOM     31  C   UNL     1      12.020   5.853  -0.835  0.00  0.00    +0.001 A 
ATOM     32  C   UNL     1      14.027   6.158   0.474  0.00  0.00    +0.001 A 
ATOM     33  C   UNL     1      13.340   6.291  -0.732  0.00  0.00    +0.000 A 
ENDBRANCH  21  23
BRANCH  10  15
ATOM      1  O   UNL     1      12.019   6.709   6.559  0.00  0.00    -0.274 OA
ATOM      8  N   UNL     1      12.968   8.123   4.971  0.00  0.00    -0.302 N 
ATOM     15  C   UNL     1      11.937   7.399   5.547  0.00  0.00    +0.236 C 
ATOM     35  H   UNL     1      12.790   8.638   4.114  0.00  0.00    +0.150 HD
BRANCH   8  14
ATOM      3  O   UNL     1      13.562  10.017   6.850  0.00  0.00    -0.274 OA
ATOM      9  N   UNL     1      15.772   9.979   6.274  0.00  0.00    -0.314 N 
ATOM     14  C   UNL     1      14.304   8.153   5.508  0.00  0.00    +0.159 C 
ATOM     16  C   UNL     1      15.332   7.890   4.417  0.00  0.00    +0.033 C 
ATOM     17  C   UNL     1      16.731   8.101   4.974  0.00  0.00    +0.021 C 
ATOM     19  C   UNL     1      16.870   9.539   5.433  0.00  0.00    +0.104 C 
ATOM     20  C   UNL     1      14.487   9.478   6.238  0.00  0.00    +0.233 C 
ATOM     36  H   UNL     1      15.916  10.832   6.807  0.00  0.00    +0.149 HD
ENDBRANCH   8  14
ENDBRANCH  10  15
TORSDOF 5
ENDMDL
MODEL 8
REMARK VINA RESULT:      -5.8     24.106     28.385
REMARK  Name = 40587832
REMARK  6 active torsions:
REMARK  status: ('A' for Active; 'I' for Inactive)
REMARK    1  A    between atoms: O_5  and  C_30
REMARK    2  A    between atoms: O_5  and  C_34
REMARK    3  A    between atoms: N_8  and  C_14
REMARK    4  A    between atoms: C_10  and  C_15
REMARK    5  A    between atoms: C_18  and  C_22
REMARK    6  A    between atoms: C_21  and  C_23
REMARK                            x       y       z     vdW  Elec       q    Type
REMARK                         _______ _______ _______ _____ _____    ______ ____
ROOT
ATOM      2  O   UNL     1      16.803  -9.177  28.621  0.00  0.00    -0.270 OA
ATOM      4  O   UNL     1      20.558  -4.778  24.590  0.00  0.00    -0.270 OA
ATOM      6  N   UNL     1      17.273  -7.064  27.726  0.00  0.00    -0.283 N 
ATOM      7  N   UNL     1      18.641  -5.359  25.790  0.00  0.00    -0.294 N 
ATOM     10  C   UNL     1      16.964  -5.630  27.633  0.00  0.00    +0.179 C 
ATOM     11  C   UNL     1      17.283  -5.038  26.258  0.00  0.00    +0.140 C 
ATOM     12  C   UNL     1      18.186  -7.612  26.722  0.00  0.00    +0.128 C 
ATOM     13  C   UNL     1      19.234  -6.604  26.275  0.00  0.00    +0.127 C 
ATOM     18  C   UNL     1      16.651  -7.956  28.609  0.00  0.00    +0.247 C 
ATOM     21  C   UNL     1      19.408  -4.538  24.956  0.00  0.00    +0.247 C 
ENDROOT
BRANCH  18  22
ATOM     22  C   UNL     1      15.734  -7.407  29.615  0.00  0.00    +0.037 A 
ATOM     24  C   UNL     1      14.428  -7.070  29.258  0.00  0.00    +0.016 A 
ATOM     25  C   UNL     1      16.168  -7.221  30.928  0.00  0.00    +0.016 A 
ATOM     28  C   UNL     1      13.556  -6.546  30.214  0.00  0.00    +0.046 A 
ATOM     29  C   UNL     1      15.296  -6.698  31.883  0.00  0.00    +0.046 A 
ATOM     30  C   UNL     1      13.990  -6.361  31.526  0.00  0.00    +0.120 A 
BRANCH  30   5
ATOM      5  O   UNL     1      13.140  -5.850  32.458  0.00  0.00    -0.495 OA
ATOM     34  C   UNL     1      12.319  -4.755  32.057  0.00  0.00    +0.277 C 
ENDBRANCH  30   5
ENDBRANCH  18  22
BRANCH  21  23
ATOM     23  C   UNL     1      18.806  -3.289  24.463  0.00  0.00    +0.037 A 
ATOM     26  C   UNL     1      18.205  -3.253  23.204  0.00  0.00    +0.013 A 
ATOM     27  C   UNL     1      18.837  -2.140  25.253  0.00  0.00    +0.013 A 
ATOM     31  C   UNL     1      17.634  -2.070  22.737  0.00  0.00    +0.001 A 
ATOM     32  C   UNL     1      18.265  -0.957  24.786  0.00  0.00    +0.001 A 
ATOM     33  C   UNL     1      17.663  -0.922  23.528  0.00  0.00    +0.000 A 
ENDBRANCH  21  23
BRANCH  10  15
ATOM      1  O   UNL     1      18.863  -5.296  29.045  0.00  0.00    -0.274 OA
ATOM      8  N   UNL     1      17.064  -3.828  29.211  0.00  0.00    -0.302 N 
ATOM     15  C   UNL     1      17.750  -4.914  28.694  0.00  0.00    +0.236 C 
ATOM     35  H   UNL     1      16.157  -3.587  28.822  0.00  0.00    +0.150 HD
BRANCH   8  14
ATOM      3  O   UNL     1      15.418  -3.171  31.291  0.00  0.00    -0.274 OA
ATOM      9  N   UNL     1      16.587  -1.250  31.688  0.00  0.00    -0.314 N 
ATOM     14  C   UNL     1      17.590  -2.988  30.255  0.00  0.00    +0.159 C 
ATOM     16  C   UNL     1      18.472  -1.891  29.677  0.00  0.00    +0.033 C 
ATOM     17  C   UNL     1      18.868  -0.921  30.779  0.00  0.00    +0.021 C 
ATOM     19  C   UNL     1      17.617  -0.284  31.352  0.00  0.00    +0.104 C 
ATOM     20  C   UNL     1      16.417  -2.479  31.085  0.00  0.00    +0.233 C 
ATOM     36  H   UNL     1      15.835  -0.926  32.289  0.00  0.00    +0.149 HD
ENDBRANCH   8  14
ENDBRANCH  10  15
TORSDOF 5
ENDMDL
MODEL 9
REMARK VINA RESULT:      -5.7     25.275     28.393
REMARK  Name = 40587832
REMARK  6 active torsions:
REMARK  status: ('A' for Active; 'I' for Inactive)
REMARK    1  A    between atoms: O_5  and  C_30
REMARK    2  A    between atoms: O_5  and  C_34
REMARK    3  A    between atoms: N_8  and  C_14
REMARK    4  A    between atoms: C_10  and  C_15
REMARK    5  A    between atoms: C_18  and  C_22
REMARK    6  A    between atoms: C_21  and  C_23
REMARK                            x       y       z     vdW  Elec       q    Type
REMARK                         _______ _______ _______ _____ _____    ______ ____
ROOT
ATOM      2  O   UNL     1      -6.826 -11.743  20.043  0.00  0.00    -0.270 OA
ATOM      4  O   UNL     1     -13.070  -9.633  17.539  0.00  0.00    -0.270 OA
ATOM      6  N   UNL     1      -8.189 -10.762  18.409  0.00  0.00    -0.283 N 
ATOM      7  N   UNL     1     -10.734  -9.606  17.569  0.00  0.00    -0.294 N 
ATOM     10  C   UNL     1      -8.331 -10.130  17.090  0.00  0.00    +0.179 C 
ATOM     11  C   UNL     1      -9.458  -9.097  17.041  0.00  0.00    +0.140 C 
ATOM     12  C   UNL     1      -9.331 -10.661  19.319  0.00  0.00    +0.128 C 
ATOM     13  C   UNL     1     -10.663 -10.654  18.585  0.00  0.00    +0.127 C 
ATOM     18  C   UNL     1      -7.001 -11.321  18.900  0.00  0.00    +0.247 C 
ATOM     21  C   UNL     1     -11.997  -9.187  17.133  0.00  0.00    +0.247 C 
ENDROOT
BRANCH  18  22
ATOM     22  C   UNL     1      -5.856 -11.422  17.988  0.00  0.00    +0.037 A 
ATOM     24  C   UNL     1      -5.546 -12.643  17.390  0.00  0.00    +0.016 A 
ATOM     25  C   UNL     1      -5.077 -10.296  17.719  0.00  0.00    +0.016 A 
ATOM     28  C   UNL     1      -4.457 -12.740  16.523  0.00  0.00    +0.046 A 
ATOM     29  C   UNL     1      -3.988 -10.393  16.853  0.00  0.00    +0.046 A 
ATOM     30  C   UNL     1      -3.678 -11.615  16.254  0.00  0.00    +0.120 A 
BRANCH  30   5
ATOM      5  O   UNL     1      -2.615 -11.708  15.409  0.00  0.00    -0.495 OA
ATOM     34  C   UNL     1      -1.566 -10.757  15.579  0.00  0.00    +0.277 C 
ENDBRANCH  30   5
ENDBRANCH  18  22
BRANCH  21  23
ATOM     23  C   UNL     1     -12.067  -8.126  16.115  0.00  0.00    +0.037 A 
ATOM     26  C   UNL     1     -11.810  -6.802  16.469  0.00  0.00    +0.013 A 
ATOM     27  C   UNL     1     -12.391  -8.445  14.796  0.00  0.00    +0.013 A 
ATOM     31  C   UNL     1     -11.875  -5.796  15.505  0.00  0.00    +0.001 A 
ATOM     32  C   UNL     1     -12.456  -7.440  13.832  0.00  0.00    +0.001 A 
ATOM     33  C   UNL     1     -12.198  -6.116  14.186  0.00  0.00    +0.000 A 
ENDBRANCH  21  23
BRANCH  10  15
ATOM      1  O   UNL     1      -8.960 -12.334  16.411  0.00  0.00    -0.274 OA
ATOM      8  N   UNL     1      -8.323 -10.793  14.786  0.00  0.00    -0.302 N 
ATOM     15  C   UNL     1      -8.584 -11.213  16.080  0.00  0.00    +0.236 C 
ATOM     35  H   UNL     1      -8.043  -9.830  14.627  0.00  0.00    +0.150 HD
BRANCH   8  14
ATOM      3  O   UNL     1      -6.055 -11.673  13.541  0.00  0.00    -0.274 OA
ATOM      9  N   UNL     1      -7.165 -11.913  11.559  0.00  0.00    -0.314 N 
ATOM     14  C   UNL     1      -8.467 -11.648  13.637  0.00  0.00    +0.159 C 
ATOM     16  C   UNL     1      -9.623 -11.190  12.760  0.00  0.00    +0.033 C 
ATOM     17  C   UNL     1      -9.640 -11.998  11.473  0.00  0.00    +0.021 C 
ATOM     19  C   UNL     1      -8.343 -11.765  10.724  0.00  0.00    +0.104 C 
ATOM     20  C   UNL     1      -7.121 -11.705  12.923  0.00  0.00    +0.233 C 
ATOM     36  H   UNL     1      -6.274 -12.011  11.081  0.00  0.00    +0.149 HD
ENDBRANCH   8  14
ENDBRANCH  10  15
TORSDOF 5
ENDMDL
MODEL 10
REMARK VINA RESULT:      -5.6      2.933      4.334
REMARK  Name = 40587832
REMARK  6 active torsions:
REMARK  status: ('A' for Active; 'I' for Inactive)
REMARK    1  A    between atoms: O_5  and  C_30
REMARK    2  A    between atoms: O_5  and  C_34
REMARK    3  A    between atoms: N_8  and  C_14
REMARK    4  A    between atoms: C_10  and  C_15
REMARK    5  A    between atoms: C_18  and  C_22
REMARK    6  A    between atoms: C_21  and  C_23
REMARK                            x       y       z     vdW  Elec       q    Type
REMARK                         _______ _______ _______ _____ _____    ______ ____
ROOT
ATOM      2  O   UNL     1      13.554   5.563   2.129  0.00  0.00    -0.270 OA
ATOM      4  O   UNL     1      10.231   8.552  -3.323  0.00  0.00    -0.270 OA
ATOM      6  N   UNL     1      11.632   6.325   1.028  0.00  0.00    -0.283 N 
ATOM      7  N   UNL     1      10.271   7.253  -1.382  0.00  0.00    -0.294 N 
ATOM     10  C   UNL     1      10.177   6.536   1.017  0.00  0.00    +0.179 C 
ATOM     11  C   UNL     1       9.570   6.432  -0.383  0.00  0.00    +0.140 C 
ATOM     12  C   UNL     1      12.333   6.470  -0.249  0.00  0.00    +0.128 C 
ATOM     13  C   UNL     1      11.691   7.512  -1.152  0.00  0.00    +0.127 C 
ATOM     18  C   UNL     1      12.361   5.863   2.132  0.00  0.00    +0.247 C 
ATOM     21  C   UNL     1       9.663   7.832  -2.502  0.00  0.00    +0.247 C 
ENDROOT
BRANCH  18  22
ATOM     22  C   UNL     1      11.658   5.717   3.412  0.00  0.00    +0.037 A 
ATOM     24  C   UNL     1      11.866   6.647   4.432  0.00  0.00    +0.016 A 
ATOM     25  C   UNL     1      10.781   4.651   3.611  0.00  0.00    +0.016 A 
ATOM     28  C   UNL     1      11.199   6.509   5.649  0.00  0.00    +0.046 A 
ATOM     29  C   UNL     1      10.115   4.513   4.828  0.00  0.00    +0.046 A 
ATOM     30  C   UNL     1      10.323   5.442   5.847  0.00  0.00    +0.120 A 
BRANCH  30   5
ATOM      5  O   UNL     1       9.672   5.307   7.035  0.00  0.00    -0.495 OA
ATOM     34  C   UNL     1       9.487   6.489   7.812  0.00  0.00    +0.277 C 
ENDBRANCH  30   5
ENDBRANCH  18  22
BRANCH  21  23
ATOM     23  C   UNL     1       8.235   7.564  -2.738  0.00  0.00    +0.037 A 
ATOM     26  C   UNL     1       7.266   8.376  -2.150  0.00  0.00    +0.013 A 
ATOM     27  C   UNL     1       7.851   6.496  -3.549  0.00  0.00    +0.013 A 
ATOM     31  C   UNL     1       5.913   8.123  -2.374  0.00  0.00    +0.001 A 
ATOM     32  C   UNL     1       6.498   6.243  -3.773  0.00  0.00    +0.001 A 
ATOM     33  C   UNL     1       5.529   7.056  -3.186  0.00  0.00    +0.000 A 
ENDBRANCH  21  23
BRANCH  10  15
ATOM      1  O   UNL     1      10.773   8.750   1.691  0.00  0.00    -0.274 OA
ATOM      8  N   UNL     1       8.584   8.026   2.010  0.00  0.00    -0.302 N 
ATOM     15  C   UNL     1       9.898   7.894   1.597  0.00  0.00    +0.236 C 
ATOM     35  H   UNL     1       7.938   7.258   1.856  0.00  0.00    +0.150 HD
BRANCH   8  14
ATOM      3  O   UNL     1       8.200   8.035   4.716  0.00  0.00    -0.274 OA
ATOM      9  N   UNL     1       6.575   9.630   4.541  0.00  0.00    -0.314 N 
ATOM     14  C   UNL     1       8.067   9.224   2.620  0.00  0.00    +0.159 C 
ATOM     16  C   UNL     1       6.989   9.854   1.750  0.00  0.00    +0.033 C 
ATOM     17  C   UNL     1       6.342  11.011   2.496  0.00  0.00    +0.021 C 
ATOM     19  C   UNL     1       5.696  10.484   3.763  0.00  0.00    +0.104 C 
ATOM     20  C   UNL     1       7.611   8.874   4.031  0.00  0.00    +0.233 C 
ATOM     36  H   UNL     1       6.300   9.444   5.501  0.00  0.00    +0.149 HD
ENDBRANCH   8  14
ENDBRANCH  10  15
TORSDOF 5
ENDMDL
