MODEL 1
REMARK VINA RESULT:      -7.2      0.000      0.000
REMARK  Name = 7134442
REMARK  15 active torsions:
REMARK  status: ('A' for Active; 'I' for Inactive)
REMARK    1  A    between atoms: O_2  and  C_20
REMARK    2  A    between atoms: O_4  and  C_22
REMARK    3  A    between atoms: O_5  and  C_23
REMARK    4  A    between atoms: O_8  and  C_36
REMARK    5  A    between atoms: O_8  and  C_37
REMARK    6  A    between atoms: N_9  and  C_21
REMARK    7  A    between atoms: N_10  and  C_28
REMARK    8  A    between atoms: C_12  and  C_17
REMARK    9  A    between atoms: C_12  and  C_18
REMARK   10  A    between atoms: C_17  and  C_19
REMARK   11  A    between atoms: C_18  and  C_20
REMARK   12  A    between atoms: C_26  and  C_27
REMARK   13  A    between atoms: C_28  and  C_29
REMARK   14  A    between atoms: C_28  and  C_30
REMARK   15  A    between atoms: C_29  and  C_31
REMARK                            x       y       z     vdW  Elec       q    Type
REMARK                         _______ _______ _______ _____ _____    ______ ____
ROOT
ATOM     21  C   UNL     1      11.858   8.416  22.181  0.00  0.00    +0.127 C 
ATOM     22  C   UNL     1      10.860   7.647  21.295  0.00  0.00    +0.167 C 
ATOM     23  C   UNL     1      11.492   6.378  20.710  0.00  0.00    +0.149 C 
ATOM     24  C   UNL     1      13.232   8.524  21.575  0.00  0.00    +0.006 C 
ATOM     25  C   UNL     1      12.778   6.681  19.923  0.00  0.00    +0.074 C 
ATOM     26  C   UNL     1      13.628   7.745  20.558  0.00  0.00    +0.015 C 
ENDROOT
BRANCH  21   9
ATOM      1  O   UNL     1      12.199  10.818  20.601  0.00  0.00    -0.276 OA
ATOM      9  N   UNL     1      11.382   9.742  22.492  0.00  0.00    -0.306 N 
ATOM     19  C   UNL     1      11.595  10.841  21.670  0.00  0.00    +0.214 C 
ATOM     38  H   UNL     1      10.805   9.847  23.322  0.00  0.00    +0.149 HD
BRANCH  19  17
ATOM     17  C   UNL     1      10.979  12.100  22.249  0.00  0.00    +0.103 C 
BRANCH  17  12
ATOM     12  C   UNL     1      12.007  12.983  22.962  0.00  0.00    -0.011 C 
ATOM     13  C   UNL     1      12.323  14.248  22.154  0.00  0.00    +0.008 C 
ATOM     14  C   UNL     1      13.382  12.306  23.032  0.00  0.00    +0.008 C 
ATOM     15  C   UNL     1      13.699  14.698  22.641  0.00  0.00    +0.001 C 
ATOM     16  C   UNL     1      14.379  13.450  23.204  0.00  0.00    +0.001 C 
BRANCH  12  18
ATOM     18  C   UNL     1      11.485  13.335  24.366  0.00  0.00    +0.127 C 
BRANCH  18  20
ATOM      3  O   UNL     1      11.192  11.117  25.335  0.00  0.00    -0.251 OA
ATOM     20  C   UNL     1      11.728  12.214  25.335  0.00  0.00    +0.305 C 
BRANCH  20   2
ATOM      2  O   UNL     1      12.661  12.600  26.244  0.00  0.00    -0.481 OA
ATOM     39  H   UNL     1      13.277  11.870  26.467  0.00  0.00    +0.295 HD
ENDBRANCH  20   2
ENDBRANCH  18  20
ENDBRANCH  12  18
ENDBRANCH  17  12
ENDBRANCH  19  17
ENDBRANCH  21   9
BRANCH  26  27
ATOM      6  O   UNL     1      15.276   8.913  19.357  0.00  0.00    -0.271 OA
ATOM     10  N   UNL     1      15.854   6.925  20.428  0.00  0.00    -0.300 N 
ATOM     27  C   UNL     1      14.989   7.936  20.048  0.00  0.00    +0.241 C 
ATOM     42  H   UNL     1      15.485   6.120  20.927  0.00  0.00    +0.150 HD
BRANCH  10  28
ATOM     28  C   UNL     1      17.248   6.892  20.046  0.00  0.00    +0.163 C 
BRANCH  28  30
ATOM      7  O   UNL     1      16.570   5.556  18.132  0.00  0.00    -0.274 OA
ATOM     11  N   UNL     1      18.598   5.115  19.117  0.00  0.00    -0.328 N 
ATOM     30  C   UNL     1      17.401   5.791  19.007  0.00  0.00    +0.231 C 
ATOM     43  H   UNL     1      18.834   4.365  18.475  0.00  0.00    +0.145 HD
ATOM     44  H   UNL     1      19.278   5.323  19.842  0.00  0.00    +0.145 HD
ENDBRANCH  28  30
BRANCH  28  29
ATOM     29  C   UNL     1      18.172   6.631  21.241  0.00  0.00    +0.067 C 
BRANCH  29  31
ATOM     31  C   UNL     1      19.114   7.779  21.511  0.00  0.00    -0.045 A 
ATOM     32  C   UNL     1      20.447   7.523  21.837  0.00  0.00    +0.007 A 
ATOM     33  C   UNL     1      18.653   9.093  21.435  0.00  0.00    +0.007 A 
ATOM     34  C   UNL     1      21.319   8.584  22.087  0.00  0.00    +0.046 A 
ATOM     35  C   UNL     1      19.525  10.153  21.686  0.00  0.00    +0.046 A 
ATOM     36  C   UNL     1      20.858   9.899  22.012  0.00  0.00    +0.120 A 
BRANCH  36   8
ATOM      8  O   UNL     1      21.707  10.933  22.256  0.00  0.00    -0.495 OA
ATOM     37  C   UNL     1      23.086  10.613  22.434  0.00  0.00    +0.277 C 
ENDBRANCH  36   8
ENDBRANCH  29  31
ENDBRANCH  28  29
ENDBRANCH  10  28
ENDBRANCH  26  27
BRANCH  22   4
ATOM      4  O   UNL     1      10.429   8.483  20.220  0.00  0.00    -0.387 OA
ATOM     40  H   UNL     1       9.464   8.390  20.144  0.00  0.00    +0.210 HD
ENDBRANCH  22   4
BRANCH  23   5
ATOM      5  O   UNL     1      11.763   5.440  21.749  0.00  0.00    -0.389 OA
ATOM     41  H   UNL     1      12.014   4.599  21.329  0.00  0.00    +0.210 HD
ENDBRANCH  23   5
TORSDOF 14
ENDMDL
MODEL 2
REMARK VINA RESULT:      -7.0     16.354     19.285
REMARK  Name = 7134442
REMARK  15 active torsions:
REMARK  status: ('A' for Active; 'I' for Inactive)
REMARK    1  A    between atoms: O_2  and  C_20
REMARK    2  A    between atoms: O_4  and  C_22
REMARK    3  A    between atoms: O_5  and  C_23
REMARK    4  A    between atoms: O_8  and  C_36
REMARK    5  A    between atoms: O_8  and  C_37
REMARK    6  A    between atoms: N_9  and  C_21
REMARK    7  A    between atoms: N_10  and  C_28
REMARK    8  A    between atoms: C_12  and  C_17
REMARK    9  A    between atoms: C_12  and  C_18
REMARK   10  A    between atoms: C_17  and  C_19
REMARK   11  A    between atoms: C_18  and  C_20
REMARK   12  A    between atoms: C_26  and  C_27
REMARK   13  A    between atoms: C_28  and  C_29
REMARK   14  A    between atoms: C_28  and  C_30
REMARK   15  A    between atoms: C_29  and  C_31
REMARK                            x       y       z     vdW  Elec       q    Type
REMARK                         _______ _______ _______ _____ _____    ______ ____
ROOT
ATOM     21  C   UNL     1      13.361   8.271   5.807  0.00  0.00    +0.127 C 
ATOM     22  C   UNL     1      14.740   7.908   6.389  0.00  0.00    +0.167 C 
ATOM     23  C   UNL     1      15.844   8.020   5.331  0.00  0.00    +0.149 C 
ATOM     24  C   UNL     1      13.107   7.664   4.453  0.00  0.00    +0.006 C 
ATOM     25  C   UNL     1      15.546   7.160   4.091  0.00  0.00    +0.074 C 
ATOM     26  C   UNL     1      14.096   7.162   3.698  0.00  0.00    +0.015 C 
ENDROOT
BRANCH  21   9
ATOM      1  O   UNL     1      10.848   9.647   6.214  0.00  0.00    -0.276 OA
ATOM      9  N   UNL     1      12.290   7.890   6.696  0.00  0.00    -0.306 N 
ATOM     19  C   UNL     1      11.114   8.617   6.826  0.00  0.00    +0.214 C 
ATOM     38  H   UNL     1      12.387   7.008   7.191  0.00  0.00    +0.149 HD
BRANCH  19  17
ATOM     17  C   UNL     1      10.171   7.979   7.829  0.00  0.00    +0.103 C 
BRANCH  17  12
ATOM     12  C   UNL     1       9.375   6.817   7.231  0.00  0.00    -0.011 C 
ATOM     13  C   UNL     1      10.213   6.015   6.227  0.00  0.00    +0.008 C 
ATOM     14  C   UNL     1       8.223   7.316   6.348  0.00  0.00    +0.008 C 
ATOM     15  C   UNL     1       9.195   5.320   5.325  0.00  0.00    +0.001 C 
ATOM     16  C   UNL     1       7.917   6.155   5.402  0.00  0.00    +0.001 C 
BRANCH  12  18
ATOM     18  C   UNL     1       8.858   5.919   8.368  0.00  0.00    +0.127 C 
BRANCH  18  20
ATOM      3  O   UNL     1      10.844   5.452   9.704  0.00  0.00    -0.251 OA
ATOM     20  C   UNL     1       9.961   5.080   8.945  0.00  0.00    +0.305 C 
BRANCH  20   2
ATOM      2  O   UNL     1       9.840   3.805   8.494  0.00  0.00    -0.481 OA
ATOM     39  H   UNL     1       9.143   3.312   8.976  0.00  0.00    +0.295 HD
ENDBRANCH  20   2
ENDBRANCH  18  20
ENDBRANCH  12  18
ENDBRANCH  17  12
ENDBRANCH  19  17
ENDBRANCH  21   9
BRANCH  26  27
ATOM      6  O   UNL     1      14.057   7.157   1.349  0.00  0.00    -0.271 OA
ATOM     10  N   UNL     1      13.013   5.419   2.500  0.00  0.00    -0.300 N 
ATOM     27  C   UNL     1      13.732   6.597   2.395  0.00  0.00    +0.241 C 
ATOM     42  H   UNL     1      12.726   5.096   3.420  0.00  0.00    +0.150 HD
BRANCH  10  28
ATOM     28  C   UNL     1      12.541   4.677   1.353  0.00  0.00    +0.163 C 
BRANCH  28  30
ATOM      7  O   UNL     1      10.235   4.031   0.942  0.00  0.00    -0.274 OA
ATOM     11  N   UNL     1      11.140   3.616   3.013  0.00  0.00    -0.328 N 
ATOM     30  C   UNL     1      11.182   4.101   1.722  0.00  0.00    +0.231 C 
ATOM     43  H   UNL     1      10.295   3.191   3.382  0.00  0.00    +0.145 HD
ATOM     44  H   UNL     1      11.931   3.677   3.645  0.00  0.00    +0.145 HD
ENDBRANCH  28  30
BRANCH  28  29
ATOM     29  C   UNL     1      13.505   3.556   0.949  0.00  0.00    +0.067 C 
BRANCH  29  31
ATOM     31  C   UNL     1      14.443   3.964  -0.161  0.00  0.00    -0.045 A 
ATOM     32  C   UNL     1      15.802   4.134   0.103  0.00  0.00    +0.007 A 
ATOM     33  C   UNL     1      13.950   4.172  -1.450  0.00  0.00    +0.007 A 
ATOM     34  C   UNL     1      16.669   4.511  -0.923  0.00  0.00    +0.046 A 
ATOM     35  C   UNL     1      14.817   4.549  -2.475  0.00  0.00    +0.046 A 
ATOM     36  C   UNL     1      16.177   4.719  -2.212  0.00  0.00    +0.120 A 
BRANCH  36   8
ATOM      8  O   UNL     1      17.021   5.087  -3.213  0.00  0.00    -0.495 OA
ATOM     37  C   UNL     1      18.273   4.406  -3.290  0.00  0.00    +0.277 C 
ENDBRANCH  36   8
ENDBRANCH  29  31
ENDBRANCH  28  29
ENDBRANCH  10  28
ENDBRANCH  26  27
BRANCH  22   4
ATOM      4  O   UNL     1      14.714   6.568   6.885  0.00  0.00    -0.387 OA
ATOM     40  H   UNL     1      15.345   6.048   6.360  0.00  0.00    +0.210 HD
ENDBRANCH  22   4
BRANCH  23   5
ATOM      5  O   UNL     1      16.022   9.383   4.950  0.00  0.00    -0.389 OA
ATOM     41  H   UNL     1      16.360   9.863   5.725  0.00  0.00    +0.210 HD
ENDBRANCH  23   5
TORSDOF 14
ENDMDL
MODEL 3
REMARK VINA RESULT:      -6.9     17.920     20.909
REMARK  Name = 7134442
REMARK  15 active torsions:
REMARK  status: ('A' for Active; 'I' for Inactive)
REMARK    1  A    between atoms: O_2  and  C_20
REMARK    2  A    between atoms: O_4  and  C_22
REMARK    3  A    between atoms: O_5  and  C_23
REMARK    4  A    between atoms: O_8  and  C_36
REMARK    5  A    between atoms: O_8  and  C_37
REMARK    6  A    between atoms: N_9  and  C_21
REMARK    7  A    between atoms: N_10  and  C_28
REMARK    8  A    between atoms: C_12  and  C_17
REMARK    9  A    between atoms: C_12  and  C_18
REMARK   10  A    between atoms: C_17  and  C_19
REMARK   11  A    between atoms: C_18  and  C_20
REMARK   12  A    between atoms: C_26  and  C_27
REMARK   13  A    between atoms: C_28  and  C_29
REMARK   14  A    between atoms: C_28  and  C_30
REMARK   15  A    between atoms: C_29  and  C_31
REMARK                            x       y       z     vdW  Elec       q    Type
REMARK                         _______ _______ _______ _____ _____    ______ ____
ROOT
ATOM     21  C   UNL     1       9.685   7.396   3.185  0.00  0.00    +0.127 C 
ATOM     22  C   UNL     1      10.184   8.633   2.415  0.00  0.00    +0.167 C 
ATOM     23  C   UNL     1      10.512   8.292   0.956  0.00  0.00    +0.149 C 
ATOM     24  C   UNL     1      10.498   6.158   2.913  0.00  0.00    +0.006 C 
ATOM     25  C   UNL     1      11.534   7.148   0.845  0.00  0.00    +0.074 C 
ATOM     26  C   UNL     1      11.328   6.064   1.864  0.00  0.00    +0.015 C 
ENDROOT
BRANCH  21   9
ATOM      1  O   UNL     1       7.802   6.320   5.101  0.00  0.00    -0.276 OA
ATOM      9  N   UNL     1       9.657   7.630   4.609  0.00  0.00    -0.306 N 
ATOM     19  C   UNL     1       8.709   7.069   5.453  0.00  0.00    +0.214 C 
ATOM     38  H   UNL     1      10.414   8.179   5.006  0.00  0.00    +0.149 HD
BRANCH  19  17
ATOM     17  C   UNL     1       8.926   7.488   6.895  0.00  0.00    +0.103 C 
BRANCH  17  12
ATOM     12  C   UNL     1       9.678   6.433   7.708  0.00  0.00    -0.011 C 
ATOM     13  C   UNL     1       9.779   5.102   6.951  0.00  0.00    +0.008 C 
ATOM     14  C   UNL     1       8.893   6.019   8.961  0.00  0.00    +0.008 C 
ATOM     15  C   UNL     1       9.994   4.045   8.032  0.00  0.00    +0.001 C 
ATOM     16  C   UNL     1       9.424   4.634   9.323  0.00  0.00    +0.001 C 
BRANCH  12  18
ATOM     18  C   UNL     1      11.071   6.972   8.074  0.00  0.00    +0.127 C 
BRANCH  18  20
ATOM      3  O   UNL     1      12.093   6.897   5.862  0.00  0.00    -0.251 OA
ATOM     20  C   UNL     1      12.093   6.588   7.044  0.00  0.00    +0.305 C 
BRANCH  20   2
ATOM      2  O   UNL     1      13.053   5.824   7.625  0.00  0.00    -0.481 OA
ATOM     39  H   UNL     1      12.760   4.896   7.743  0.00  0.00    +0.295 HD
ENDBRANCH  20   2
ENDBRANCH  18  20
ENDBRANCH  12  18
ENDBRANCH  17  12
ENDBRANCH  19  17
ENDBRANCH  21   9
BRANCH  26  27
ATOM      6  O   UNL     1      11.890   3.862   2.461  0.00  0.00    -0.271 OA
ATOM     10  N   UNL     1      12.944   4.839   0.626  0.00  0.00    -0.300 N 
ATOM     27  C   UNL     1      12.068   4.810   1.697  0.00  0.00    +0.241 C 
ATOM     42  H   UNL     1      13.073   5.709   0.116  0.00  0.00    +0.150 HD
BRANCH  10  28
ATOM     28  C   UNL     1      13.785   3.721   0.262  0.00  0.00    +0.163 C 
BRANCH  28  30
ATOM      7  O   UNL     1      16.075   4.532   0.325  0.00  0.00    -0.274 OA
ATOM     11  N   UNL     1      15.217   3.515   2.198  0.00  0.00    -0.328 N 
ATOM     30  C   UNL     1      15.148   3.961   0.895  0.00  0.00    +0.231 C 
ATOM     43  H   UNL     1      16.067   3.627   2.742  0.00  0.00    +0.145 HD
ATOM     44  H   UNL     1      14.442   3.048   2.658  0.00  0.00    +0.145 HD
ENDBRANCH  28  30
BRANCH  28  29
ATOM     29  C   UNL     1      13.921   3.567  -1.257  0.00  0.00    +0.067 C 
BRANCH  29  31
ATOM     31  C   UNL     1      12.588   3.552  -1.964  0.00  0.00    -0.045 A 
ATOM     32  C   UNL     1      11.968   4.754  -2.307  0.00  0.00    +0.007 A 
ATOM     33  C   UNL     1      11.977   2.337  -2.275  0.00  0.00    +0.007 A 
ATOM     34  C   UNL     1      10.735   4.740  -2.961  0.00  0.00    +0.046 A 
ATOM     35  C   UNL     1      10.745   2.324  -2.929  0.00  0.00    +0.046 A 
ATOM     36  C   UNL     1      10.124   3.525  -3.272  0.00  0.00    +0.120 A 
BRANCH  36   8
ATOM      8  O   UNL     1       8.922   3.512  -3.909  0.00  0.00    -0.495 OA
ATOM     37  C   UNL     1       8.592   4.653  -4.698  0.00  0.00    +0.277 C 
ENDBRANCH  36   8
ENDBRANCH  29  31
ENDBRANCH  28  29
ENDBRANCH  10  28
ENDBRANCH  26  27
BRANCH  22   4
ATOM      4  O   UNL     1      11.360   9.147   3.042  0.00  0.00    -0.387 OA
ATOM     40  H   UNL     1      12.127   8.808   2.550  0.00  0.00    +0.210 HD
ENDBRANCH  22   4
BRANCH  23   5
ATOM      5  O   UNL     1       9.319   7.954   0.251  0.00  0.00    -0.389 OA
ATOM     41  H   UNL     1       8.978   8.767  -0.159  0.00  0.00    +0.210 HD
ENDBRANCH  23   5
TORSDOF 14
ENDMDL
MODEL 4
REMARK VINA RESULT:      -6.8      1.939      2.807
REMARK  Name = 7134442
REMARK  15 active torsions:
REMARK  status: ('A' for Active; 'I' for Inactive)
REMARK    1  A    between atoms: O_2  and  C_20
REMARK    2  A    between atoms: O_4  and  C_22
REMARK    3  A    between atoms: O_5  and  C_23
REMARK    4  A    between atoms: O_8  and  C_36
REMARK    5  A    between atoms: O_8  and  C_37
REMARK    6  A    between atoms: N_9  and  C_21
REMARK    7  A    between atoms: N_10  and  C_28
REMARK    8  A    between atoms: C_12  and  C_17
REMARK    9  A    between atoms: C_12  and  C_18
REMARK   10  A    between atoms: C_17  and  C_19
REMARK   11  A    between atoms: C_18  and  C_20
REMARK   12  A    between atoms: C_26  and  C_27
REMARK   13  A    between atoms: C_28  and  C_29
REMARK   14  A    between atoms: C_28  and  C_30
REMARK   15  A    between atoms: C_29  and  C_31
REMARK                            x       y       z     vdW  Elec       q    Type
REMARK                         _______ _______ _______ _____ _____    ______ ____
ROOT
ATOM     21  C   UNL     1      11.875   8.362  22.183  0.00  0.00    +0.127 C 
ATOM     22  C   UNL     1      10.854   7.605  21.314  0.00  0.00    +0.167 C 
ATOM     23  C   UNL     1      11.453   6.315  20.740  0.00  0.00    +0.149 C 
ATOM     24  C   UNL     1      13.246   8.433  21.567  0.00  0.00    +0.006 C 
ATOM     25  C   UNL     1      12.740   6.581  19.940  0.00  0.00    +0.074 C 
ATOM     26  C   UNL     1      13.618   7.633  20.556  0.00  0.00    +0.015 C 
ENDROOT
BRANCH  21   9
ATOM      1  O   UNL     1      12.225  10.731  20.557  0.00  0.00    -0.276 OA
ATOM      9  N   UNL     1      11.429   9.702  22.482  0.00  0.00    -0.306 N 
ATOM     19  C   UNL     1      11.645  10.782  21.637  0.00  0.00    +0.214 C 
ATOM     38  H   UNL     1      10.872   9.831  23.322  0.00  0.00    +0.149 HD
BRANCH  19  17
ATOM     17  C   UNL     1      11.065  12.063  22.208  0.00  0.00    +0.103 C 
BRANCH  17  12
ATOM     12  C   UNL     1      12.112  12.911  22.933  0.00  0.00    -0.011 C 
ATOM     13  C   UNL     1      12.511  14.143  22.110  0.00  0.00    +0.008 C 
ATOM     14  C   UNL     1      13.451  12.172  23.057  0.00  0.00    +0.008 C 
ATOM     15  C   UNL     1      13.892  14.537  22.629  0.00  0.00    +0.001 C 
ATOM     16  C   UNL     1      14.497  13.271  23.237  0.00  0.00    +0.001 C 
BRANCH  12  18
ATOM     18  C   UNL     1      11.568  13.316  24.314  0.00  0.00    +0.127 C 
BRANCH  18  20
ATOM      3  O   UNL     1      11.175  11.127  25.314  0.00  0.00    -0.251 OA
ATOM     20  C   UNL     1      11.741  12.210  25.314  0.00  0.00    +0.305 C 
BRANCH  20   2
ATOM      2  O   UNL     1      12.644  12.590  26.254  0.00  0.00    -0.481 OA
ATOM     39  H   UNL     1      12.839  11.867  26.887  0.00  0.00    +0.295 HD
ENDBRANCH  20   2
ENDBRANCH  18  20
ENDBRANCH  12  18
ENDBRANCH  17  12
ENDBRANCH  19  17
ENDBRANCH  21   9
BRANCH  26  27
ATOM      6  O   UNL     1      15.214   7.677  18.832  0.00  0.00    -0.271 OA
ATOM     10  N   UNL     1      15.907   8.060  21.024  0.00  0.00    -0.300 N 
ATOM     27  C   UNL     1      14.979   7.789  20.035  0.00  0.00    +0.241 C 
ATOM     42  H   UNL     1      15.612   8.043  21.997  0.00  0.00    +0.150 HD
BRANCH  10  28
ATOM     28  C   UNL     1      17.314   8.252  20.757  0.00  0.00    +0.163 C 
BRANCH  28  30
ATOM      7  O   UNL     1      18.020   5.960  20.361  0.00  0.00    -0.274 OA
ATOM     11  N   UNL     1      18.695   7.000  22.295  0.00  0.00    -0.328 N 
ATOM     30  C   UNL     1      18.017   6.946  21.096  0.00  0.00    +0.231 C 
ATOM     43  H   UNL     1      19.220   6.199  22.633  0.00  0.00    +0.145 HD
ATOM     44  H   UNL     1      18.688   7.822  22.891  0.00  0.00    +0.145 HD
ENDBRANCH  28  30
BRANCH  28  29
ATOM     29  C   UNL     1      17.909   9.406  21.572  0.00  0.00    +0.067 C 
BRANCH  29  31
ATOM     31  C   UNL     1      17.778  10.740  20.878  0.00  0.00    -0.045 A 
ATOM     32  C   UNL     1      16.528  11.349  20.770  0.00  0.00    +0.007 A 
ATOM     33  C   UNL     1      18.907  11.362  20.344  0.00  0.00    +0.007 A 
ATOM     34  C   UNL     1      16.406  12.582  20.128  0.00  0.00    +0.046 A 
ATOM     35  C   UNL     1      18.785  12.595  19.702  0.00  0.00    +0.046 A 
ATOM     36  C   UNL     1      17.535  13.205  19.594  0.00  0.00    +0.120 A 
BRANCH  36   8
ATOM      8  O   UNL     1      17.417  14.407  18.968  0.00  0.00    -0.495 OA
ATOM     37  C   UNL     1      16.195  15.119  19.154  0.00  0.00    +0.277 C 
ENDBRANCH  36   8
ENDBRANCH  29  31
ENDBRANCH  28  29
ENDBRANCH  10  28
ENDBRANCH  26  27
BRANCH  22   4
ATOM      4  O   UNL     1      10.432   8.437  20.232  0.00  0.00    -0.387 OA
ATOM     40  H   UNL     1       9.794   7.930  19.702  0.00  0.00    +0.210 HD
ENDBRANCH  22   4
BRANCH  23   5
ATOM      5  O   UNL     1      11.712   5.384  21.788  0.00  0.00    -0.389 OA
ATOM     41  H   UNL     1      10.911   4.847  21.909  0.00  0.00    +0.210 HD
ENDBRANCH  23   5
TORSDOF 14
ENDMDL
MODEL 5
REMARK VINA RESULT:      -6.8     15.961     19.064
REMARK  Name = 7134442
REMARK  15 active torsions:
REMARK  status: ('A' for Active; 'I' for Inactive)
REMARK    1  A    between atoms: O_2  and  C_20
REMARK    2  A    between atoms: O_4  and  C_22
REMARK    3  A    between atoms: O_5  and  C_23
REMARK    4  A    between atoms: O_8  and  C_36
REMARK    5  A    between atoms: O_8  and  C_37
REMARK    6  A    between atoms: N_9  and  C_21
REMARK    7  A    between atoms: N_10  and  C_28
REMARK    8  A    between atoms: C_12  and  C_17
REMARK    9  A    between atoms: C_12  and  C_18
REMARK   10  A    between atoms: C_17  and  C_19
REMARK   11  A    between atoms: C_18  and  C_20
REMARK   12  A    between atoms: C_26  and  C_27
REMARK   13  A    between atoms: C_28  and  C_29
REMARK   14  A    between atoms: C_28  and  C_30
REMARK   15  A    between atoms: C_29  and  C_31
REMARK                            x       y       z     vdW  Elec       q    Type
REMARK                         _______ _______ _______ _____ _____    ______ ____
ROOT
ATOM     21  C   UNL     1      10.317   5.760   4.500  0.00  0.00    +0.127 C 
ATOM     22  C   UNL     1       9.544   5.065   5.636  0.00  0.00    +0.167 C 
ATOM     23  C   UNL     1       9.554   5.905   6.919  0.00  0.00    +0.149 C 
ATOM     24  C   UNL     1      11.627   6.352   4.946  0.00  0.00    +0.006 C 
ATOM     25  C   UNL     1      10.983   6.244   7.377  0.00  0.00    +0.074 C 
ATOM     26  C   UNL     1      11.915   6.557   6.240  0.00  0.00    +0.015 C 
ENDROOT
BRANCH  21   9
ATOM      1  O   UNL     1      10.023   6.329   1.677  0.00  0.00    -0.276 OA
ATOM      9  N   UNL     1      10.564   4.863   3.397  0.00  0.00    -0.306 N 
ATOM     19  C   UNL     1      10.394   5.226   2.067  0.00  0.00    +0.214 C 
ATOM     38  H   UNL     1      10.947   3.948   3.617  0.00  0.00    +0.149 HD
BRANCH  19  17
ATOM     17  C   UNL     1      10.730   4.083   1.128  0.00  0.00    +0.103 C 
BRANCH  17  12
ATOM     12  C   UNL     1      12.212   4.048   0.750  0.00  0.00    -0.011 C 
ATOM     13  C   UNL     1      13.000   3.077   1.639  0.00  0.00    +0.008 C 
ATOM     14  C   UNL     1      12.905   5.382   1.056  0.00  0.00    +0.008 C 
ATOM     15  C   UNL     1      14.448   3.556   1.567  0.00  0.00    +0.001 C 
ATOM     16  C   UNL     1      14.387   5.038   1.193  0.00  0.00    +0.001 C 
BRANCH  12  18
ATOM     18  C   UNL     1      12.347   3.677  -0.737  0.00  0.00    +0.127 C 
BRANCH  18  20
ATOM      3  O   UNL     1      11.114   5.517  -1.755  0.00  0.00    -0.251 OA
ATOM     20  C   UNL     1      11.270   4.321  -1.560  0.00  0.00    +0.305 C 
BRANCH  20   2
ATOM      2  O   UNL     1      10.463   3.359  -2.078  0.00  0.00    -0.481 OA
ATOM     39  H   UNL     1      10.431   3.398  -3.057  0.00  0.00    +0.295 HD
ENDBRANCH  20   2
ENDBRANCH  18  20
ENDBRANCH  12  18
ENDBRANCH  17  12
ENDBRANCH  19  17
ENDBRANCH  21   9
BRANCH  26  27
ATOM      6  O   UNL     1      14.017   6.554   7.290  0.00  0.00    -0.271 OA
ATOM     10  N   UNL     1      13.420   8.373   5.961  0.00  0.00    -0.300 N 
ATOM     27  C   UNL     1      13.221   7.141   6.559  0.00  0.00    +0.241 C 
ATOM     42  H   UNL     1      12.656   8.803   5.446  0.00  0.00    +0.150 HD
BRANCH  10  28
ATOM     28  C   UNL     1      14.630   9.146   6.128  0.00  0.00    +0.163 C 
BRANCH  28  30
ATOM      7  O   UNL     1      13.114  11.029   6.377  0.00  0.00    -0.274 OA
ATOM     11  N   UNL     1      15.187  11.149   7.361  0.00  0.00    -0.328 N 
ATOM     30  C   UNL     1      14.214  10.531   6.603  0.00  0.00    +0.231 C 
ATOM     43  H   UNL     1      15.032  12.073   7.753  0.00  0.00    +0.145 HD
ATOM     44  H   UNL     1      16.090  10.724   7.543  0.00  0.00    +0.145 HD
ENDBRANCH  28  30
BRANCH  28  29
ATOM     29  C   UNL     1      15.439   9.247   4.830  0.00  0.00    +0.067 C 
BRANCH  29  31
ATOM     31  C   UNL     1      16.878   8.830   5.004  0.00  0.00    -0.045 A 
ATOM     32  C   UNL     1      17.506   8.995   6.239  0.00  0.00    +0.007 A 
ATOM     33  C   UNL     1      17.581   8.281   3.932  0.00  0.00    +0.007 A 
ATOM     34  C   UNL     1      18.838   8.609   6.401  0.00  0.00    +0.046 A 
ATOM     35  C   UNL     1      18.911   7.896   4.093  0.00  0.00    +0.046 A 
ATOM     36  C   UNL     1      19.540   8.060   5.328  0.00  0.00    +0.120 A 
BRANCH  36   8
ATOM      8  O   UNL     1      20.838   7.684   5.485  0.00  0.00    -0.495 OA
ATOM     37  C   UNL     1      21.326   6.657   4.625  0.00  0.00    +0.277 C 
ENDBRANCH  36   8
ENDBRANCH  29  31
ENDBRANCH  28  29
ENDBRANCH  10  28
ENDBRANCH  26  27
BRANCH  22   4
ATOM      4  O   UNL     1      10.136   3.795   5.914  0.00  0.00    -0.387 OA
ATOM     40  H   UNL     1      10.815   3.633   5.237  0.00  0.00    +0.210 HD
ENDBRANCH  22   4
BRANCH  23   5
ATOM      5  O   UNL     1       8.805   7.103   6.727  0.00  0.00    -0.389 OA
ATOM     41  H   UNL     1       9.032   7.711   7.451  0.00  0.00    +0.210 HD
ENDBRANCH  23   5
TORSDOF 14
ENDMDL
MODEL 6
REMARK VINA RESULT:      -6.7     17.100     20.583
REMARK  Name = 7134442
REMARK  15 active torsions:
REMARK  status: ('A' for Active; 'I' for Inactive)
REMARK    1  A    between atoms: O_2  and  C_20
REMARK    2  A    between atoms: O_4  and  C_22
REMARK    3  A    between atoms: O_5  and  C_23
REMARK    4  A    between atoms: O_8  and  C_36
REMARK    5  A    between atoms: O_8  and  C_37
REMARK    6  A    between atoms: N_9  and  C_21
REMARK    7  A    between atoms: N_10  and  C_28
REMARK    8  A    between atoms: C_12  and  C_17
REMARK    9  A    between atoms: C_12  and  C_18
REMARK   10  A    between atoms: C_17  and  C_19
REMARK   11  A    between atoms: C_18  and  C_20
REMARK   12  A    between atoms: C_26  and  C_27
REMARK   13  A    between atoms: C_28  and  C_29
REMARK   14  A    between atoms: C_28  and  C_30
REMARK   15  A    between atoms: C_29  and  C_31
REMARK                            x       y       z     vdW  Elec       q    Type
REMARK                         _______ _______ _______ _____ _____    ______ ____
ROOT
ATOM     21  C   UNL     1      12.487   6.092   3.023  0.00  0.00    +0.127 C 
ATOM     22  C   UNL     1      13.597   7.058   2.569  0.00  0.00    +0.167 C 
ATOM     23  C   UNL     1      14.608   7.320   3.692  0.00  0.00    +0.149 C 
ATOM     24  C   UNL     1      11.954   6.401   4.395  0.00  0.00    +0.006 C 
ATOM     25  C   UNL     1      13.931   7.849   4.968  0.00  0.00    +0.074 C 
ATOM     26  C   UNL     1      12.608   7.197   5.255  0.00  0.00    +0.015 C 
ENDROOT
BRANCH  21   9
ATOM      1  O   UNL     1      11.585   3.851   1.429  0.00  0.00    -0.276 OA
ATOM      9  N   UNL     1      11.386   6.070   2.090  0.00  0.00    -0.306 N 
ATOM     19  C   UNL     1      11.025   4.942   1.365  0.00  0.00    +0.214 C 
ATOM     38  H   UNL     1      10.815   6.908   2.023  0.00  0.00    +0.149 HD
BRANCH  19  17
ATOM     17  C   UNL     1       9.832   5.212   0.467  0.00  0.00    +0.103 C 
BRANCH  17  12
ATOM     12  C   UNL     1      10.242   5.633  -0.946  0.00  0.00    -0.011 C 
ATOM     13  C   UNL     1       9.091   5.455  -1.945  0.00  0.00    +0.008 C 
ATOM     14  C   UNL     1      11.307   4.694  -1.529  0.00  0.00    +0.008 C 
ATOM     15  C   UNL     1       9.764   5.339  -3.311  0.00  0.00    +0.001 C 
ATOM     16  C   UNL     1      11.187   4.850  -3.044  0.00  0.00    +0.001 C 
BRANCH  12  18
ATOM     18  C   UNL     1      10.736   7.089  -0.918  0.00  0.00    +0.127 C 
BRANCH  18  20
ATOM      3  O   UNL     1       8.631   8.302  -0.706  0.00  0.00    -0.251 OA
ATOM     20  C   UNL     1       9.729   7.994  -0.269  0.00  0.00    +0.305 C 
BRANCH  20   2
ATOM      2  O   UNL     1      10.222   8.440   0.916  0.00  0.00    -0.481 OA
ATOM     39  H   UNL     1       9.546   8.414   1.626  0.00  0.00    +0.295 HD
ENDBRANCH  20   2
ENDBRANCH  18  20
ENDBRANCH  12  18
ENDBRANCH  17  12
ENDBRANCH  19  17
ENDBRANCH  21   9
BRANCH  26  27
ATOM      6  O   UNL     1      12.338   8.376   7.269  0.00  0.00    -0.271 OA
ATOM     10  N   UNL     1      11.037   6.480   6.887  0.00  0.00    -0.300 N 
ATOM     27  C   UNL     1      11.995   7.426   6.566  0.00  0.00    +0.241 C 
ATOM     42  H   UNL     1      10.898   5.687   6.266  0.00  0.00    +0.150 HD
BRANCH  10  28
ATOM     28  C   UNL     1      10.296   6.494   8.127  0.00  0.00    +0.163 C 
BRANCH  28  30
ATOM      7  O   UNL     1      10.108   4.747   9.806  0.00  0.00    -0.274 OA
ATOM     11  N   UNL     1      10.251   4.137   7.596  0.00  0.00    -0.328 N 
ATOM     30  C   UNL     1      10.224   5.057   8.622  0.00  0.00    +0.231 C 
ATOM     43  H   UNL     1      10.195   3.141   7.787  0.00  0.00    +0.145 HD
ATOM     44  H   UNL     1      10.343   4.407   6.622  0.00  0.00    +0.145 HD
ENDBRANCH  28  30
BRANCH  28  29
ATOM     29  C   UNL     1       8.887   7.072   7.956  0.00  0.00    +0.067 C 
BRANCH  29  31
ATOM     31  C   UNL     1       8.620   7.554   6.551  0.00  0.00    -0.045 A 
ATOM     32  C   UNL     1       8.634   8.920   6.269  0.00  0.00    +0.007 A 
ATOM     33  C   UNL     1       8.358   6.634   5.536  0.00  0.00    +0.007 A 
ATOM     34  C   UNL     1       8.387   9.366   4.971  0.00  0.00    +0.046 A 
ATOM     35  C   UNL     1       8.111   7.080   4.238  0.00  0.00    +0.046 A 
ATOM     36  C   UNL     1       8.125   8.446   3.955  0.00  0.00    +0.120 A 
BRANCH  36   8
ATOM      8  O   UNL     1       7.884   8.881   2.688  0.00  0.00    -0.495 OA
ATOM     37  C   UNL     1       7.518  10.250   2.530  0.00  0.00    +0.277 C 
ENDBRANCH  36   8
ENDBRANCH  29  31
ENDBRANCH  28  29
ENDBRANCH  10  28
ENDBRANCH  26  27
BRANCH  22   4
ATOM      4  O   UNL     1      13.019   8.303   2.172  0.00  0.00    -0.387 OA
ATOM     40  H   UNL     1      13.590   8.686   1.485  0.00  0.00    +0.210 HD
ENDBRANCH  22   4
BRANCH  23   5
ATOM      5  O   UNL     1      15.338   6.130   3.983  0.00  0.00    -0.389 OA
ATOM     41  H   UNL     1      14.918   5.707   4.751  0.00  0.00    +0.210 HD
ENDBRANCH  23   5
TORSDOF 14
ENDMDL
MODEL 7
REMARK VINA RESULT:      -6.7     28.507     31.422
REMARK  Name = 7134442
REMARK  15 active torsions:
REMARK  status: ('A' for Active; 'I' for Inactive)
REMARK    1  A    between atoms: O_2  and  C_20
REMARK    2  A    between atoms: O_4  and  C_22
REMARK    3  A    between atoms: O_5  and  C_23
REMARK    4  A    between atoms: O_8  and  C_36
REMARK    5  A    between atoms: O_8  and  C_37
REMARK    6  A    between atoms: N_9  and  C_21
REMARK    7  A    between atoms: N_10  and  C_28
REMARK    8  A    between atoms: C_12  and  C_17
REMARK    9  A    between atoms: C_12  and  C_18
REMARK   10  A    between atoms: C_17  and  C_19
REMARK   11  A    between atoms: C_18  and  C_20
REMARK   12  A    between atoms: C_26  and  C_27
REMARK   13  A    between atoms: C_28  and  C_29
REMARK   14  A    between atoms: C_28  and  C_30
REMARK   15  A    between atoms: C_29  and  C_31
REMARK                            x       y       z     vdW  Elec       q    Type
REMARK                         _______ _______ _______ _____ _____    ______ ____
ROOT
ATOM     21  C   UNL     1      -4.722 -11.253  15.121  0.00  0.00    +0.127 C 
ATOM     22  C   UNL     1      -3.609 -11.258  16.186  0.00  0.00    +0.167 C 
ATOM     23  C   UNL     1      -4.154 -11.641  17.567  0.00  0.00    +0.149 C 
ATOM     24  C   UNL     1      -5.990 -10.591  15.589  0.00  0.00    +0.006 C 
ATOM     25  C   UNL     1      -5.308 -10.725  18.008  0.00  0.00    +0.074 C 
ATOM     26  C   UNL     1      -6.237 -10.354  16.886  0.00  0.00    +0.015 C 
ENDROOT
BRANCH  21   9
ATOM      1  O   UNL     1      -3.712 -12.544  12.736  0.00  0.00    -0.276 OA
ATOM      9  N   UNL     1      -4.288 -10.617  13.900  0.00  0.00    -0.306 N 
ATOM     19  C   UNL     1      -3.815 -11.322  12.802  0.00  0.00    +0.214 C 
ATOM     38  H   UNL     1      -4.407  -9.610  13.832  0.00  0.00    +0.149 HD
BRANCH  19  17
ATOM     17  C   UNL     1      -3.436 -10.394  11.663  0.00  0.00    +0.103 C 
BRANCH  17  12
ATOM     12  C   UNL     1      -4.419 -10.466  10.493  0.00  0.00    -0.011 C 
ATOM     13  C   UNL     1      -4.084 -11.623   9.542  0.00  0.00    +0.008 C 
ATOM     14  C   UNL     1      -4.283  -9.251   9.565  0.00  0.00    +0.008 C 
ATOM     15  C   UNL     1      -4.716 -11.237   8.207  0.00  0.00    +0.001 C 
ATOM     16  C   UNL     1      -4.843  -9.713   8.221  0.00  0.00    +0.001 C 
BRANCH  12  18
ATOM     18  C   UNL     1      -5.851 -10.592  11.040  0.00  0.00    +0.127 C 
BRANCH  18  20
ATOM      3  O   UNL     1      -7.196  -8.659  10.410  0.00  0.00    -0.251 OA
ATOM     20  C   UNL     1      -6.489  -9.245  11.216  0.00  0.00    +0.305 C 
BRANCH  20   2
ATOM      2  O   UNL     1      -6.163  -8.747  12.437  0.00  0.00    -0.481 OA
ATOM     39  H   UNL     1      -5.954  -7.790  12.397  0.00  0.00    +0.295 HD
ENDBRANCH  20   2
ENDBRANCH  18  20
ENDBRANCH  12  18
ENDBRANCH  17  12
ENDBRANCH  19  17
ENDBRANCH  21   9
BRANCH  26  27
ATOM      6  O   UNL     1      -7.701  -8.518  16.969  0.00  0.00    -0.271 OA
ATOM     10  N   UNL     1      -8.401 -10.562  17.845  0.00  0.00    -0.300 N 
ATOM     27  C   UNL     1      -7.506  -9.705  17.227  0.00  0.00    +0.241 C 
ATOM     42  H   UNL     1      -8.098 -11.502  18.087  0.00  0.00    +0.150 HD
BRANCH  10  28
ATOM     28  C   UNL     1      -9.718 -10.152  18.276  0.00  0.00    +0.163 C 
BRANCH  28  30
ATOM      7  O   UNL     1     -10.095 -12.233  19.474  0.00  0.00    -0.274 OA
ATOM     11  N   UNL     1     -10.335 -10.251  20.611  0.00  0.00    -0.328 N 
ATOM     30  C   UNL     1     -10.078 -11.004  19.484  0.00  0.00    +0.231 C 
ATOM     43  H   UNL     1     -10.573 -10.696  21.492  0.00  0.00    +0.145 HD
ATOM     44  H   UNL     1     -10.313  -9.236  20.606  0.00  0.00    +0.145 HD
ENDBRANCH  28  30
BRANCH  28  29
ATOM     29  C   UNL     1     -10.768 -10.319  17.172  0.00  0.00    +0.067 C 
BRANCH  29  31
ATOM     31  C   UNL     1     -11.099  -9.020  16.480  0.00  0.00    -0.045 A 
ATOM     32  C   UNL     1     -10.906  -7.808  17.143  0.00  0.00    +0.007 A 
ATOM     33  C   UNL     1     -11.599  -9.031  15.177  0.00  0.00    +0.007 A 
ATOM     34  C   UNL     1     -11.212  -6.606  16.504  0.00  0.00    +0.046 A 
ATOM     35  C   UNL     1     -11.905  -7.830  14.538  0.00  0.00    +0.046 A 
ATOM     36  C   UNL     1     -11.712  -6.617  15.201  0.00  0.00    +0.120 A 
BRANCH  36   8
ATOM      8  O   UNL     1     -12.011  -5.446  14.577  0.00  0.00    -0.495 OA
ATOM     37  C   UNL     1     -12.390  -5.520  13.203  0.00  0.00    +0.277 C 
ENDBRANCH  36   8
ENDBRANCH  29  31
ENDBRANCH  28  29
ENDBRANCH  10  28
ENDBRANCH  26  27
BRANCH  22   4
ATOM      4  O   UNL     1      -3.018  -9.960  16.269  0.00  0.00    -0.387 OA
ATOM     40  H   UNL     1      -2.437  -9.952  17.048  0.00  0.00    +0.210 HD
ENDBRANCH  22   4
BRANCH  23   5
ATOM      5  O   UNL     1      -4.582 -13.002  17.566  0.00  0.00    -0.389 OA
ATOM     41  H   UNL     1      -5.315 -13.079  16.932  0.00  0.00    +0.210 HD
ENDBRANCH  23   5
TORSDOF 14
ENDMDL
MODEL 8
REMARK VINA RESULT:      -6.7     16.482     20.369
REMARK  Name = 7134442
REMARK  15 active torsions:
REMARK  status: ('A' for Active; 'I' for Inactive)
REMARK    1  A    between atoms: O_2  and  C_20
REMARK    2  A    between atoms: O_4  and  C_22
REMARK    3  A    between atoms: O_5  and  C_23
REMARK    4  A    between atoms: O_8  and  C_36
REMARK    5  A    between atoms: O_8  and  C_37
REMARK    6  A    between atoms: N_9  and  C_21
REMARK    7  A    between atoms: N_10  and  C_28
REMARK    8  A    between atoms: C_12  and  C_17
REMARK    9  A    between atoms: C_12  and  C_18
REMARK   10  A    between atoms: C_17  and  C_19
REMARK   11  A    between atoms: C_18  and  C_20
REMARK   12  A    between atoms: C_26  and  C_27
REMARK   13  A    between atoms: C_28  and  C_29
REMARK   14  A    between atoms: C_28  and  C_30
REMARK   15  A    between atoms: C_29  and  C_31
REMARK                            x       y       z     vdW  Elec       q    Type
REMARK                         _______ _______ _______ _____ _____    ______ ____
ROOT
ATOM     21  C   UNL     1      14.284   7.378   4.054  0.00  0.00    +0.127 C 
ATOM     22  C   UNL     1      15.093   8.677   4.227  0.00  0.00    +0.167 C 
ATOM     23  C   UNL     1      15.250   9.047   5.708  0.00  0.00    +0.149 C 
ATOM     24  C   UNL     1      13.064   7.315   4.932  0.00  0.00    +0.006 C 
ATOM     25  C   UNL     1      13.893   9.166   6.421  0.00  0.00    +0.074 C 
ATOM     26  C   UNL     1      12.897   8.128   5.986  0.00  0.00    +0.015 C 
ENDROOT
BRANCH  21   9
ATOM      1  O   UNL     1      15.039   5.201   2.302  0.00  0.00    -0.276 OA
ATOM      9  N   UNL     1      13.882   7.180   2.682  0.00  0.00    -0.306 N 
ATOM     19  C   UNL     1      14.297   6.100   1.915  0.00  0.00    +0.214 C 
ATOM     38  H   UNL     1      13.207   7.834   2.296  0.00  0.00    +0.149 HD
BRANCH  19  17
ATOM     17  C   UNL     1      13.716   6.152   0.515  0.00  0.00    +0.103 C 
BRANCH  17  12
ATOM     12  C   UNL     1      12.615   5.111   0.296  0.00  0.00    -0.011 C 
ATOM     13  C   UNL     1      11.546   5.617  -0.683  0.00  0.00    +0.008 C 
ATOM     14  C   UNL     1      11.789   4.885   1.569  0.00  0.00    +0.008 C 
ATOM     15  C   UNL     1      10.297   4.798  -0.365  0.00  0.00    +0.001 C 
ATOM     16  C   UNL     1      10.453   4.329   1.082  0.00  0.00    +0.001 C 
BRANCH  12  18
ATOM     18  C   UNL     1      13.248   3.800  -0.200  0.00  0.00    +0.127 C 
BRANCH  18  20
ATOM      3  O   UNL     1      14.247   4.342  -2.357  0.00  0.00    -0.251 OA
ATOM     20  C   UNL     1      14.361   4.065  -1.173  0.00  0.00    +0.305 C 
BRANCH  20   2
ATOM      2  O   UNL     1      15.554   3.953  -0.534  0.00  0.00    -0.481 OA
ATOM     39  H   UNL     1      16.304   3.921  -1.165  0.00  0.00    +0.295 HD
ENDBRANCH  20   2
ENDBRANCH  18  20
ENDBRANCH  12  18
ENDBRANCH  17  12
ENDBRANCH  19  17
ENDBRANCH  21   9
BRANCH  26  27
ATOM      6  O   UNL     1      11.235   8.903   7.454  0.00  0.00    -0.271 OA
ATOM     10  N   UNL     1      11.103   6.720   6.649  0.00  0.00    -0.300 N 
ATOM     27  C   UNL     1      11.669   7.976   6.771  0.00  0.00    +0.241 C 
ATOM     42  H   UNL     1      11.598   6.003   6.125  0.00  0.00    +0.150 HD
BRANCH  10  28
ATOM     28  C   UNL     1       9.889   6.330   7.330  0.00  0.00    +0.163 C 
BRANCH  28  30
ATOM      7  O   UNL     1      10.542   5.351   9.456  0.00  0.00    -0.274 OA
ATOM     11  N   UNL     1      10.168   3.954   7.672  0.00  0.00    -0.328 N 
ATOM     30  C   UNL     1      10.251   5.192   8.273  0.00  0.00    +0.231 C 
ATOM     43  H   UNL     1      10.369   3.107   8.194  0.00  0.00    +0.145 HD
ATOM     44  H   UNL     1       9.922   3.836   6.694  0.00  0.00    +0.145 HD
ENDBRANCH  28  30
BRANCH  28  29
ATOM     29  C   UNL     1       8.792   5.888   6.355  0.00  0.00    +0.067 C 
BRANCH  29  31
ATOM     31  C   UNL     1       8.665   6.806   5.164  0.00  0.00    -0.045 A 
ATOM     32  C   UNL     1       9.294   6.480   3.962  0.00  0.00    +0.007 A 
ATOM     33  C   UNL     1       7.918   7.981   5.264  0.00  0.00    +0.007 A 
ATOM     34  C   UNL     1       9.177   7.328   2.861  0.00  0.00    +0.046 A 
ATOM     35  C   UNL     1       7.801   8.829   4.163  0.00  0.00    +0.046 A 
ATOM     36  C   UNL     1       8.431   8.503   2.961  0.00  0.00    +0.120 A 
BRANCH  36   8
ATOM      8  O   UNL     1       8.316   9.330   1.888  0.00  0.00    -0.495 OA
ATOM     37  C   UNL     1       7.855  10.657   2.137  0.00  0.00    +0.277 C 
ENDBRANCH  36   8
ENDBRANCH  29  31
ENDBRANCH  28  29
ENDBRANCH  10  28
ENDBRANCH  26  27
BRANCH  22   4
ATOM      4  O   UNL     1      14.432   9.749   3.553  0.00  0.00    -0.387 OA
ATOM     40  H   UNL     1      13.479   9.555   3.558  0.00  0.00    +0.210 HD
ENDBRANCH  22   4
BRANCH  23   5
ATOM      5  O   UNL     1      16.069   8.087   6.371  0.00  0.00    -0.389 OA
ATOM     41  H   UNL     1      16.154   7.317   5.783  0.00  0.00    +0.210 HD
ENDBRANCH  23   5
TORSDOF 14
ENDMDL
MODEL 9
REMARK VINA RESULT:      -6.6      2.598      6.879
REMARK  Name = 7134442
REMARK  15 active torsions:
REMARK  status: ('A' for Active; 'I' for Inactive)
REMARK    1  A    between atoms: O_2  and  C_20
REMARK    2  A    between atoms: O_4  and  C_22
REMARK    3  A    between atoms: O_5  and  C_23
REMARK    4  A    between atoms: O_8  and  C_36
REMARK    5  A    between atoms: O_8  and  C_37
REMARK    6  A    between atoms: N_9  and  C_21
REMARK    7  A    between atoms: N_10  and  C_28
REMARK    8  A    between atoms: C_12  and  C_17
REMARK    9  A    between atoms: C_12  and  C_18
REMARK   10  A    between atoms: C_17  and  C_19
REMARK   11  A    between atoms: C_18  and  C_20
REMARK   12  A    between atoms: C_26  and  C_27
REMARK   13  A    between atoms: C_28  and  C_29
REMARK   14  A    between atoms: C_28  and  C_30
REMARK   15  A    between atoms: C_29  and  C_31
REMARK                            x       y       z     vdW  Elec       q    Type
REMARK                         _______ _______ _______ _____ _____    ______ ____
ROOT
ATOM     21  C   UNL     1      16.715   7.003  21.261  0.00  0.00    +0.127 C 
ATOM     22  C   UNL     1      17.902   6.181  20.726  0.00  0.00    +0.167 C 
ATOM     23  C   UNL     1      19.207   6.545  21.446  0.00  0.00    +0.149 C 
ATOM     24  C   UNL     1      17.036   8.461  21.447  0.00  0.00    +0.006 C 
ATOM     25  C   UNL     1      19.517   8.048  21.355  0.00  0.00    +0.074 C 
ATOM     26  C   UNL     1      18.298   8.917  21.480  0.00  0.00    +0.015 C 
ENDROOT
BRANCH  21   9
ATOM      1  O   UNL     1      13.954   7.510  21.967  0.00  0.00    -0.276 OA
ATOM      9  N   UNL     1      15.558   6.887  20.406  0.00  0.00    -0.306 N 
ATOM     19  C   UNL     1      14.264   7.152  20.835  0.00  0.00    +0.214 C 
ATOM     38  H   UNL     1      15.722   6.668  19.427  0.00  0.00    +0.149 HD
BRANCH  19  17
ATOM     17  C   UNL     1      13.254   6.949  19.722  0.00  0.00    +0.103 C 
BRANCH  17  12
ATOM     12  C   UNL     1      12.864   8.260  19.035  0.00  0.00    -0.011 C 
ATOM     13  C   UNL     1      13.172   8.224  17.532  0.00  0.00    +0.008 C 
ATOM     14  C   UNL     1      13.742   9.427  19.505  0.00  0.00    +0.008 C 
ATOM     15  C   UNL     1      13.295   9.688  17.116  0.00  0.00    +0.001 C 
ATOM     16  C   UNL     1      13.661  10.462  18.383  0.00  0.00    +0.001 C 
BRANCH  12  18
ATOM     18  C   UNL     1      11.374   8.543  19.291  0.00  0.00    +0.127 C 
BRANCH  18  20
ATOM      3  O   UNL     1      10.504   7.169  21.108  0.00  0.00    -0.251 OA
ATOM     20  C   UNL     1      10.992   8.214  20.705  0.00  0.00    +0.305 C 
BRANCH  20   2
ATOM      2  O   UNL     1      11.272   9.275  21.505  0.00  0.00    -0.481 OA
ATOM     39  H   UNL     1      10.567   9.428  22.169  0.00  0.00    +0.295 HD
ENDBRANCH  20   2
ENDBRANCH  18  20
ENDBRANCH  12  18
ENDBRANCH  17  12
ENDBRANCH  19  17
ENDBRANCH  21   9
BRANCH  26  27
ATOM      6  O   UNL     1      18.931  11.062  20.761  0.00  0.00    -0.271 OA
ATOM     10  N   UNL     1      18.139  10.788  22.936  0.00  0.00    -0.300 N 
ATOM     27  C   UNL     1      18.492  10.358  21.669  0.00  0.00    +0.241 C 
ATOM     42  H   UNL     1      17.870  10.101  23.635  0.00  0.00    +0.150 HD
BRANCH  10  28
ATOM     28  C   UNL     1      18.244  12.166  23.360  0.00  0.00    +0.163 C 
BRANCH  28  30
ATOM      7  O   UNL     1      20.296  13.212  24.135  0.00  0.00    -0.274 OA
ATOM     11  N   UNL     1      19.630  11.242  25.112  0.00  0.00    -0.328 N 
ATOM     30  C   UNL     1      19.501  12.277  24.210  0.00  0.00    +0.231 C 
ATOM     43  H   UNL     1      20.418  11.203  25.751  0.00  0.00    +0.145 HD
ATOM     44  H   UNL     1      18.964  10.478  25.166  0.00  0.00    +0.145 HD
ENDBRANCH  28  30
BRANCH  28  29
ATOM     29  C   UNL     1      17.018  12.623  24.158  0.00  0.00    +0.067 C 
BRANCH  29  31
ATOM     31  C   UNL     1      15.729  12.471  23.387  0.00  0.00    -0.045 A 
ATOM     32  C   UNL     1      14.685  11.715  23.918  0.00  0.00    +0.007 A 
ATOM     33  C   UNL     1      15.583  13.086  22.143  0.00  0.00    +0.007 A 
ATOM     34  C   UNL     1      13.493  11.573  23.206  0.00  0.00    +0.046 A 
ATOM     35  C   UNL     1      14.393  12.945  21.431  0.00  0.00    +0.046 A 
ATOM     36  C   UNL     1      13.347  12.188  21.962  0.00  0.00    +0.120 A 
BRANCH  36   8
ATOM      8  O   UNL     1      12.186  12.050  21.266  0.00  0.00    -0.495 OA
ATOM     37  C   UNL     1      11.043  12.740  21.768  0.00  0.00    +0.277 C 
ENDBRANCH  36   8
ENDBRANCH  29  31
ENDBRANCH  28  29
ENDBRANCH  10  28
ENDBRANCH  26  27
BRANCH  22   4
ATOM      4  O   UNL     1      18.065   6.425  19.328  0.00  0.00    -0.387 OA
ATOM     40  H   UNL     1      18.045   7.387  19.194  0.00  0.00    +0.210 HD
ENDBRANCH  22   4
BRANCH  23   5
ATOM      5  O   UNL     1      19.144   6.139  22.811  0.00  0.00    -0.389 OA
ATOM     41  H   UNL     1      18.272   5.734  22.959  0.00  0.00    +0.210 HD
ENDBRANCH  23   5
TORSDOF 14
ENDMDL
MODEL 10
REMARK VINA RESULT:      -6.6     15.750     19.299
REMARK  Name = 7134442
REMARK  15 active torsions:
REMARK  status: ('A' for Active; 'I' for Inactive)
REMARK    1  A    between atoms: O_2  and  C_20
REMARK    2  A    between atoms: O_4  and  C_22
REMARK    3  A    between atoms: O_5  and  C_23
REMARK    4  A    between atoms: O_8  and  C_36
REMARK    5  A    between atoms: O_8  and  C_37
REMARK    6  A    between atoms: N_9  and  C_21
REMARK    7  A    between atoms: N_10  and  C_28
REMARK    8  A    between atoms: C_12  and  C_17
REMARK    9  A    between atoms: C_12  and  C_18
REMARK   10  A    between atoms: C_17  and  C_19
REMARK   11  A    between atoms: C_18  and  C_20
REMARK   12  A    between atoms: C_26  and  C_27
REMARK   13  A    between atoms: C_28  and  C_29
REMARK   14  A    between atoms: C_28  and  C_30
REMARK   15  A    between atoms: C_29  and  C_31
REMARK                            x       y       z     vdW  Elec       q    Type
REMARK                         _______ _______ _______ _____ _____    ______ ____
ROOT
ATOM     21  C   UNL     1      14.743   5.739   1.537  0.00  0.00    +0.127 C 
ATOM     22  C   UNL     1      15.145   4.283   1.240  0.00  0.00    +0.167 C 
ATOM     23  C   UNL     1      14.020   3.524   0.526  0.00  0.00    +0.149 C 
ATOM     24  C   UNL     1      13.345   5.872   2.080  0.00  0.00    +0.006 C 
ATOM     25  C   UNL     1      12.703   3.561   1.320  0.00  0.00    +0.074 C 
ATOM     26  C   UNL     1      12.443   4.884   1.982  0.00  0.00    +0.015 C 
ENDROOT
BRANCH  21   9
ATOM      1  O   UNL     1      15.087   8.575   2.006  0.00  0.00    -0.276 OA
ATOM      9  N   UNL     1      15.661   6.368   2.456  0.00  0.00    -0.306 N 
ATOM     19  C   UNL     1      15.757   7.745   2.613  0.00  0.00    +0.214 C 
ATOM     38  H   UNL     1      16.207   5.760   3.060  0.00  0.00    +0.149 HD
BRANCH  19  17
ATOM     17  C   UNL     1      16.802   8.117   3.648  0.00  0.00    +0.103 C 
BRANCH  17  12
ATOM     12  C   UNL     1      16.191   8.439   5.013  0.00  0.00    -0.011 C 
ATOM     13  C   UNL     1      15.124   7.410   5.411  0.00  0.00    +0.008 C 
ATOM     14  C   UNL     1      15.373   9.737   4.975  0.00  0.00    +0.008 C 
ATOM     15  C   UNL     1      14.236   8.130   6.424  0.00  0.00    +0.001 C 
ATOM     16  C   UNL     1      14.395   9.625   6.144  0.00  0.00    +0.001 C 
BRANCH  12  18
ATOM     18  C   UNL     1      17.311   8.514   6.065  0.00  0.00    +0.127 C 
BRANCH  18  20
ATOM      3  O   UNL     1      18.649  10.354   5.188  0.00  0.00    -0.251 OA
ATOM     20  C   UNL     1      18.536   9.181   5.510  0.00  0.00    +0.305 C 
BRANCH  20   2
ATOM      2  O   UNL     1      19.539   8.271   5.413  0.00  0.00    -0.481 OA
ATOM     39  H   UNL     1      19.325   7.439   5.886  0.00  0.00    +0.295 HD
ENDBRANCH  20   2
ENDBRANCH  18  20
ENDBRANCH  12  18
ENDBRANCH  17  12
ENDBRANCH  19  17
ENDBRANCH  21   9
BRANCH  26  27
ATOM      6  O   UNL     1      10.343   4.193   2.777  0.00  0.00    -0.271 OA
ATOM     10  N   UNL     1      10.853   6.467   2.762  0.00  0.00    -0.300 N 
ATOM     27  C   UNL     1      11.111   5.125   2.545  0.00  0.00    +0.241 C 
ATOM     42  H   UNL     1      11.530   7.158   2.450  0.00  0.00    +0.150 HD
BRANCH  10  28
ATOM     28  C   UNL     1       9.606   6.953   3.309  0.00  0.00    +0.163 C 
BRANCH  28  30
ATOM      7  O   UNL     1       7.974   8.533   2.444  0.00  0.00    -0.274 OA
ATOM     11  N   UNL     1       9.639   7.795   1.043  0.00  0.00    -0.328 N 
ATOM     30  C   UNL     1       8.963   7.831   2.245  0.00  0.00    +0.231 C 
ATOM     43  H   UNL     1       9.323   8.348   0.252  0.00  0.00    +0.145 HD
ATOM     44  H   UNL     1      10.457   7.214   0.894  0.00  0.00    +0.145 HD
ENDBRANCH  28  30
BRANCH  28  29
ATOM     29  C   UNL     1       9.810   7.747   4.604  0.00  0.00    +0.067 C 
BRANCH  29  31
ATOM     31  C   UNL     1       9.922   6.860   5.821  0.00  0.00    -0.045 A 
ATOM     32  C   UNL     1       9.353   5.586   5.809  0.00  0.00    +0.007 A 
ATOM     33  C   UNL     1      10.593   7.315   6.956  0.00  0.00    +0.007 A 
ATOM     34  C   UNL     1       9.455   4.767   6.933  0.00  0.00    +0.046 A 
ATOM     35  C   UNL     1      10.696   6.495   8.080  0.00  0.00    +0.046 A 
ATOM     36  C   UNL     1      10.127   5.221   8.069  0.00  0.00    +0.120 A 
BRANCH  36   8
ATOM      8  O   UNL     1      10.227   4.422   9.166  0.00  0.00    -0.495 OA
ATOM     37  C   UNL     1       9.190   4.524  10.140  0.00  0.00    +0.277 C 
ENDBRANCH  36   8
ENDBRANCH  29  31
ENDBRANCH  28  29
ENDBRANCH  10  28
ENDBRANCH  26  27
BRANCH  22   4
ATOM      4  O   UNL     1      15.450   3.609   2.462  0.00  0.00    -0.387 OA
ATOM     40  H   UNL     1      14.619   3.246   2.812  0.00  0.00    +0.210 HD
ENDBRANCH  22   4
BRANCH  23   5
ATOM      5  O   UNL     1      13.819   4.058  -0.781  0.00  0.00    -0.389 OA
ATOM     41  H   UNL     1      12.884   4.316  -0.853  0.00  0.00    +0.210 HD
ENDBRANCH  23   5
TORSDOF 14
ENDMDL
