MODEL 1
REMARK VINA RESULT:      -7.4      0.000      0.000
REMARK  Name = 38031080
REMARK  11 active torsions:
REMARK  status: ('A' for Active; 'I' for Inactive)
REMARK    1  A    between atoms: N_3  and  C_14
REMARK    2  A    between atoms: N_3  and  C_20
REMARK    3  A    between atoms: C_7  and  C_11
REMARK    4  A    between atoms: C_8  and  C_14
REMARK    5  A    between atoms: C_10  and  C_15
REMARK    6  A    between atoms: C_11  and  C_16
REMARK    7  A    between atoms: C_11  and  C_17
REMARK    8  A    between atoms: C_12  and  C_18
REMARK    9  A    between atoms: C_15  and  C_19
REMARK   10  A    between atoms: C_20  and  C_21
REMARK   11  A    between atoms: C_22  and  C_24
REMARK                            x       y       z     vdW  Elec       q    Type
REMARK                         _______ _______ _______ _____ _____    ______ ____
ROOT
ATOM      7  C   UNL     1      16.909   8.312  21.403  0.00  0.00    +0.000 C 
ATOM      8  C   UNL     1      16.251   7.419  20.322  0.00  0.00    +0.029 C 
ATOM      9  C   UNL     1      18.405   8.501  21.105  0.00  0.00    +0.012 C 
ATOM     10  C   UNL     1      19.161   7.160  21.053  0.00  0.00    +0.024 C 
ATOM     12  C   UNL     1      18.429   6.132  20.215  0.00  0.00    -0.073 C 
ATOM     13  C   UNL     1      17.133   6.271  19.886  0.00  0.00    -0.023 C 
ATOM     18  C   UNL     1      19.234   4.962  19.722  0.00  0.00    +0.039 C 
ENDROOT
BRANCH   7  11
ATOM     11  C   UNL     1      16.225   9.679  21.505  0.00  0.00    -0.013 C 
ATOM     16  C   UNL     1      17.120  10.668  22.245  0.00  0.00    +0.007 C 
ATOM     17  C   UNL     1      15.871  10.203  20.117  0.00  0.00    +0.007 C 
ENDBRANCH   7  11
BRANCH   8  14
ATOM     14  C   UNL     1      14.901   6.873  20.802  0.00  0.00    +0.089 C 
BRANCH  14   3
ATOM      3  N   UNL     1      14.095   6.436  19.674  0.00  0.00    -0.310 NA
ATOM     33  H   UNL     1      14.699   6.135  18.910  0.00  0.00    +0.122 HD
BRANCH   3  20
ATOM     20  C   UNL     1      13.226   7.508  19.206  0.00  0.00    +0.136 C 
BRANCH  20  21
ATOM      6  N   UNL     1      11.412   7.026  20.748  0.00  0.00    -0.259 NA
ATOM     21  C   UNL     1      12.265   7.958  20.269  0.00  0.00    +0.055 A 
ATOM     23  C   UNL     1      12.297   9.274  20.699  0.00  0.00    +0.024 A 
ATOM     25  C   UNL     1      11.395   9.659  21.685  0.00  0.00    +0.003 A 
ATOM     26  C   UNL     1      10.550   7.436  21.706  0.00  0.00    +0.111 A 
ATOM     29  C   UNL     1      10.502   8.728  22.203  0.00  0.00    +0.020 A 
ENDBRANCH  20  21
ENDBRANCH   3  20
ENDBRANCH  14   3
ENDBRANCH   8  14
BRANCH  10  15
ATOM     15  C   UNL     1      19.435   6.624  22.462  0.00  0.00    +0.105 C 
BRANCH  15  19
ATOM      2  O   UNL     1      21.140   4.880  22.391  0.00  0.00    -0.420 OA
ATOM      4  N   UNL     1      21.921   6.901  22.945  0.00  0.00    -0.112 NA
ATOM      5  N   UNL     1      22.985   6.018  22.943  0.00  0.00    -0.107 NA
ATOM     19  C   UNL     1      20.865   6.193  22.617  0.00  0.00    +0.218 A 
ATOM     22  C   UNL     1      22.482   4.851  22.614  0.00  0.00    +0.251 A 
BRANCH  22  24
ATOM      1  F   UNL     1      23.522   4.004  20.152  0.00  0.00    -0.205 F 
ATOM     24  C   UNL     1      23.118   3.575  22.456  0.00  0.00    +0.074 A 
ATOM     27  C   UNL     1      23.623   3.191  21.215  0.00  0.00    +0.136 A 
ATOM     28  C   UNL     1      23.230   2.717  23.551  0.00  0.00    +0.016 A 
ATOM     30  C   UNL     1      24.239   1.948  21.066  0.00  0.00    +0.039 A 
ATOM     31  C   UNL     1      23.846   1.474  23.402  0.00  0.00    +0.001 A 
ATOM     32  C   UNL     1      24.351   1.090  22.159  0.00  0.00    +0.003 A 
ENDBRANCH  22  24
ENDBRANCH  15  19
ENDBRANCH  10  15
TORSDOF 8
ENDMDL
MODEL 2
REMARK VINA RESULT:      -7.4      3.321      5.913
REMARK  Name = 38031080
REMARK  11 active torsions:
REMARK  status: ('A' for Active; 'I' for Inactive)
REMARK    1  A    between atoms: N_3  and  C_14
REMARK    2  A    between atoms: N_3  and  C_20
REMARK    3  A    between atoms: C_7  and  C_11
REMARK    4  A    between atoms: C_8  and  C_14
REMARK    5  A    between atoms: C_10  and  C_15
REMARK    6  A    between atoms: C_11  and  C_16
REMARK    7  A    between atoms: C_11  and  C_17
REMARK    8  A    between atoms: C_12  and  C_18
REMARK    9  A    between atoms: C_15  and  C_19
REMARK   10  A    between atoms: C_20  and  C_21
REMARK   11  A    between atoms: C_22  and  C_24
REMARK                            x       y       z     vdW  Elec       q    Type
REMARK                         _______ _______ _______ _____ _____    ______ ____
ROOT
ATOM      7  C   UNL     1      13.407  10.133  20.350  0.00  0.00    +0.000 C 
ATOM      8  C   UNL     1      11.954  10.211  20.878  0.00  0.00    +0.029 C 
ATOM      9  C   UNL     1      13.595   8.883  19.476  0.00  0.00    +0.012 C 
ATOM     10  C   UNL     1      13.284   7.584  20.244  0.00  0.00    +0.024 C 
ATOM     12  C   UNL     1      11.984   7.682  21.014  0.00  0.00    -0.073 C 
ATOM     13  C   UNL     1      11.397   8.863  21.276  0.00  0.00    -0.023 C 
ATOM     18  C   UNL     1      11.348   6.388  21.437  0.00  0.00    +0.039 C 
ENDROOT
BRANCH   7  11
ATOM     11  C   UNL     1      13.791  11.384  19.554  0.00  0.00    -0.013 C 
ATOM     16  C   UNL     1      15.251  11.749  19.806  0.00  0.00    +0.007 C 
ATOM     17  C   UNL     1      13.537  11.167  18.066  0.00  0.00    +0.007 C 
ENDBRANCH   7  11
BRANCH   8  14
ATOM     14  C   UNL     1      11.846  11.178  22.063  0.00  0.00    +0.089 C 
BRANCH  14   3
ATOM      3  N   UNL     1      10.678  10.871  22.870  0.00  0.00    -0.310 NA
ATOM     33  H   UNL     1       9.974  11.601  22.758  0.00  0.00    +0.122 HD
BRANCH   3  20
ATOM     20  C   UNL     1      11.030  10.757  24.280  0.00  0.00    +0.136 C 
BRANCH  20  21
ATOM      6  N   UNL     1      12.476  12.231  25.561  0.00  0.00    -0.259 NA
ATOM     21  C   UNL     1      11.304  12.097  24.901  0.00  0.00    +0.055 A 
ATOM     23  C   UNL     1      10.367  13.110  24.770  0.00  0.00    +0.024 A 
ATOM     25  C   UNL     1      10.651  14.339  25.356  0.00  0.00    +0.003 A 
ATOM     26  C   UNL     1      12.717  13.440  26.117  0.00  0.00    +0.111 A 
ATOM     29  C   UNL     1      11.846  14.515  26.043  0.00  0.00    +0.020 A 
ENDBRANCH  20  21
ENDBRANCH   3  20
ENDBRANCH  14   3
ENDBRANCH   8  14
BRANCH  10  15
ATOM     15  C   UNL     1      14.443   7.200  21.170  0.00  0.00    +0.105 C 
BRANCH  15  19
ATOM      2  O   UNL     1      16.835   6.736  21.015  0.00  0.00    -0.420 OA
ATOM      4  N   UNL     1      15.681   6.220  19.170  0.00  0.00    -0.112 NA
ATOM      5  N   UNL     1      17.008   5.910  18.944  0.00  0.00    -0.107 NA
ATOM     19  C   UNL     1      15.626   6.700  20.391  0.00  0.00    +0.218 A 
ATOM     22  C   UNL     1      17.644   6.227  20.048  0.00  0.00    +0.251 A 
BRANCH  22  24
ATOM      1  F   UNL     1      19.104   8.410  21.029  0.00  0.00    -0.205 F 
ATOM     24  C   UNL     1      19.035   6.121  20.384  0.00  0.00    +0.074 A 
ATOM     27  C   UNL     1      19.725   7.231  20.870  0.00  0.00    +0.136 A 
ATOM     28  C   UNL     1      19.696   4.903  20.225  0.00  0.00    +0.016 A 
ATOM     30  C   UNL     1      21.078   7.124  21.195  0.00  0.00    +0.039 A 
ATOM     31  C   UNL     1      21.048   4.797  20.549  0.00  0.00    +0.001 A 
ATOM     32  C   UNL     1      21.739   5.907  21.035  0.00  0.00    +0.003 A 
ENDBRANCH  22  24
ENDBRANCH  15  19
ENDBRANCH  10  15
TORSDOF 8
ENDMDL
MODEL 3
REMARK VINA RESULT:      -7.3      1.582      2.427
REMARK  Name = 38031080
REMARK  11 active torsions:
REMARK  status: ('A' for Active; 'I' for Inactive)
REMARK    1  A    between atoms: N_3  and  C_14
REMARK    2  A    between atoms: N_3  and  C_20
REMARK    3  A    between atoms: C_7  and  C_11
REMARK    4  A    between atoms: C_8  and  C_14
REMARK    5  A    between atoms: C_10  and  C_15
REMARK    6  A    between atoms: C_11  and  C_16
REMARK    7  A    between atoms: C_11  and  C_17
REMARK    8  A    between atoms: C_12  and  C_18
REMARK    9  A    between atoms: C_15  and  C_19
REMARK   10  A    between atoms: C_20  and  C_21
REMARK   11  A    between atoms: C_22  and  C_24
REMARK                            x       y       z     vdW  Elec       q    Type
REMARK                         _______ _______ _______ _____ _____    ______ ____
ROOT
ATOM      7  C   UNL     1      17.121   8.502  21.461  0.00  0.00    +0.000 C 
ATOM      8  C   UNL     1      16.367   7.661  20.401  0.00  0.00    +0.029 C 
ATOM      9  C   UNL     1      18.618   8.577  21.121  0.00  0.00    +0.012 C 
ATOM     10  C   UNL     1      19.269   7.183  21.052  0.00  0.00    +0.024 C 
ATOM     12  C   UNL     1      18.439   6.213  20.238  0.00  0.00    -0.073 C 
ATOM     13  C   UNL     1      17.147   6.449  19.945  0.00  0.00    -0.023 C 
ATOM     18  C   UNL     1      19.139   4.985  19.727  0.00  0.00    +0.039 C 
ENDROOT
BRANCH   7  11
ATOM     11  C   UNL     1      16.545   9.917  21.578  0.00  0.00    -0.013 C 
ATOM     16  C   UNL     1      17.544  10.843  22.264  0.00  0.00    +0.007 C 
ATOM     17  C   UNL     1      16.166  10.454  20.201  0.00  0.00    +0.007 C 
ENDBRANCH   7  11
BRANCH   8  14
ATOM     14  C   UNL     1      14.994   7.218  20.920  0.00  0.00    +0.089 C 
BRANCH  14   3
ATOM      3  N   UNL     1      14.272   6.484  19.895  0.00  0.00    -0.310 NA
ATOM     33  H   UNL     1      14.868   6.343  19.080  0.00  0.00    +0.122 HD
BRANCH   3  20
ATOM     20  C   UNL     1      13.066   7.197  19.491  0.00  0.00    +0.136 C 
BRANCH  20  21
ATOM      6  N   UNL     1      13.787   7.595  17.206  0.00  0.00    -0.259 NA
ATOM     21  C   UNL     1      13.327   8.141  18.353  0.00  0.00    +0.055 A 
ATOM     23  C   UNL     1      13.089   9.495  18.527  0.00  0.00    +0.024 A 
ATOM     25  C   UNL     1      13.340  10.343  17.454  0.00  0.00    +0.003 A 
ATOM     26  C   UNL     1      14.019   8.450  16.184  0.00  0.00    +0.111 A 
ATOM     29  C   UNL     1      13.814   9.818  16.257  0.00  0.00    +0.020 A 
ENDBRANCH  20  21
ENDBRANCH   3  20
ENDBRANCH  14   3
ENDBRANCH   8  14
BRANCH  10  15
ATOM     15  C   UNL     1      19.541   6.630  22.455  0.00  0.00    +0.105 C 
BRANCH  15  19
ATOM      2  O   UNL     1      21.203   4.848  22.321  0.00  0.00    -0.420 OA
ATOM      4  N   UNL     1      22.033   6.829  22.945  0.00  0.00    -0.112 NA
ATOM      5  N   UNL     1      23.074   5.921  22.911  0.00  0.00    -0.107 NA
ATOM     19  C   UNL     1      20.960   6.159  22.594  0.00  0.00    +0.218 A 
ATOM     22  C   UNL     1      22.544   4.779  22.541  0.00  0.00    +0.251 A 
BRANCH  22  24
ATOM      1  F   UNL     1      22.807   2.917  24.621  0.00  0.00    -0.205 F 
ATOM     24  C   UNL     1      23.148   3.493  22.339  0.00  0.00    +0.074 A 
ATOM     27  C   UNL     1      23.259   2.595  23.399  0.00  0.00    +0.136 A 
ATOM     28  C   UNL     1      23.624   3.143  21.075  0.00  0.00    +0.016 A 
ATOM     30  C   UNL     1      23.848   1.347  23.198  0.00  0.00    +0.039 A 
ATOM     31  C   UNL     1      24.213   1.895  20.874  0.00  0.00    +0.001 A 
ATOM     32  C   UNL     1      24.325   0.996  21.935  0.00  0.00    +0.003 A 
ENDBRANCH  22  24
ENDBRANCH  15  19
ENDBRANCH  10  15
TORSDOF 8
ENDMDL
MODEL 4
REMARK VINA RESULT:      -7.2     16.208     19.326
REMARK  Name = 38031080
REMARK  11 active torsions:
REMARK  status: ('A' for Active; 'I' for Inactive)
REMARK    1  A    between atoms: N_3  and  C_14
REMARK    2  A    between atoms: N_3  and  C_20
REMARK    3  A    between atoms: C_7  and  C_11
REMARK    4  A    between atoms: C_8  and  C_14
REMARK    5  A    between atoms: C_10  and  C_15
REMARK    6  A    between atoms: C_11  and  C_16
REMARK    7  A    between atoms: C_11  and  C_17
REMARK    8  A    between atoms: C_12  and  C_18
REMARK    9  A    between atoms: C_15  and  C_19
REMARK   10  A    between atoms: C_20  and  C_21
REMARK   11  A    between atoms: C_22  and  C_24
REMARK                            x       y       z     vdW  Elec       q    Type
REMARK                         _______ _______ _______ _____ _____    ______ ____
ROOT
ATOM      7  C   UNL     1       8.833   8.453   5.212  0.00  0.00    +0.000 C 
ATOM      8  C   UNL     1       8.519   8.068   6.679  0.00  0.00    +0.029 C 
ATOM      9  C   UNL     1       8.648   7.239   4.287  0.00  0.00    +0.012 C 
ATOM     10  C   UNL     1       9.555   6.060   4.688  0.00  0.00    +0.024 C 
ATOM     12  C   UNL     1       9.504   5.790   6.177  0.00  0.00    -0.073 C 
ATOM     13  C   UNL     1       9.025   6.693   7.051  0.00  0.00    -0.023 C 
ATOM     18  C   UNL     1       9.973   4.438   6.637  0.00  0.00    +0.039 C 
ENDROOT
BRANCH   7  11
ATOM     11  C   UNL     1       7.955   9.611   4.728  0.00  0.00    -0.013 C 
ATOM     16  C   UNL     1       8.807  10.847   4.455  0.00  0.00    +0.007 C 
ATOM     17  C   UNL     1       7.177   9.204   3.480  0.00  0.00    +0.007 C 
ENDBRANCH   7  11
BRANCH   8  14
ATOM     14  C   UNL     1       9.088   9.103   7.657  0.00  0.00    +0.089 C 
BRANCH  14   3
ATOM      3  N   UNL     1      10.459   8.776   8.009  0.00  0.00    -0.310 NA
ATOM     33  H   UNL     1      10.582   8.830   9.020  0.00  0.00    +0.122 HD
BRANCH   3  20
ATOM     20  C   UNL     1      11.397   9.684   7.361  0.00  0.00    +0.136 C 
BRANCH  20  21
ATOM      6  N   UNL     1      13.704   9.790   6.607  0.00  0.00    -0.259 NA
ATOM     21  C   UNL     1      12.680   8.997   6.991  0.00  0.00    +0.055 A 
ATOM     23  C   UNL     1      12.753   7.615   7.060  0.00  0.00    +0.024 A 
ATOM     25  C   UNL     1      13.955   7.008   6.711  0.00  0.00    +0.003 A 
ATOM     26  C   UNL     1      14.857   9.166   6.276  0.00  0.00    +0.111 A 
ATOM     29  C   UNL     1      15.031   7.792   6.311  0.00  0.00    +0.020 A 
ENDBRANCH  20  21
ENDBRANCH   3  20
ENDBRANCH  14   3
ENDBRANCH   8  14
BRANCH  10  15
ATOM     15  C   UNL     1      10.997   6.288   4.221  0.00  0.00    +0.105 C 
BRANCH  15  19
ATOM      2  O   UNL     1      12.485   5.498   2.455  0.00  0.00    -0.420 OA
ATOM      4  N   UNL     1      10.993   3.980   3.142  0.00  0.00    -0.112 NA
ATOM      5  N   UNL     1      11.762   3.404   2.149  0.00  0.00    -0.107 NA
ATOM     19  C   UNL     1      11.449   5.203   3.287  0.00  0.00    +0.218 A 
ATOM     22  C   UNL     1      12.620   4.326   1.778  0.00  0.00    +0.251 A 
BRANCH  22  24
ATOM      1  F   UNL     1      15.213   3.446   2.378  0.00  0.00    -0.205 F 
ATOM     24  C   UNL     1      13.657   4.288   0.788  0.00  0.00    +0.074 A 
ATOM     27  C   UNL     1      14.935   3.843   1.127  0.00  0.00    +0.136 A 
ATOM     28  C   UNL     1      13.385   4.698  -0.517  0.00  0.00    +0.016 A 
ATOM     30  C   UNL     1      15.941   3.809   0.161  0.00  0.00    +0.039 A 
ATOM     31  C   UNL     1      14.391   4.665  -1.482  0.00  0.00    +0.001 A 
ATOM     32  C   UNL     1      15.669   4.220  -1.143  0.00  0.00    +0.003 A 
ENDBRANCH  22  24
ENDBRANCH  15  19
ENDBRANCH  10  15
TORSDOF 8
ENDMDL
MODEL 5
REMARK VINA RESULT:      -7.1     28.587     31.085
REMARK  Name = 38031080
REMARK  11 active torsions:
REMARK  status: ('A' for Active; 'I' for Inactive)
REMARK    1  A    between atoms: N_3  and  C_14
REMARK    2  A    between atoms: N_3  and  C_20
REMARK    3  A    between atoms: C_7  and  C_11
REMARK    4  A    between atoms: C_8  and  C_14
REMARK    5  A    between atoms: C_10  and  C_15
REMARK    6  A    between atoms: C_11  and  C_16
REMARK    7  A    between atoms: C_11  and  C_17
REMARK    8  A    between atoms: C_12  and  C_18
REMARK    9  A    between atoms: C_15  and  C_19
REMARK   10  A    between atoms: C_20  and  C_21
REMARK   11  A    between atoms: C_22  and  C_24
REMARK                            x       y       z     vdW  Elec       q    Type
REMARK                         _______ _______ _______ _____ _____    ______ ____
ROOT
ATOM      7  C   UNL     1      -6.692 -11.377  16.681  0.00  0.00    +0.000 C 
ATOM      8  C   UNL     1      -7.047 -11.517  18.182  0.00  0.00    +0.029 C 
ATOM      9  C   UNL     1      -5.583 -12.370  16.297  0.00  0.00    +0.012 C 
ATOM     10  C   UNL     1      -4.301 -12.159  17.124  0.00  0.00    +0.024 C 
ATOM     12  C   UNL     1      -4.600 -12.018  18.602  0.00  0.00    -0.073 C 
ATOM     13  C   UNL     1      -5.836 -11.745  19.057  0.00  0.00    -0.023 C 
ATOM     18  C   UNL     1      -3.456 -12.244  19.550  0.00  0.00    +0.039 C 
ENDROOT
BRANCH   7  11
ATOM     11  C   UNL     1      -7.914 -11.594  15.784  0.00  0.00    -0.013 C 
ATOM     16  C   UNL     1      -7.524 -11.475  14.314  0.00  0.00    +0.007 C 
ATOM     17  C   UNL     1      -8.549 -12.952  16.068  0.00  0.00    +0.007 C 
ENDBRANCH   7  11
BRANCH   8  14
ATOM     14  C   UNL     1      -7.818 -10.291  18.685  0.00  0.00    +0.089 C 
BRANCH  14   3
ATOM      3  N   UNL     1      -8.605 -10.627  19.859  0.00  0.00    -0.310 NA
ATOM     33  H   UNL     1      -7.992 -10.920  20.618  0.00  0.00    +0.122 HD
BRANCH   3  20
ATOM     20  C   UNL     1      -9.552 -11.696  19.566  0.00  0.00    +0.136 C 
BRANCH  20  21
ATOM      6  N   UNL     1     -11.586 -12.445  20.663  0.00  0.00    -0.259 NA
ATOM     21  C   UNL     1     -10.918 -11.404  20.119  0.00  0.00    +0.055 A 
ATOM     23  C   UNL     1     -11.416 -10.114  20.049  0.00  0.00    +0.024 A 
ATOM     25  C   UNL     1     -12.683  -9.876  20.570  0.00  0.00    +0.003 A 
ATOM     26  C   UNL     1     -12.815 -12.176  21.160  0.00  0.00    +0.111 A 
ATOM     29  C   UNL     1     -13.402 -10.921  21.138  0.00  0.00    +0.020 A 
ENDBRANCH  20  21
ENDBRANCH   3  20
ENDBRANCH  14   3
ENDBRANCH   8  14
BRANCH  10  15
ATOM     15  C   UNL     1      -3.503 -10.957  16.609  0.00  0.00    +0.105 C 
BRANCH  15  19
ATOM      2  O   UNL     1      -3.823 -10.407  14.252  0.00  0.00    -0.420 OA
ATOM      4  N   UNL     1      -2.190 -11.887  14.633  0.00  0.00    -0.112 NA
ATOM      5  N   UNL     1      -2.261 -11.671  13.270  0.00  0.00    -0.107 NA
ATOM     19  C   UNL     1      -3.120 -11.130  15.167  0.00  0.00    +0.218 A 
ATOM     22  C   UNL     1      -3.227 -10.800  13.094  0.00  0.00    +0.251 A 
BRANCH  22  24
ATOM      1  F   UNL     1      -1.543  -9.701  11.141  0.00  0.00    -0.205 F 
ATOM     24  C   UNL     1      -3.742 -10.210  11.892  0.00  0.00    +0.074 A 
ATOM     27  C   UNL     1      -2.870  -9.674  10.944  0.00  0.00    +0.136 A 
ATOM     28  C   UNL     1      -5.119 -10.174  11.672  0.00  0.00    +0.016 A 
ATOM     30  C   UNL     1      -3.375  -9.101   9.777  0.00  0.00    +0.039 A 
ATOM     31  C   UNL     1      -5.623  -9.600  10.506  0.00  0.00    +0.001 A 
ATOM     32  C   UNL     1      -4.752  -9.063   9.557  0.00  0.00    +0.003 A 
ENDBRANCH  22  24
ENDBRANCH  15  19
ENDBRANCH  10  15
TORSDOF 8
ENDMDL
MODEL 6
REMARK VINA RESULT:      -7.0     28.019     31.279
REMARK  Name = 38031080
REMARK  11 active torsions:
REMARK  status: ('A' for Active; 'I' for Inactive)
REMARK    1  A    between atoms: N_3  and  C_14
REMARK    2  A    between atoms: N_3  and  C_20
REMARK    3  A    between atoms: C_7  and  C_11
REMARK    4  A    between atoms: C_8  and  C_14
REMARK    5  A    between atoms: C_10  and  C_15
REMARK    6  A    between atoms: C_11  and  C_16
REMARK    7  A    between atoms: C_11  and  C_17
REMARK    8  A    between atoms: C_12  and  C_18
REMARK    9  A    between atoms: C_15  and  C_19
REMARK   10  A    between atoms: C_20  and  C_21
REMARK   11  A    between atoms: C_22  and  C_24
REMARK                            x       y       z     vdW  Elec       q    Type
REMARK                         _______ _______ _______ _____ _____    ______ ____
ROOT
ATOM      7  C   UNL     1      -4.426 -11.718  13.435  0.00  0.00    +0.000 C 
ATOM      8  C   UNL     1      -2.967 -11.644  12.921  0.00  0.00    +0.029 C 
ATOM      9  C   UNL     1      -5.413 -11.663  12.258  0.00  0.00    +0.012 C 
ATOM     10  C   UNL     1      -5.253 -10.378  11.425  0.00  0.00    +0.024 C 
ATOM     12  C   UNL     1      -3.801 -10.091  11.104  0.00  0.00    -0.073 C 
ATOM     13  C   UNL     1      -2.793 -10.676  11.774  0.00  0.00    -0.023 C 
ATOM     18  C   UNL     1      -3.533  -9.150   9.963  0.00  0.00    +0.039 C 
ENDROOT
BRANCH   7  11
ATOM     11  C   UNL     1      -4.675 -12.984  14.262  0.00  0.00    -0.013 C 
ATOM     16  C   UNL     1      -6.065 -12.947  14.887  0.00  0.00    +0.007 C 
ATOM     17  C   UNL     1      -4.504 -14.228  13.395  0.00  0.00    +0.007 C 
ENDBRANCH   7  11
BRANCH   8  14
ATOM     14  C   UNL     1      -2.000 -11.275  14.052  0.00  0.00    +0.089 C 
BRANCH  14   3
ATOM      3  N   UNL     1      -2.601 -10.297  14.942  0.00  0.00    -0.310 NA
ATOM     33  H   UNL     1      -2.189  -9.378  14.782  0.00  0.00    +0.122 HD
BRANCH   3  20
ATOM     20  C   UNL     1      -2.411 -10.672  16.339  0.00  0.00    +0.136 C 
BRANCH  20  21
ATOM      6  N   UNL     1      -3.765 -11.663  18.095  0.00  0.00    -0.259 NA
ATOM     21  C   UNL     1      -3.716 -10.779  17.074  0.00  0.00    +0.055 A 
ATOM     23  C   UNL     1      -4.782  -9.986  16.683  0.00  0.00    +0.024 A 
ATOM     25  C   UNL     1      -5.977 -10.108  17.384  0.00  0.00    +0.003 A 
ATOM     26  C   UNL     1      -4.942 -11.754  18.755  0.00  0.00    +0.111 A 
ATOM     29  C   UNL     1      -6.065 -11.007  18.442  0.00  0.00    +0.020 A 
ENDBRANCH  20  21
ENDBRANCH   3  20
ENDBRANCH  14   3
ENDBRANCH   8  14
BRANCH  10  15
ATOM     15  C   UNL     1      -5.908  -9.181  12.124  0.00  0.00    +0.105 C 
BRANCH  15  19
ATOM      2  O   UNL     1      -7.343  -9.595  14.054  0.00  0.00    -0.420 OA
ATOM      4  N   UNL     1      -8.370  -9.833  12.082  0.00  0.00    -0.112 NA
ATOM      5  N   UNL     1      -9.292 -10.095  13.077  0.00  0.00    -0.107 NA
ATOM     19  C   UNL     1      -7.247  -9.546  12.697  0.00  0.00    +0.218 A 
ATOM     22  C   UNL     1      -8.649  -9.943  14.211  0.00  0.00    +0.251 A 
BRANCH  22  24
ATOM      1  F   UNL     1      -9.332  -7.730  15.790  0.00  0.00    -0.205 F 
ATOM     24  C   UNL     1      -9.102 -10.086  15.565  0.00  0.00    +0.074 A 
ATOM     27  C   UNL     1      -9.433  -8.959  16.317  0.00  0.00    +0.136 A 
ATOM     28  C   UNL     1      -9.212 -11.358  16.128  0.00  0.00    +0.016 A 
ATOM     30  C   UNL     1      -9.872  -9.103  17.633  0.00  0.00    +0.039 A 
ATOM     31  C   UNL     1      -9.650 -11.501  17.445  0.00  0.00    +0.001 A 
ATOM     32  C   UNL     1      -9.981 -10.373  18.198  0.00  0.00    +0.003 A 
ENDBRANCH  22  24
ENDBRANCH  15  19
ENDBRANCH  10  15
TORSDOF 8
ENDMDL
MODEL 7
REMARK VINA RESULT:      -6.8     28.302     31.473
REMARK  Name = 38031080
REMARK  11 active torsions:
REMARK  status: ('A' for Active; 'I' for Inactive)
REMARK    1  A    between atoms: N_3  and  C_14
REMARK    2  A    between atoms: N_3  and  C_20
REMARK    3  A    between atoms: C_7  and  C_11
REMARK    4  A    between atoms: C_8  and  C_14
REMARK    5  A    between atoms: C_10  and  C_15
REMARK    6  A    between atoms: C_11  and  C_16
REMARK    7  A    between atoms: C_11  and  C_17
REMARK    8  A    between atoms: C_12  and  C_18
REMARK    9  A    between atoms: C_15  and  C_19
REMARK   10  A    between atoms: C_20  and  C_21
REMARK   11  A    between atoms: C_22  and  C_24
REMARK                            x       y       z     vdW  Elec       q    Type
REMARK                         _______ _______ _______ _____ _____    ______ ____
ROOT
ATOM      7  C   UNL     1      -3.853 -12.107  13.328  0.00  0.00    +0.000 C 
ATOM      8  C   UNL     1      -2.383 -11.621  13.380  0.00  0.00    +0.029 C 
ATOM      9  C   UNL     1      -4.326 -12.232  11.871  0.00  0.00    +0.012 C 
ATOM     10  C   UNL     1      -4.226 -10.897  11.110  0.00  0.00    +0.024 C 
ATOM     12  C   UNL     1      -2.889 -10.220  11.332  0.00  0.00    -0.073 C 
ATOM     13  C   UNL     1      -2.073 -10.566  12.343  0.00  0.00    -0.023 C 
ATOM     18  C   UNL     1      -2.489  -9.167  10.336  0.00  0.00    +0.039 C 
ENDROOT
BRANCH   7  11
ATOM     11  C   UNL     1      -4.035 -13.446  14.049  0.00  0.00    -0.013 C 
ATOM     16  C   UNL     1      -5.349 -13.459  14.824  0.00  0.00    +0.007 C 
ATOM     17  C   UNL     1      -3.983 -14.599  13.051  0.00  0.00    +0.007 C 
ENDBRANCH   7  11
BRANCH   8  14
ATOM     14  C   UNL     1      -2.025 -11.089  14.772  0.00  0.00    +0.089 C 
BRANCH  14   3
ATOM      3  N   UNL     1      -3.111 -10.288  15.310  0.00  0.00    -0.310 NA
ATOM     33  H   UNL     1      -2.863  -9.299  15.282  0.00  0.00    +0.122 HD
BRANCH   3  20
ATOM     20  C   UNL     1      -3.412 -10.668  16.685  0.00  0.00    +0.136 C 
BRANCH  20  21
ATOM      6  N   UNL     1      -5.217 -10.683  18.310  0.00  0.00    -0.259 NA
ATOM     21  C   UNL     1      -4.835 -10.362  17.055  0.00  0.00    +0.055 A 
ATOM     23  C   UNL     1      -5.669  -9.778  16.115  0.00  0.00    +0.024 A 
ATOM     25  C   UNL     1      -6.981  -9.507  16.488  0.00  0.00    +0.003 A 
ATOM     26  C   UNL     1      -6.499 -10.403  18.638  0.00  0.00    +0.111 A 
ATOM     29  C   UNL     1      -7.411  -9.822  17.772  0.00  0.00    +0.020 A 
ENDBRANCH  20  21
ENDBRANCH   3  20
ENDBRANCH  14   3
ENDBRANCH   8  14
BRANCH  10  15
ATOM     15  C   UNL     1      -5.382  -9.961  11.482  0.00  0.00    +0.105 C 
BRANCH  15  19
ATOM      2  O   UNL     1      -7.199  -8.686  10.467  0.00  0.00    -0.420 OA
ATOM      4  N   UNL     1      -5.952  -9.825   9.002  0.00  0.00    -0.112 NA
ATOM      5  N   UNL     1      -6.933  -9.156   8.297  0.00  0.00    -0.107 NA
ATOM     19  C   UNL     1      -6.145  -9.523  10.265  0.00  0.00    +0.218 A 
ATOM     22  C   UNL     1      -7.638  -8.503   9.192  0.00  0.00    +0.251 A 
BRANCH  22  24
ATOM      1  F   UNL     1      -7.429  -5.953   8.048  0.00  0.00    -0.205 F 
ATOM     24  C   UNL     1      -8.776  -7.645   9.037  0.00  0.00    +0.074 A 
ATOM     27  C   UNL     1      -8.630  -6.383   8.462  0.00  0.00    +0.136 A 
ATOM     28  C   UNL     1     -10.033  -8.077   9.462  0.00  0.00    +0.016 A 
ATOM     30  C   UNL     1      -9.741  -5.551   8.313  0.00  0.00    +0.039 A 
ATOM     31  C   UNL     1     -11.142  -7.245   9.314  0.00  0.00    +0.001 A 
ATOM     32  C   UNL     1     -10.997  -5.982   8.739  0.00  0.00    +0.003 A 
ENDBRANCH  22  24
ENDBRANCH  15  19
ENDBRANCH  10  15
TORSDOF 8
ENDMDL
MODEL 8
REMARK VINA RESULT:      -6.6     18.153     21.640
REMARK  Name = 38031080
REMARK  11 active torsions:
REMARK  status: ('A' for Active; 'I' for Inactive)
REMARK    1  A    between atoms: N_3  and  C_14
REMARK    2  A    between atoms: N_3  and  C_20
REMARK    3  A    between atoms: C_7  and  C_11
REMARK    4  A    between atoms: C_8  and  C_14
REMARK    5  A    between atoms: C_10  and  C_15
REMARK    6  A    between atoms: C_11  and  C_16
REMARK    7  A    between atoms: C_11  and  C_17
REMARK    8  A    between atoms: C_12  and  C_18
REMARK    9  A    between atoms: C_15  and  C_19
REMARK   10  A    between atoms: C_20  and  C_21
REMARK   11  A    between atoms: C_22  and  C_24
REMARK                            x       y       z     vdW  Elec       q    Type
REMARK                         _______ _______ _______ _____ _____    ______ ____
ROOT
ATOM      7  C   UNL     1       9.829   7.452   4.454  0.00  0.00    +0.000 C 
ATOM      8  C   UNL     1       9.940   6.220   5.387  0.00  0.00    +0.029 C 
ATOM      9  C   UNL     1       9.340   7.028   3.060  0.00  0.00    +0.012 C 
ATOM     10  C   UNL     1      10.279   6.000   2.402  0.00  0.00    +0.024 C 
ATOM     12  C   UNL     1      10.652   4.884   3.357  0.00  0.00    -0.073 C 
ATOM     13  C   UNL     1      10.480   4.995   4.686  0.00  0.00    -0.023 C 
ATOM     18  C   UNL     1      11.183   3.619   2.745  0.00  0.00    +0.039 C 
ENDROOT
BRANCH   7  11
ATOM     11  C   UNL     1       8.892   8.519   5.030  0.00  0.00    -0.013 C 
ATOM     16  C   UNL     1       9.644   9.829   5.241  0.00  0.00    +0.007 C 
ATOM     17  C   UNL     1       7.692   8.725   4.112  0.00  0.00    +0.007 C 
ENDBRANCH   7  11
BRANCH   8  14
ATOM     14  C   UNL     1      10.806   6.530   6.614  0.00  0.00    +0.089 C 
BRANCH  14   3
ATOM      3  N   UNL     1      12.196   6.197   6.357  0.00  0.00    -0.310 NA
ATOM     33  H   UNL     1      12.431   5.311   6.804  0.00  0.00    +0.122 HD
BRANCH   3  20
ATOM     20  C   UNL     1      13.086   7.238   6.857  0.00  0.00    +0.136 C 
BRANCH  20  21
ATOM      6  N   UNL     1      15.339   8.010   6.378  0.00  0.00    -0.259 NA
ATOM     21  C   UNL     1      14.164   7.579   5.869  0.00  0.00    +0.055 A 
ATOM     23  C   UNL     1      13.910   7.439   4.514  0.00  0.00    +0.024 A 
ATOM     25  C   UNL     1      14.929   7.763   3.624  0.00  0.00    +0.003 A 
ATOM     26  C   UNL     1      16.306   8.315   5.483  0.00  0.00    +0.111 A 
ATOM     29  C   UNL     1      16.152   8.210   4.110  0.00  0.00    +0.020 A 
ENDBRANCH  20  21
ENDBRANCH   3  20
ENDBRANCH  14   3
ENDBRANCH   8  14
BRANCH  10  15
ATOM     15  C   UNL     1      11.531   6.679   1.836  0.00  0.00    +0.105 C 
BRANCH  15  19
ATOM      2  O   UNL     1      10.953   5.330  -0.114  0.00  0.00    -0.420 OA
ATOM      4  N   UNL     1      12.648   6.749  -0.453  0.00  0.00    -0.112 NA
ATOM      5  N   UNL     1      12.431   6.056  -1.628  0.00  0.00    -0.107 NA
ATOM     19  C   UNL     1      11.764   6.293   0.404  0.00  0.00    +0.218 A 
ATOM     22  C   UNL     1      11.432   5.239  -1.385  0.00  0.00    +0.251 A 
BRANCH  22  24
ATOM      1  F   UNL     1      12.206   2.546  -1.457  0.00  0.00    -0.205 F 
ATOM     24  C   UNL     1      10.782   4.284  -2.234  0.00  0.00    +0.074 A 
ATOM     27  C   UNL     1      11.196   2.953  -2.240  0.00  0.00    +0.136 A 
ATOM     28  C   UNL     1       9.730   4.691  -3.056  0.00  0.00    +0.016 A 
ATOM     30  C   UNL     1      10.561   2.028  -3.069  0.00  0.00    +0.039 A 
ATOM     31  C   UNL     1       9.095   3.767  -3.885  0.00  0.00    +0.001 A 
ATOM     32  C   UNL     1       9.510   2.434  -3.891  0.00  0.00    +0.003 A 
ENDBRANCH  22  24
ENDBRANCH  15  19
ENDBRANCH  10  15
TORSDOF 8
ENDMDL
MODEL 9
REMARK VINA RESULT:      -6.5     17.763     21.118
REMARK  Name = 38031080
REMARK  11 active torsions:
REMARK  status: ('A' for Active; 'I' for Inactive)
REMARK    1  A    between atoms: N_3  and  C_14
REMARK    2  A    between atoms: N_3  and  C_20
REMARK    3  A    between atoms: C_7  and  C_11
REMARK    4  A    between atoms: C_8  and  C_14
REMARK    5  A    between atoms: C_10  and  C_15
REMARK    6  A    between atoms: C_11  and  C_16
REMARK    7  A    between atoms: C_11  and  C_17
REMARK    8  A    between atoms: C_12  and  C_18
REMARK    9  A    between atoms: C_15  and  C_19
REMARK   10  A    between atoms: C_20  and  C_21
REMARK   11  A    between atoms: C_22  and  C_24
REMARK                            x       y       z     vdW  Elec       q    Type
REMARK                         _______ _______ _______ _____ _____    ______ ____
ROOT
ATOM      7  C   UNL     1       8.537   9.027   2.925  0.00  0.00    +0.000 C 
ATOM      8  C   UNL     1       7.874   8.519   4.229  0.00  0.00    +0.029 C 
ATOM      9  C   UNL     1       8.781   7.858   1.956  0.00  0.00    +0.012 C 
ATOM     10  C   UNL     1       9.682   6.771   2.572  0.00  0.00    +0.024 C 
ATOM     12  C   UNL     1       9.247   6.406   3.976  0.00  0.00    -0.073 C 
ATOM     13  C   UNL     1       8.427   7.193   4.696  0.00  0.00    -0.023 C 
ATOM     18  C   UNL     1       9.737   5.093   4.518  0.00  0.00    +0.039 C 
ENDROOT
BRANCH   7  11
ATOM     11  C   UNL     1       7.690  10.102   2.236  0.00  0.00    -0.013 C 
ATOM     16  C   UNL     1       8.489  11.393   2.087  0.00  0.00    +0.007 C 
ATOM     17  C   UNL     1       7.202   9.607   0.878  0.00  0.00    +0.007 C 
ENDBRANCH   7  11
BRANCH   8  14
ATOM     14  C   UNL     1       8.004   9.552   5.354  0.00  0.00    +0.089 C 
BRANCH  14   3
ATOM      3  N   UNL     1       9.392   9.698   5.758  0.00  0.00    -0.310 NA
ATOM     33  H   UNL     1       9.971   9.012   5.274  0.00  0.00    +0.122 HD
BRANCH   3  20
ATOM     20  C   UNL     1       9.540   9.520   7.198  0.00  0.00    +0.136 C 
BRANCH  20  21
ATOM      6  N   UNL     1      11.095   7.653   7.202  0.00  0.00    -0.259 NA
ATOM     21  C   UNL     1       9.870   8.099   7.557  0.00  0.00    +0.055 A 
ATOM     23  C   UNL     1       8.927   7.331   8.220  0.00  0.00    +0.024 A 
ATOM     25  C   UNL     1       9.262   6.019   8.538  0.00  0.00    +0.003 A 
ATOM     26  C   UNL     1      11.387   6.374   7.529  0.00  0.00    +0.111 A 
ATOM     29  C   UNL     1      10.514   5.525   8.190  0.00  0.00    +0.020 A 
ENDBRANCH  20  21
ENDBRANCH   3  20
ENDBRANCH  14   3
ENDBRANCH   8  14
BRANCH  10  15
ATOM     15  C   UNL     1      11.154   7.194   2.546  0.00  0.00    +0.105 C 
BRANCH  15  19
ATOM      2  O   UNL     1      11.210   5.667   0.643  0.00  0.00    -0.420 OA
ATOM      4  N   UNL     1      13.061   6.900   0.882  0.00  0.00    -0.112 NA
ATOM      5  N   UNL     1      13.229   6.088  -0.224  0.00  0.00    -0.107 NA
ATOM     19  C   UNL     1      11.869   6.620   1.357  0.00  0.00    +0.218 A 
ATOM     22  C   UNL     1      12.124   5.386  -0.326  0.00  0.00    +0.251 A 
BRANCH  22  24
ATOM      1  F   UNL     1      13.378   2.883  -0.445  0.00  0.00    -0.205 F 
ATOM     24  C   UNL     1      11.739   4.389  -1.282  0.00  0.00    +0.074 A 
ATOM     27  C   UNL     1      12.388   3.155  -1.308  0.00  0.00    +0.136 A 
ATOM     28  C   UNL     1      10.711   4.656  -2.186  0.00  0.00    +0.016 A 
ATOM     30  C   UNL     1      12.010   2.188  -2.240  0.00  0.00    +0.039 A 
ATOM     31  C   UNL     1      10.334   3.689  -3.118  0.00  0.00    +0.001 A 
ATOM     32  C   UNL     1      10.984   2.454  -3.145  0.00  0.00    +0.003 A 
ENDBRANCH  22  24
ENDBRANCH  15  19
ENDBRANCH  10  15
TORSDOF 8
ENDMDL
MODEL 10
REMARK VINA RESULT:      -6.5     28.219     31.261
REMARK  Name = 38031080
REMARK  11 active torsions:
REMARK  status: ('A' for Active; 'I' for Inactive)
REMARK    1  A    between atoms: N_3  and  C_14
REMARK    2  A    between atoms: N_3  and  C_20
REMARK    3  A    between atoms: C_7  and  C_11
REMARK    4  A    between atoms: C_8  and  C_14
REMARK    5  A    between atoms: C_10  and  C_15
REMARK    6  A    between atoms: C_11  and  C_16
REMARK    7  A    between atoms: C_11  and  C_17
REMARK    8  A    between atoms: C_12  and  C_18
REMARK    9  A    between atoms: C_15  and  C_19
REMARK   10  A    between atoms: C_20  and  C_21
REMARK   11  A    between atoms: C_22  and  C_24
REMARK                            x       y       z     vdW  Elec       q    Type
REMARK                         _______ _______ _______ _____ _____    ______ ____
ROOT
ATOM      7  C   UNL     1      -5.928 -11.392  10.773  0.00  0.00    +0.000 C 
ATOM      8  C   UNL     1      -5.412 -10.865   9.412  0.00  0.00    +0.029 C 
ATOM      9  C   UNL     1      -5.590 -10.399  11.897  0.00  0.00    +0.012 C 
ATOM     10  C   UNL     1      -4.075 -10.147  12.013  0.00  0.00    +0.024 C 
ATOM     12  C   UNL     1      -3.442  -9.882  10.662  0.00  0.00    -0.073 C 
ATOM     13  C   UNL     1      -4.060 -10.197   9.510  0.00  0.00    -0.023 C 
ATOM     18  C   UNL     1      -2.101  -9.204  10.664  0.00  0.00    +0.039 C 
ENDROOT
BRANCH   7  11
ATOM     11  C   UNL     1      -7.438 -11.651  10.748  0.00  0.00    -0.013 C 
ATOM     16  C   UNL     1      -7.917 -12.140  12.112  0.00  0.00    +0.007 C 
ATOM     17  C   UNL     1      -8.188 -10.390  10.331  0.00  0.00    +0.007 C 
ENDBRANCH   7  11
BRANCH   8  14
ATOM     14  C   UNL     1      -5.352 -11.989   8.370  0.00  0.00    +0.089 C 
BRANCH  14   3
ATOM      3  N   UNL     1      -4.439 -11.641   7.294  0.00  0.00    -0.310 NA
ATOM     33  H   UNL     1      -3.815 -10.893   7.594  0.00  0.00    +0.122 HD
BRANCH   3  20
ATOM     20  C   UNL     1      -5.168 -11.211   6.107  0.00  0.00    +0.136 C 
BRANCH  20  21
ATOM      6  N   UNL     1      -5.539 -12.104   3.878  0.00  0.00    -0.259 NA
ATOM     21  C   UNL     1      -4.642 -11.861   4.859  0.00  0.00    +0.055 A 
ATOM     23  C   UNL     1      -3.295 -12.172   4.772  0.00  0.00    +0.024 A 
ATOM     25  C   UNL     1      -2.839 -12.772   3.604  0.00  0.00    +0.003 A 
ATOM     26  C   UNL     1      -5.060 -12.688   2.757  0.00  0.00    +0.111 A 
ATOM     29  C   UNL     1      -3.732 -13.038   2.572  0.00  0.00    +0.020 A 
ENDBRANCH  20  21
ENDBRANCH   3  20
ENDBRANCH  14   3
ENDBRANCH   8  14
BRANCH  10  15
ATOM     15  C   UNL     1      -3.375 -11.308  12.729  0.00  0.00    +0.105 C 
BRANCH  15  19
ATOM      2  O   UNL     1      -4.175 -11.189  15.032  0.00  0.00    -0.420 OA
ATOM      4  N   UNL     1      -2.049 -10.547  14.767  0.00  0.00    -0.112 NA
ATOM      5  N   UNL     1      -2.367 -10.430  16.107  0.00  0.00    -0.107 NA
ATOM     19  C   UNL     1      -3.134 -10.993  14.177  0.00  0.00    +0.218 A 
ATOM     22  C   UNL     1      -3.617 -10.816  16.215  0.00  0.00    +0.251 A 
BRANCH  22  24
ATOM      1  F   UNL     1      -6.003  -9.359  16.409  0.00  0.00    -0.205 F 
ATOM     24  C   UNL     1      -4.468 -10.903  17.366  0.00  0.00    +0.074 A 
ATOM     27  C   UNL     1      -5.648 -10.162  17.423  0.00  0.00    +0.136 A 
ATOM     28  C   UNL     1      -4.113 -11.734  18.429  0.00  0.00    +0.016 A 
ATOM     30  C   UNL     1      -6.473 -10.250  18.545  0.00  0.00    +0.039 A 
ATOM     31  C   UNL     1      -4.938 -11.820  19.551  0.00  0.00    +0.001 A 
ATOM     32  C   UNL     1      -6.118 -11.078  19.609  0.00  0.00    +0.003 A 
ENDBRANCH  22  24
ENDBRANCH  15  19
ENDBRANCH  10  15
TORSDOF 8
ENDMDL
