MODEL 1
REMARK VINA RESULT:      -7.1      0.000      0.000
REMARK  Name = 56775056
REMARK  4 active torsions:
REMARK  status: ('A' for Active; 'I' for Inactive)
REMARK    1  A    between atoms: N_4  and  C_11
REMARK    2  A    between atoms: N_5  and  C_14
REMARK    3  A    between atoms: C_11  and  C_15
REMARK    4  A    between atoms: C_14  and  C_16
REMARK                            x       y       z     vdW  Elec       q    Type
REMARK                         _______ _______ _______ _____ _____    ______ ____
ROOT
ATOM      2  O   UNL     1      13.190  10.631  17.845  0.00  0.00    -0.364 OA
ATOM      3  O   UNL     1      13.933   7.330  16.860  0.00  0.00    -0.273 OA
ATOM      4  N   UNL     1      12.634  10.901  21.081  0.00  0.00    -0.292 NA
ATOM      5  N   UNL     1      14.065   8.279  18.981  0.00  0.00    -0.288 N 
ATOM      7  C   UNL     1      13.937   9.466  19.822  0.00  0.00    +0.120 C 
ATOM      8  C   UNL     1      13.906  10.791  19.066  0.00  0.00    +0.154 C 
ATOM      9  C   UNL     1      12.630   9.517  20.608  0.00  0.00    +0.110 C 
ATOM     10  C   UNL     1      13.097  11.733  19.963  0.00  0.00    +0.118 C 
ATOM     12  C   UNL     1      13.924   8.317  17.597  0.00  0.00    +0.242 C 
ATOM     13  C   UNL     1      13.834   9.705  17.001  0.00  0.00    +0.256 C 
ENDROOT
BRANCH   4  11
ATOM     11  C   UNL     1      11.343  11.320  21.603  0.00  0.00    +0.140 C 
BRANCH  11  15
ATOM      6  N   UNL     1      12.072  13.134  23.045  0.00  0.00    -0.259 NA
ATOM     15  C   UNL     1      11.461  11.932  22.969  0.00  0.00    +0.055 A 
ATOM     17  C   UNL     1      10.949  11.252  24.062  0.00  0.00    +0.024 A 
ATOM     22  C   UNL     1      11.073  11.844  25.313  0.00  0.00    +0.003 A 
ATOM     23  C   UNL     1      12.175  13.680  24.277  0.00  0.00    +0.111 A 
ATOM     25  C   UNL     1      11.697  13.082  25.432  0.00  0.00    +0.020 A 
ENDBRANCH  11  15
ENDBRANCH   4  11
BRANCH   5  14
ATOM     14  C   UNL     1      14.255   7.003  19.660  0.00  0.00    +0.143 C 
BRANCH  14  16
ATOM      1  F   UNL     1      19.704   5.850  20.486  0.00  0.00    -0.205 F 
ATOM     16  C   UNL     1      15.708   6.696  19.879  0.00  0.00    -0.030 A 
ATOM     18  C   UNL     1      16.327   7.068  21.073  0.00  0.00    +0.008 A 
ATOM     19  C   UNL     1      16.440   6.037  18.891  0.00  0.00    +0.008 A 
ATOM     20  C   UNL     1      17.677   6.784  21.278  0.00  0.00    +0.038 A 
ATOM     21  C   UNL     1      17.790   5.751  19.096  0.00  0.00    +0.038 A 
ATOM     24  C   UNL     1      18.408   6.125  20.290  0.00  0.00    +0.123 A 
ENDBRANCH  14  16
ENDBRANCH   5  14
TORSDOF 4
ENDMDL
MODEL 2
REMARK VINA RESULT:      -6.6      3.175      4.356
REMARK  Name = 56775056
REMARK  4 active torsions:
REMARK  status: ('A' for Active; 'I' for Inactive)
REMARK    1  A    between atoms: N_4  and  C_11
REMARK    2  A    between atoms: N_5  and  C_14
REMARK    3  A    between atoms: C_11  and  C_15
REMARK    4  A    between atoms: C_14  and  C_16
REMARK                            x       y       z     vdW  Elec       q    Type
REMARK                         _______ _______ _______ _____ _____    ______ ____
ROOT
ATOM      2  O   UNL     1      11.553   7.262  21.820  0.00  0.00    -0.364 OA
ATOM      3  O   UNL     1      14.539   6.504  20.107  0.00  0.00    -0.273 OA
ATOM      4  N   UNL     1      11.334  10.443  22.650  0.00  0.00    -0.292 NA
ATOM      5  N   UNL     1      13.513   8.573  20.394  0.00  0.00    -0.288 N 
ATOM      7  C   UNL     1      12.382   9.338  20.911  0.00  0.00    +0.120 C 
ATOM      8  C   UNL     1      11.149   8.510  21.264  0.00  0.00    +0.154 C 
ATOM      9  C   UNL     1      12.677  10.048  22.229  0.00  0.00    +0.110 C 
ATOM     10  C   UNL     1      10.446   9.308  22.366  0.00  0.00    +0.118 C 
ATOM     12  C   UNL     1      13.569   7.184  20.446  0.00  0.00    +0.242 C 
ATOM     13  C   UNL     1      12.287   6.507  20.884  0.00  0.00    +0.256 C 
ENDROOT
BRANCH   4  11
ATOM     11  C   UNL     1      11.282  10.869  24.039  0.00  0.00    +0.140 C 
BRANCH  11  15
ATOM      6  N   UNL     1      10.650  12.982  23.021  0.00  0.00    -0.259 NA
ATOM     15  C   UNL     1      10.897  12.315  24.170  0.00  0.00    +0.055 A 
ATOM     17  C   UNL     1      10.814  12.883  25.431  0.00  0.00    +0.024 A 
ATOM     22  C   UNL     1      10.455  14.222  25.519  0.00  0.00    +0.003 A 
ATOM     23  C   UNL     1      10.304  14.283  23.145  0.00  0.00    +0.111 A 
ATOM     25  C   UNL     1      10.193  14.944  24.358  0.00  0.00    +0.020 A 
ENDBRANCH  11  15
ENDBRANCH   4  11
BRANCH   5  14
ATOM     14  C   UNL     1      14.654   9.331  19.897  0.00  0.00    +0.143 C 
BRANCH  14  16
ATOM      1  F   UNL     1      13.787  11.270  14.683  0.00  0.00    -0.205 F 
ATOM     16  C   UNL     1      14.423   9.847  18.507  0.00  0.00    -0.030 A 
ATOM     18  C   UNL     1      14.444  11.221  18.261  0.00  0.00    +0.008 A 
ATOM     19  C   UNL     1      14.187   8.955  17.461  0.00  0.00    +0.008 A 
ATOM     20  C   UNL     1      14.228  11.701  16.969  0.00  0.00    +0.038 A 
ATOM     21  C   UNL     1      13.972   9.436  16.169  0.00  0.00    +0.038 A 
ATOM     24  C   UNL     1      13.993  10.809  15.923  0.00  0.00    +0.123 A 
ENDBRANCH  14  16
ENDBRANCH   5  14
TORSDOF 4
ENDMDL
MODEL 3
REMARK VINA RESULT:      -6.3      3.601      4.693
REMARK  Name = 56775056
REMARK  4 active torsions:
REMARK  status: ('A' for Active; 'I' for Inactive)
REMARK    1  A    between atoms: N_4  and  C_11
REMARK    2  A    between atoms: N_5  and  C_14
REMARK    3  A    between atoms: C_11  and  C_15
REMARK    4  A    between atoms: C_14  and  C_16
REMARK                            x       y       z     vdW  Elec       q    Type
REMARK                         _______ _______ _______ _____ _____    ______ ____
ROOT
ATOM      2  O   UNL     1      10.749   8.528  22.928  0.00  0.00    -0.364 OA
ATOM      3  O   UNL     1      11.291   5.698  20.898  0.00  0.00    -0.273 OA
ATOM      4  N   UNL     1      13.099  10.811  22.585  0.00  0.00    -0.292 NA
ATOM      5  N   UNL     1      12.177   7.839  20.675  0.00  0.00    -0.288 N 
ATOM      7  C   UNL     1      12.232   9.217  21.153  0.00  0.00    +0.120 C 
ATOM      8  C   UNL     1      11.092   9.623  22.083  0.00  0.00    +0.154 C 
ATOM      9  C   UNL     1      13.462   9.518  22.006  0.00  0.00    +0.110 C 
ATOM     10  C   UNL     1      11.684  10.726  22.966  0.00  0.00    +0.118 C 
ATOM     12  C   UNL     1      11.308   6.891  21.206  0.00  0.00    +0.242 C 
ATOM     13  C   UNL     1      10.277   7.437  22.171  0.00  0.00    +0.256 C 
ENDROOT
BRANCH   4  11
ATOM     11  C   UNL     1      13.962  11.192  23.692  0.00  0.00    +0.140 C 
BRANCH  11  15
ATOM      6  N   UNL     1      13.590  13.583  23.468  0.00  0.00    -0.259 NA
ATOM     15  C   UNL     1      13.560  12.510  24.289  0.00  0.00    +0.055 A 
ATOM     17  C   UNL     1      13.185  12.564  25.622  0.00  0.00    +0.024 A 
ATOM     22  C   UNL     1      12.818  13.798  26.145  0.00  0.00    +0.003 A 
ATOM     23  C   UNL     1      13.227  14.766  24.011  0.00  0.00    +0.111 A 
ATOM     25  C   UNL     1      12.836  14.926  25.331  0.00  0.00    +0.020 A 
ENDBRANCH  11  15
ENDBRANCH   4  11
BRANCH   5  14
ATOM     14  C   UNL     1      13.152   7.448  19.664  0.00  0.00    +0.143 C 
BRANCH  14  16
ATOM      1  F   UNL     1      12.470  10.316  14.867  0.00  0.00    -0.205 F 
ATOM     16  C   UNL     1      12.971   8.213  18.385  0.00  0.00    -0.030 A 
ATOM     18  C   UNL     1      11.739   8.194  17.730  0.00  0.00    +0.008 A 
ATOM     19  C   UNL     1      14.033   8.943  17.852  0.00  0.00    +0.008 A 
ATOM     20  C   UNL     1      11.570   8.903  16.541  0.00  0.00    +0.038 A 
ATOM     21  C   UNL     1      13.864   9.654  16.663  0.00  0.00    +0.038 A 
ATOM     24  C   UNL     1      12.632   9.634  16.008  0.00  0.00    +0.123 A 
ENDBRANCH  14  16
ENDBRANCH   5  14
TORSDOF 4
ENDMDL
MODEL 4
REMARK VINA RESULT:      -6.3     27.587     29.637
REMARK  Name = 56775056
REMARK  4 active torsions:
REMARK  status: ('A' for Active; 'I' for Inactive)
REMARK    1  A    between atoms: N_4  and  C_11
REMARK    2  A    between atoms: N_5  and  C_14
REMARK    3  A    between atoms: C_11  and  C_15
REMARK    4  A    between atoms: C_14  and  C_16
REMARK                            x       y       z     vdW  Elec       q    Type
REMARK                         _______ _______ _______ _____ _____    ______ ____
ROOT
ATOM      2  O   UNL     1      -4.292 -11.533  18.196  0.00  0.00    -0.364 OA
ATOM      3  O   UNL     1      -7.443 -12.662  19.300  0.00  0.00    -0.273 OA
ATOM      4  N   UNL     1      -4.271 -10.741  14.998  0.00  0.00    -0.292 NA
ATOM      5  N   UNL     1      -6.930 -11.400  17.413  0.00  0.00    -0.288 N 
ATOM      7  C   UNL     1      -5.920 -10.707  16.618  0.00  0.00    +0.120 C 
ATOM      8  C   UNL     1      -4.603 -10.437  17.341  0.00  0.00    +0.154 C 
ATOM      9  C   UNL     1      -5.456 -11.498  15.397  0.00  0.00    +0.110 C 
ATOM     10  C   UNL     1      -3.549 -10.397  16.230  0.00  0.00    +0.118 C 
ATOM     12  C   UNL     1      -6.647 -11.991  18.641  0.00  0.00    +0.242 C 
ATOM     13  C   UNL     1      -5.272 -11.687  19.196  0.00  0.00    +0.256 C 
ENDROOT
BRANCH   4  11
ATOM     11  C   UNL     1      -3.444 -11.455  14.039  0.00  0.00    +0.140 C 
BRANCH  11  15
ATOM      6  N   UNL     1      -4.429 -10.335  12.121  0.00  0.00    -0.259 NA
ATOM     15  C   UNL     1      -3.290 -10.695  12.753  0.00  0.00    +0.055 A 
ATOM     17  C   UNL     1      -2.019 -10.403  12.287  0.00  0.00    +0.024 A 
ATOM     22  C   UNL     1      -1.909  -9.697  11.095  0.00  0.00    +0.003 A 
ATOM     23  C   UNL     1      -4.284  -9.650  10.965  0.00  0.00    +0.111 A 
ATOM     25  C   UNL     1      -3.059  -9.309  10.414  0.00  0.00    +0.020 A 
ENDBRANCH  11  15
ENDBRANCH   4  11
BRANCH   5  14
ATOM     14  C   UNL     1      -8.254 -11.544  16.822  0.00  0.00    +0.143 C 
BRANCH  14  16
ATOM      1  F   UNL     1     -10.657  -6.552  15.813  0.00  0.00    -0.205 F 
ATOM     16  C   UNL     1      -8.895 -10.213  16.553  0.00  0.00    -0.030 A 
ATOM     18  C   UNL     1      -9.133  -9.328  17.605  0.00  0.00    +0.008 A 
ATOM     19  C   UNL     1      -9.252  -9.861  15.251  0.00  0.00    +0.008 A 
ATOM     20  C   UNL     1      -9.729  -8.092  17.356  0.00  0.00    +0.038 A 
ATOM     21  C   UNL     1      -9.847  -8.624  15.002  0.00  0.00    +0.038 A 
ATOM     24  C   UNL     1     -10.086  -7.739  16.054  0.00  0.00    +0.123 A 
ENDBRANCH  14  16
ENDBRANCH   5  14
TORSDOF 4
ENDMDL
MODEL 5
REMARK VINA RESULT:      -6.1      3.762      5.223
REMARK  Name = 56775056
REMARK  4 active torsions:
REMARK  status: ('A' for Active; 'I' for Inactive)
REMARK    1  A    between atoms: N_4  and  C_11
REMARK    2  A    between atoms: N_5  and  C_14
REMARK    3  A    between atoms: C_11  and  C_15
REMARK    4  A    between atoms: C_14  and  C_16
REMARK                            x       y       z     vdW  Elec       q    Type
REMARK                         _______ _______ _______ _____ _____    ______ ____
ROOT
ATOM      2  O   UNL     1      10.918   8.600  22.897  0.00  0.00    -0.364 OA
ATOM      3  O   UNL     1      11.179   5.663  20.965  0.00  0.00    -0.273 OA
ATOM      4  N   UNL     1      13.353  10.737  22.300  0.00  0.00    -0.292 NA
ATOM      5  N   UNL     1      12.155   7.742  20.589  0.00  0.00    -0.288 N 
ATOM      7  C   UNL     1      12.311   9.134  21.000  0.00  0.00    +0.120 C 
ATOM      8  C   UNL     1      11.259   9.639  21.984  0.00  0.00    +0.154 C 
ATOM      9  C   UNL     1      13.609   9.404  21.757  0.00  0.00    +0.110 C 
ATOM     10  C   UNL     1      11.963  10.745  22.776  0.00  0.00    +0.118 C 
ATOM     12  C   UNL     1      11.277   6.865  21.218  0.00  0.00    +0.242 C 
ATOM     13  C   UNL     1      10.342   7.505  22.222  0.00  0.00    +0.256 C 
ENDROOT
BRANCH   4  11
ATOM     11  C   UNL     1      14.306  11.118  23.330  0.00  0.00    +0.140 C 
BRANCH  11  15
ATOM      6  N   UNL     1      14.878  13.154  22.135  0.00  0.00    -0.259 NA
ATOM     15  C   UNL     1      15.337  12.080  22.814  0.00  0.00    +0.055 A 
ATOM     17  C   UNL     1      16.679  11.828  23.053  0.00  0.00    +0.024 A 
ATOM     22  C   UNL     1      17.608  12.738  22.563  0.00  0.00    +0.003 A 
ATOM     23  C   UNL     1      15.811  14.017  21.673  0.00  0.00    +0.111 A 
ATOM     25  C   UNL     1      17.175  13.856  21.858  0.00  0.00    +0.020 A 
ENDBRANCH  11  15
ENDBRANCH   4  11
BRANCH   5  14
ATOM     14  C   UNL     1      13.038   7.259  19.536  0.00  0.00    +0.143 C 
BRANCH  14  16
ATOM      1  F   UNL     1      12.588  10.329  14.837  0.00  0.00    -0.205 F 
ATOM     16  C   UNL     1      12.918   8.077  18.283  0.00  0.00    -0.030 A 
ATOM     18  C   UNL     1      14.050   8.677  17.730  0.00  0.00    +0.008 A 
ATOM     19  C   UNL     1      11.675   8.238  17.671  0.00  0.00    +0.008 A 
ATOM     20  C   UNL     1      13.939   9.438  16.567  0.00  0.00    +0.038 A 
ATOM     21  C   UNL     1      11.564   8.999  16.507  0.00  0.00    +0.038 A 
ATOM     24  C   UNL     1      12.696   9.599  15.955  0.00  0.00    +0.123 A 
ENDBRANCH  14  16
ENDBRANCH   5  14
TORSDOF 4
ENDMDL
MODEL 6
REMARK VINA RESULT:      -6.1     28.036     29.309
REMARK  Name = 56775056
REMARK  4 active torsions:
REMARK  status: ('A' for Active; 'I' for Inactive)
REMARK    1  A    between atoms: N_4  and  C_11
REMARK    2  A    between atoms: N_5  and  C_14
REMARK    3  A    between atoms: C_11  and  C_15
REMARK    4  A    between atoms: C_14  and  C_16
REMARK                            x       y       z     vdW  Elec       q    Type
REMARK                         _______ _______ _______ _____ _____    ______ ____
ROOT
ATOM      2  O   UNL     1      -8.542 -12.129  17.169  0.00  0.00    -0.364 OA
ATOM      3  O   UNL     1      -5.243 -12.967  18.086  0.00  0.00    -0.273 OA
ATOM      4  N   UNL     1      -8.922  -8.909  16.583  0.00  0.00    -0.292 NA
ATOM      5  N   UNL     1      -6.006 -11.071  16.970  0.00  0.00    -0.288 N 
ATOM      7  C   UNL     1      -7.124 -10.346  16.374  0.00  0.00    +0.120 C 
ATOM      8  C   UNL     1      -8.373 -11.183  16.117  0.00  0.00    +0.154 C 
ATOM      9  C   UNL     1      -7.666  -9.228  17.261  0.00  0.00    +0.110 C 
ATOM     10  C   UNL     1      -9.533 -10.187  16.193  0.00  0.00    +0.118 C 
ATOM     12  C   UNL     1      -6.134 -12.355  17.493  0.00  0.00    +0.242 C 
ATOM     13  C   UNL     1      -7.460 -13.030  17.216  0.00  0.00    +0.256 C 
ENDROOT
BRANCH   4  11
ATOM     11  C   UNL     1      -9.804  -8.084  17.393  0.00  0.00    +0.140 C 
BRANCH  11  15
ATOM      6  N   UNL     1     -10.462  -6.410  15.759  0.00  0.00    -0.259 NA
ATOM     15  C   UNL     1     -10.865  -7.416  16.566  0.00  0.00    +0.055 A 
ATOM     17  C   UNL     1     -12.177  -7.853  16.666  0.00  0.00    +0.024 A 
ATOM     22  C   UNL     1     -13.135  -7.216  15.887  0.00  0.00    +0.003 A 
ATOM     23  C   UNL     1     -11.422  -5.814  15.017  0.00  0.00    +0.111 A 
ATOM     25  C   UNL     1     -12.760  -6.175  15.044  0.00  0.00    +0.020 A 
ENDBRANCH  11  15
ENDBRANCH   4  11
BRANCH   5  14
ATOM     14  C   UNL     1      -4.741 -10.357  17.092  0.00  0.00    +0.143 C 
BRANCH  14  16
ATOM      1  F   UNL     1      -1.500 -11.023  12.537  0.00  0.00    -0.205 F 
ATOM     16  C   UNL     1      -3.877 -10.534  15.877  0.00  0.00    -0.030 A 
ATOM     18  C   UNL     1      -2.494 -10.651  16.017  0.00  0.00    +0.008 A 
ATOM     19  C   UNL     1      -4.457 -10.583  14.609  0.00  0.00    +0.008 A 
ATOM     20  C   UNL     1      -1.690 -10.815  14.888  0.00  0.00    +0.038 A 
ATOM     21  C   UNL     1      -3.654 -10.748  13.481  0.00  0.00    +0.038 A 
ATOM     24  C   UNL     1      -2.270 -10.864  13.620  0.00  0.00    +0.123 A 
ENDBRANCH  14  16
ENDBRANCH   5  14
TORSDOF 4
ENDMDL
MODEL 7
REMARK VINA RESULT:      -6.0     27.953     29.019
REMARK  Name = 56775056
REMARK  4 active torsions:
REMARK  status: ('A' for Active; 'I' for Inactive)
REMARK    1  A    between atoms: N_4  and  C_11
REMARK    2  A    between atoms: N_5  and  C_14
REMARK    3  A    between atoms: C_11  and  C_15
REMARK    4  A    between atoms: C_14  and  C_16
REMARK                            x       y       z     vdW  Elec       q    Type
REMARK                         _______ _______ _______ _____ _____    ______ ____
ROOT
ATOM      2  O   UNL     1      -4.315 -13.477  15.248  0.00  0.00    -0.364 OA
ATOM      3  O   UNL     1      -1.322 -13.845  13.423  0.00  0.00    -0.273 OA
ATOM      4  N   UNL     1      -5.568 -10.437  15.038  0.00  0.00    -0.292 NA
ATOM      5  N   UNL     1      -2.977 -12.226  13.189  0.00  0.00    -0.288 N 
ATOM      7  C   UNL     1      -4.279 -11.711  13.604  0.00  0.00    +0.120 C 
ATOM      8  C   UNL     1      -5.141 -12.693  14.391  0.00  0.00    +0.154 C 
ATOM      9  C   UNL     1      -4.188 -10.526  14.562  0.00  0.00    +0.110 C 
ATOM     10  C   UNL     1      -6.028 -11.812  15.276  0.00  0.00    +0.118 C 
ATOM     12  C   UNL     1      -2.450 -13.419  13.674  0.00  0.00    +0.242 C 
ATOM     13  C   UNL     1      -3.406 -14.252  14.500  0.00  0.00    +0.256 C 
ENDROOT
BRANCH   4  11
ATOM     11  C   UNL     1      -5.705  -9.584  16.208  0.00  0.00    +0.140 C 
BRANCH  11  15
ATOM      6  N   UNL     1      -7.311 -10.493  17.788  0.00  0.00    -0.259 NA
ATOM     15  C   UNL     1      -6.009 -10.375  17.448  0.00  0.00    +0.055 A 
ATOM     17  C   UNL     1      -4.965 -10.934  18.168  0.00  0.00    +0.024 A 
ATOM     22  C   UNL     1      -5.279 -11.661  19.310  0.00  0.00    +0.003 A 
ATOM     23  C   UNL     1      -7.579 -11.206  18.905  0.00  0.00    +0.111 A 
ATOM     25  C   UNL     1      -6.609 -11.805  19.693  0.00  0.00    +0.020 A 
ENDBRANCH  11  15
ENDBRANCH   4  11
BRANCH   5  14
ATOM     14  C   UNL     1      -2.182 -11.384  12.304  0.00  0.00    +0.143 C 
BRANCH  14  16
ATOM      1  F   UNL     1      -5.076  -9.805   7.740  0.00  0.00    -0.205 F 
ATOM     16  C   UNL     1      -2.954 -10.964  11.087  0.00  0.00    -0.030 A 
ATOM     18  C   UNL     1      -3.003  -9.618  10.723  0.00  0.00    +0.008 A 
ATOM     19  C   UNL     1      -3.621 -11.918  10.319  0.00  0.00    +0.008 A 
ATOM     20  C   UNL     1      -3.720  -9.226   9.593  0.00  0.00    +0.038 A 
ATOM     21  C   UNL     1      -4.338 -11.527   9.188  0.00  0.00    +0.038 A 
ATOM     24  C   UNL     1      -4.388 -10.180   8.825  0.00  0.00    +0.123 A 
ENDBRANCH  14  16
ENDBRANCH   5  14
TORSDOF 4
ENDMDL
MODEL 8
REMARK VINA RESULT:      -6.0     28.379     30.304
REMARK  Name = 56775056
REMARK  4 active torsions:
REMARK  status: ('A' for Active; 'I' for Inactive)
REMARK    1  A    between atoms: N_4  and  C_11
REMARK    2  A    between atoms: N_5  and  C_14
REMARK    3  A    between atoms: C_11  and  C_15
REMARK    4  A    between atoms: C_14  and  C_16
REMARK                            x       y       z     vdW  Elec       q    Type
REMARK                         _______ _______ _______ _____ _____    ______ ____
ROOT
ATOM      2  O   UNL     1      -7.602 -11.532  19.675  0.00  0.00    -0.364 OA
ATOM      3  O   UNL     1     -10.865 -11.748  18.362  0.00  0.00    -0.273 OA
ATOM      4  N   UNL     1      -5.348 -10.825  17.378  0.00  0.00    -0.292 NA
ATOM      5  N   UNL     1      -8.997 -10.702  17.449  0.00  0.00    -0.288 N 
ATOM      7  C   UNL     1      -7.594 -10.321  17.588  0.00  0.00    +0.120 C 
ATOM      8  C   UNL     1      -7.040 -10.406  19.007  0.00  0.00    +0.154 C 
ATOM      9  C   UNL     1      -6.637 -11.227  16.817  0.00  0.00    +0.110 C 
ATOM     10  C   UNL     1      -5.542 -10.670  18.826  0.00  0.00    +0.118 C 
ATOM     12  C   UNL     1      -9.712 -11.328  18.466  0.00  0.00    +0.242 C 
ATOM     13  C   UNL     1      -8.999 -11.399  19.800  0.00  0.00    +0.256 C 
ENDROOT
BRANCH   4  11
ATOM     11  C   UNL     1      -4.278 -11.752  17.047  0.00  0.00    +0.140 C 
BRANCH  11  15
ATOM      6  N   UNL     1      -3.796 -11.155  14.742  0.00  0.00    -0.259 NA
ATOM     15  C   UNL     1      -3.344 -11.187  16.015  0.00  0.00    +0.055 A 
ATOM     17  C   UNL     1      -2.094 -10.735  16.406  0.00  0.00    +0.024 A 
ATOM     22  C   UNL     1      -1.254 -10.217  15.428  0.00  0.00    +0.003 A 
ATOM     23  C   UNL     1      -2.952 -10.645  13.817  0.00  0.00    +0.111 A 
ATOM     25  C   UNL     1      -1.683 -10.167  14.105  0.00  0.00    +0.020 A 
ENDBRANCH  11  15
ENDBRANCH   4  11
BRANCH   5  14
ATOM     14  C   UNL     1      -9.616 -10.491  16.147  0.00  0.00    +0.143 C 
BRANCH  14  16
ATOM      1  F   UNL     1     -12.708  -5.788  16.024  0.00  0.00    -0.205 F 
ATOM     16  C   UNL     1     -10.440  -9.237  16.114  0.00  0.00    -0.030 A 
ATOM     18  C   UNL     1     -11.833  -9.318  16.108  0.00  0.00    +0.008 A 
ATOM     19  C   UNL     1      -9.814  -7.991  16.090  0.00  0.00    +0.008 A 
ATOM     20  C   UNL     1     -12.599  -8.153  16.076  0.00  0.00    +0.038 A 
ATOM     21  C   UNL     1     -10.580  -6.825  16.060  0.00  0.00    +0.038 A 
ATOM     24  C   UNL     1     -11.973  -6.907  16.053  0.00  0.00    +0.123 A 
ENDBRANCH  14  16
ENDBRANCH   5  14
TORSDOF 4
ENDMDL
MODEL 9
REMARK VINA RESULT:      -6.0     28.008     30.282
REMARK  Name = 56775056
REMARK  4 active torsions:
REMARK  status: ('A' for Active; 'I' for Inactive)
REMARK    1  A    between atoms: N_4  and  C_11
REMARK    2  A    between atoms: N_5  and  C_14
REMARK    3  A    between atoms: C_11  and  C_15
REMARK    4  A    between atoms: C_14  and  C_16
REMARK                            x       y       z     vdW  Elec       q    Type
REMARK                         _______ _______ _______ _____ _____    ______ ____
ROOT
ATOM      2  O   UNL     1     -18.389   5.216  23.090  0.00  0.00    -0.364 OA
ATOM      3  O   UNL     1     -16.352   4.825  20.241  0.00  0.00    -0.273 OA
ATOM      4  N   UNL     1     -16.739   4.769  25.907  0.00  0.00    -0.292 NA
ATOM      5  N   UNL     1     -15.713   5.258  22.437  0.00  0.00    -0.288 N 
ATOM      7  C   UNL     1     -16.109   5.527  23.816  0.00  0.00    +0.120 C 
ATOM      8  C   UNL     1     -17.566   5.940  24.000  0.00  0.00    +0.154 C 
ATOM      9  C   UNL     1     -16.005   4.308  24.729  0.00  0.00    +0.110 C 
ATOM     10  C   UNL     1     -17.924   5.486  25.418  0.00  0.00    +0.118 C 
ATOM     12  C   UNL     1     -16.632   5.141  21.398  0.00  0.00    +0.242 C 
ATOM     13  C   UNL     1     -18.053   5.519  21.756  0.00  0.00    +0.256 C 
ENDROOT
BRANCH   4  11
ATOM     11  C   UNL     1     -17.068   3.689  26.823  0.00  0.00    +0.140 C 
BRANCH  11  15
ATOM      6  N   UNL     1     -16.756   4.915  28.897  0.00  0.00    -0.259 NA
ATOM     15  C   UNL     1     -16.386   3.851  28.151  0.00  0.00    +0.055 A 
ATOM     17  C   UNL     1     -15.433   2.924  28.541  0.00  0.00    +0.024 A 
ATOM     22  C   UNL     1     -14.821   3.100  29.775  0.00  0.00    +0.003 A 
ATOM     23  C   UNL     1     -16.139   5.055  30.091  0.00  0.00    +0.111 A 
ATOM     25  C   UNL     1     -15.175   4.184  30.573  0.00  0.00    +0.020 A 
ENDBRANCH  11  15
ENDBRANCH   4  11
BRANCH   5  14
ATOM     14  C   UNL     1     -14.298   5.011  22.189  0.00  0.00    +0.143 C 
BRANCH  14  16
ATOM      1  F   UNL     1     -11.601   9.684  20.579  0.00  0.00    -0.205 F 
ATOM     16  C   UNL     1     -13.579   6.257  21.759  0.00  0.00    -0.030 A 
ATOM     18  C   UNL     1     -14.148   7.508  21.997  0.00  0.00    +0.008 A 
ATOM     19  C   UNL     1     -12.340   6.164  21.124  0.00  0.00    +0.008 A 
ATOM     20  C   UNL     1     -13.481   8.666  21.598  0.00  0.00    +0.038 A 
ATOM     21  C   UNL     1     -11.672   7.322  20.725  0.00  0.00    +0.038 A 
ATOM     24  C   UNL     1     -12.243   8.573  20.962  0.00  0.00    +0.123 A 
ENDBRANCH  14  16
ENDBRANCH   5  14
TORSDOF 4
ENDMDL
MODEL 10
REMARK VINA RESULT:      -5.9     28.130     29.879
REMARK  Name = 56775056
REMARK  4 active torsions:
REMARK  status: ('A' for Active; 'I' for Inactive)
REMARK    1  A    between atoms: N_4  and  C_11
REMARK    2  A    between atoms: N_5  and  C_14
REMARK    3  A    between atoms: C_11  and  C_15
REMARK    4  A    between atoms: C_14  and  C_16
REMARK                            x       y       z     vdW  Elec       q    Type
REMARK                         _______ _______ _______ _____ _____    ______ ____
ROOT
ATOM      2  O   UNL     1      -9.785 -11.450  14.404  0.00  0.00    -0.364 OA
ATOM      3  O   UNL     1      -9.883  -9.835  17.535  0.00  0.00    -0.273 OA
ATOM      4  N   UNL     1      -7.021 -10.814  12.728  0.00  0.00    -0.292 NA
ATOM      5  N   UNL     1      -8.036 -10.305  16.199  0.00  0.00    -0.288 N 
ATOM      7  C   UNL     1      -7.504 -10.920  14.986  0.00  0.00    +0.120 C 
ATOM      8  C   UNL     1      -8.441 -11.910  14.301  0.00  0.00    +0.154 C 
ATOM      9  C   UNL     1      -7.224  -9.920  13.868  0.00  0.00    +0.110 C 
ATOM     10  C   UNL     1      -8.044 -11.864  12.822  0.00  0.00    +0.118 C 
ATOM     12  C   UNL     1      -9.372 -10.412  16.574  0.00  0.00    +0.242 C 
ATOM     13  C   UNL     1     -10.192 -11.382  15.751  0.00  0.00    +0.256 C 
ENDROOT
BRANCH   4  11
ATOM     11  C   UNL     1      -7.044 -10.114  11.454  0.00  0.00    +0.140 C 
BRANCH  11  15
ATOM      6  N   UNL     1      -4.633 -10.333  11.660  0.00  0.00    -0.259 NA
ATOM     15  C   UNL     1      -5.660  -9.810  10.955  0.00  0.00    +0.055 A 
ATOM     17  C   UNL     1      -5.505  -9.028   9.822  0.00  0.00    +0.024 A 
ATOM     22  C   UNL     1      -4.212  -8.765   9.385  0.00  0.00    +0.003 A 
ATOM     23  C   UNL     1      -3.390 -10.057  11.206  0.00  0.00    +0.111 A 
ATOM     25  C   UNL     1      -3.128  -9.286  10.084  0.00  0.00    +0.020 A 
ENDBRANCH  11  15
ENDBRANCH   4  11
BRANCH   5  14
ATOM     14  C   UNL     1      -7.126  -9.472  16.974  0.00  0.00    +0.143 C 
BRANCH  14  16
ATOM      1  F   UNL     1      -3.390 -12.554  19.847  0.00  0.00    -0.205 F 
ATOM     16  C   UNL     1      -6.129 -10.293  17.740  0.00  0.00    -0.030 A 
ATOM     18  C   UNL     1      -6.443 -10.756  19.018  0.00  0.00    +0.008 A 
ATOM     19  C   UNL     1      -4.891 -10.595  17.173  0.00  0.00    +0.008 A 
ATOM     20  C   UNL     1      -5.517 -11.519  19.731  0.00  0.00    +0.038 A 
ATOM     21  C   UNL     1      -3.965 -11.359  17.886  0.00  0.00    +0.038 A 
ATOM     24  C   UNL     1      -4.279 -11.820  19.164  0.00  0.00    +0.123 A 
ENDBRANCH  14  16
ENDBRANCH   5  14
TORSDOF 4
ENDMDL
