MODEL 1
REMARK VINA RESULT:      -7.5      0.000      0.000
REMARK  Name = 11867169
REMARK  6 active torsions:
REMARK  status: ('A' for Active; 'I' for Inactive)
REMARK    1  A    between atoms: S_1  and  N_10
REMARK    2  A    between atoms: S_1  and  C_28
REMARK    3  A    between atoms: O_6  and  C_32
REMARK    4  A    between atoms: N_10  and  C_21
REMARK    5  A    between atoms: C_20  and  C_23
REMARK    6  A    between atoms: C_26  and  C_32
REMARK                            x       y       z     vdW  Elec       q    Type
REMARK                         _______ _______ _______ _____ _____    ______ ____
ROOT
ATOM      2  O   UNL     1      12.357   8.294   2.094  0.00  0.00    -0.266 OA
ATOM      3  O   UNL     1      13.028   7.641   7.190  0.00  0.00    -0.270 OA
ATOM      8  N   UNL     1      11.146   8.999   6.891  0.00  0.00    -0.297 N 
ATOM      9  N   UNL     1      10.879   9.085   3.731  0.00  0.00    -0.310 N 
ATOM     11  C   UNL     1      11.489  10.947   5.379  0.00  0.00    +0.027 C 
ATOM     12  C   UNL     1       9.277   9.874   5.509  0.00  0.00    +0.054 C 
ATOM     13  C   UNL     1       9.990  11.221   5.405  0.00  0.00    +0.018 C 
ATOM     14  C   UNL     1      11.924  10.216   6.663  0.00  0.00    +0.113 C 
ATOM     15  C   UNL     1      11.823  10.144   4.116  0.00  0.00    +0.130 C 
ATOM     16  C   UNL     1       9.686   9.174   6.820  0.00  0.00    +0.117 C 
ATOM     17  C   UNL     1       9.615   8.984   4.328  0.00  0.00    +0.027 A 
ATOM     18  C   UNL     1       8.722   8.081   3.883  0.00  0.00    +0.024 A 
ATOM     19  C   UNL     1      11.269   8.244   2.667  0.00  0.00    +0.274 A 
ATOM     20  C   UNL     1      11.809   7.794   7.131  0.00  0.00    +0.247 C 
ATOM     21  C   UNL     1      10.250   7.253   2.238  0.00  0.00    +0.112 A 
ATOM     22  C   UNL     1       9.047   7.186   2.807  0.00  0.00    +0.031 A 
ENDROOT
BRANCH  20  23
ATOM     23  C   UNL     1      10.996   6.586   7.310  0.00  0.00    +0.038 A 
ATOM     24  C   UNL     1      10.563   6.225   8.584  0.00  0.00    +0.028 A 
ATOM     25  C   UNL     1      10.661   5.806   6.207  0.00  0.00    +0.013 A 
ATOM     26  C   UNL     1       9.788   5.078   8.756  0.00  0.00    +0.060 A 
ATOM     27  C   UNL     1       9.887   4.658   6.378  0.00  0.00    +0.002 A 
ATOM     29  C   UNL     1       9.450   4.294   7.651  0.00  0.00    +0.015 A 
BRANCH  26  32
ATOM      7  O   UNL     1       8.172   4.780  10.493  0.00  0.00    -0.245 OA
ATOM     32  C   UNL     1       9.334   4.698  10.083  0.00  0.00    +0.337 C 
BRANCH  32   6
ATOM      6  O   UNL     1      10.345   4.223  10.863  0.00  0.00    -0.477 OA
ATOM     37  H   UNL     1      10.805   4.945  11.343  0.00  0.00    +0.295 HD
ENDBRANCH  32   6
ENDBRANCH  26  32
ENDBRANCH  20  23
BRANCH  21  10
ATOM     10  N   UNL     1      10.533   6.352   1.197  0.00  0.00    -0.211 N 
ATOM     36  H   UNL     1       9.917   6.477   0.383  0.00  0.00    +0.174 HD
BRANCH  10   1
ATOM      1  S   UNL     1      10.814   4.740   1.629  0.00  0.00    +0.072 S 
ATOM      4  O   UNL     1      11.030   4.646   3.059  0.00  0.00    -0.150 OA
ATOM      5  O   UNL     1       9.839   3.883   0.979  0.00  0.00    -0.150 OA
BRANCH   1  28
ATOM     28  C   UNL     1      12.372   4.456   0.841  0.00  0.00    +0.108 A 
ATOM     30  C   UNL     1      13.537   4.790   1.509  0.00  0.00    +0.029 A 
ATOM     31  C   UNL     1      12.396   3.906  -0.429  0.00  0.00    +0.029 A 
ATOM     33  C   UNL     1      14.766   4.566   0.888  0.00  0.00    +0.002 A 
ATOM     34  C   UNL     1      13.626   3.683  -1.050  0.00  0.00    +0.002 A 
ATOM     35  C   UNL     1      14.810   4.013  -0.392  0.00  0.00    +0.000 A 
ENDBRANCH   1  28
ENDBRANCH  10   1
ENDBRANCH  21  10
TORSDOF 6
ENDMDL
MODEL 2
REMARK VINA RESULT:      -7.5     14.358     18.513
REMARK  Name = 11867169
REMARK  6 active torsions:
REMARK  status: ('A' for Active; 'I' for Inactive)
REMARK    1  A    between atoms: S_1  and  N_10
REMARK    2  A    between atoms: S_1  and  C_28
REMARK    3  A    between atoms: O_6  and  C_32
REMARK    4  A    between atoms: N_10  and  C_21
REMARK    5  A    between atoms: C_20  and  C_23
REMARK    6  A    between atoms: C_26  and  C_32
REMARK                            x       y       z     vdW  Elec       q    Type
REMARK                         _______ _______ _______ _____ _____    ______ ____
ROOT
ATOM      2  O   UNL     1      11.691  11.272  21.226  0.00  0.00    -0.266 OA
ATOM      3  O   UNL     1      13.636   6.472  21.102  0.00  0.00    -0.270 OA
ATOM      8  N   UNL     1      13.845   7.376  18.954  0.00  0.00    -0.297 N 
ATOM      9  N   UNL     1      12.752  10.326  19.363  0.00  0.00    -0.310 N 
ATOM     11  C   UNL     1      11.760   8.377  18.032  0.00  0.00    +0.027 C 
ATOM     12  C   UNL     1      13.949   9.306  17.394  0.00  0.00    +0.054 C 
ATOM     13  C   UNL     1      12.560   8.950  16.868  0.00  0.00    +0.018 C 
ATOM     14  C   UNL     1      12.451   7.120  18.592  0.00  0.00    +0.113 C 
ATOM     15  C   UNL     1      11.591   9.465  19.099  0.00  0.00    +0.130 C 
ATOM     16  C   UNL     1      14.648   8.031  17.909  0.00  0.00    +0.117 C 
ATOM     17  C   UNL     1      13.866  10.329  18.511  0.00  0.00    +0.027 A 
ATOM     18  C   UNL     1      14.869  11.205  18.704  0.00  0.00    +0.024 A 
ATOM     19  C   UNL     1      12.647  11.216  20.453  0.00  0.00    +0.274 A 
ATOM     20  C   UNL     1      14.302   7.018  20.224  0.00  0.00    +0.247 C 
ATOM     21  C   UNL     1      13.796  12.140  20.628  0.00  0.00    +0.112 A 
ATOM     22  C   UNL     1      14.837  12.139  19.795  0.00  0.00    +0.031 A 
ENDROOT
BRANCH  20  23
ATOM     23  C   UNL     1      15.693   7.332  20.568  0.00  0.00    +0.038 A 
ATOM     24  C   UNL     1      16.707   6.432  20.246  0.00  0.00    +0.028 A 
ATOM     25  C   UNL     1      15.995   8.528  21.213  0.00  0.00    +0.013 A 
ATOM     26  C   UNL     1      18.030   6.730  20.571  0.00  0.00    +0.060 A 
ATOM     27  C   UNL     1      17.319   8.827  21.539  0.00  0.00    +0.002 A 
ATOM     29  C   UNL     1      18.336   7.928  21.218  0.00  0.00    +0.015 A 
BRANCH  26  32
ATOM      7  O   UNL     1      20.196   5.739  20.786  0.00  0.00    -0.245 OA
ATOM     32  C   UNL     1      19.091   5.793  20.238  0.00  0.00    +0.337 C 
BRANCH  32   6
ATOM      6  O   UNL     1      18.740   4.948  19.229  0.00  0.00    -0.477 OA
ATOM     37  H   UNL     1      19.522   4.643  18.720  0.00  0.00    +0.295 HD
ENDBRANCH  32   6
ENDBRANCH  26  32
ENDBRANCH  20  23
BRANCH  21  10
ATOM     10  N   UNL     1      13.808  13.061  21.689  0.00  0.00    -0.211 N 
ATOM     36  H   UNL     1      14.204  13.973  21.422  0.00  0.00    +0.174 HD
BRANCH  10   1
ATOM      1  S   UNL     1      14.313  12.489  23.200  0.00  0.00    +0.072 S 
ATOM      4  O   UNL     1      14.462  11.047  23.153  0.00  0.00    -0.150 OA
ATOM      5  O   UNL     1      15.393  13.319  23.701  0.00  0.00    -0.150 OA
BRANCH   1  28
ATOM     28  C   UNL     1      12.882  12.839  24.178  0.00  0.00    +0.108 A 
ATOM     30  C   UNL     1      12.603  14.150  24.522  0.00  0.00    +0.029 A 
ATOM     31  C   UNL     1      12.068  11.795  24.582  0.00  0.00    +0.029 A 
ATOM     33  C   UNL     1      11.474  14.427  25.293  0.00  0.00    +0.002 A 
ATOM     34  C   UNL     1      10.939  12.071  25.353  0.00  0.00    +0.002 A 
ATOM     35  C   UNL     1      10.642  13.387  25.709  0.00  0.00    +0.000 A 
ENDBRANCH   1  28
ENDBRANCH  10   1
ENDBRANCH  21  10
TORSDOF 6
ENDMDL
MODEL 3
REMARK VINA RESULT:      -7.4     24.184     27.836
REMARK  Name = 11867169
REMARK  6 active torsions:
REMARK  status: ('A' for Active; 'I' for Inactive)
REMARK    1  A    between atoms: S_1  and  N_10
REMARK    2  A    between atoms: S_1  and  C_28
REMARK    3  A    between atoms: O_6  and  C_32
REMARK    4  A    between atoms: N_10  and  C_21
REMARK    5  A    between atoms: C_20  and  C_23
REMARK    6  A    between atoms: C_26  and  C_32
REMARK                            x       y       z     vdW  Elec       q    Type
REMARK                         _______ _______ _______ _____ _____    ______ ____
ROOT
ATOM      2  O   UNL     1      -6.587  -9.584  13.479  0.00  0.00    -0.266 OA
ATOM      3  O   UNL     1      -5.325 -14.467  12.292  0.00  0.00    -0.270 OA
ATOM      8  N   UNL     1      -3.336 -13.291  12.665  0.00  0.00    -0.297 N 
ATOM      9  N   UNL     1      -4.403 -10.430  13.525  0.00  0.00    -0.310 N 
ATOM     11  C   UNL     1      -3.139 -11.146  11.417  0.00  0.00    +0.027 C 
ATOM     12  C   UNL     1      -2.071 -11.381  13.623  0.00  0.00    +0.054 C 
ATOM     13  C   UNL     1      -1.890 -10.803  12.221  0.00  0.00    +0.018 C 
ATOM     14  C   UNL     1      -3.326 -12.673  11.339  0.00  0.00    +0.113 C 
ATOM     15  C   UNL     1      -4.345 -10.449  12.057  0.00  0.00    +0.130 C 
ATOM     16  C   UNL     1      -2.211 -12.914  13.535  0.00  0.00    +0.117 C 
ATOM     17  C   UNL     1      -3.294 -10.795  14.302  0.00  0.00    +0.027 A 
ATOM     18  C   UNL     1      -3.327 -10.663  15.640  0.00  0.00    +0.024 A 
ATOM     19  C   UNL     1      -5.588  -9.934  14.107  0.00  0.00    +0.274 A 
ATOM     20  C   UNL     1      -4.382 -14.149  13.014  0.00  0.00    +0.247 C 
ATOM     21  C   UNL     1      -5.572  -9.834  15.588  0.00  0.00    +0.112 A 
ATOM     22  C   UNL     1      -4.501 -10.169  16.307  0.00  0.00    +0.031 A 
ENDROOT
BRANCH  20  23
ATOM     23  C   UNL     1      -4.382 -14.715  14.367  0.00  0.00    +0.038 A 
ATOM     24  C   UNL     1      -4.829 -13.947  15.440  0.00  0.00    +0.028 A 
ATOM     25  C   UNL     1      -3.936 -16.018  14.573  0.00  0.00    +0.013 A 
ATOM     26  C   UNL     1      -4.832 -14.486  16.727  0.00  0.00    +0.060 A 
ATOM     27  C   UNL     1      -3.937 -16.557  15.860  0.00  0.00    +0.002 A 
ATOM     29  C   UNL     1      -4.385 -15.791  16.937  0.00  0.00    +0.015 A 
BRANCH  26  32
ATOM      7  O   UNL     1      -4.585 -12.977  18.566  0.00  0.00    -0.245 OA
ATOM     32  C   UNL     1      -5.297 -13.688  17.849  0.00  0.00    +0.337 C 
BRANCH  32   6
ATOM      6  O   UNL     1      -6.640 -13.799  18.045  0.00  0.00    -0.477 OA
ATOM     37  H   UNL     1      -6.851 -14.147  18.938  0.00  0.00    +0.295 HD
ENDBRANCH  32   6
ENDBRANCH  26  32
ENDBRANCH  20  23
BRANCH  21  10
ATOM     10  N   UNL     1      -6.704  -9.367  16.279  0.00  0.00    -0.211 N 
ATOM     36  H   UNL     1      -6.515  -8.516  16.825  0.00  0.00    +0.174 HD
BRANCH  10   1
ATOM      1  S   UNL     1      -7.650 -10.522  17.078  0.00  0.00    +0.072 S 
ATOM      4  O   UNL     1      -7.829 -11.682  16.226  0.00  0.00    -0.150 OA
ATOM      5  O   UNL     1      -7.178 -10.681  18.441  0.00  0.00    -0.150 OA
BRANCH   1  28
ATOM     28  C   UNL     1      -9.203  -9.678  17.152  0.00  0.00    +0.108 A 
ATOM     30  C   UNL     1     -10.354 -10.404  17.400  0.00  0.00    +0.029 A 
ATOM     31  C   UNL     1      -9.236  -8.308  16.961  0.00  0.00    +0.029 A 
ATOM     33  C   UNL     1     -11.579  -9.739  17.458  0.00  0.00    +0.002 A 
ATOM     34  C   UNL     1     -10.461  -7.643  17.019  0.00  0.00    +0.002 A 
ATOM     35  C   UNL     1     -11.632  -8.359  17.267  0.00  0.00    +0.000 A 
ENDBRANCH   1  28
ENDBRANCH  10   1
ENDBRANCH  21  10
TORSDOF 6
ENDMDL
MODEL 4
REMARK VINA RESULT:      -7.1      4.395      7.361
REMARK  Name = 11867169
REMARK  6 active torsions:
REMARK  status: ('A' for Active; 'I' for Inactive)
REMARK    1  A    between atoms: S_1  and  N_10
REMARK    2  A    between atoms: S_1  and  C_28
REMARK    3  A    between atoms: O_6  and  C_32
REMARK    4  A    between atoms: N_10  and  C_21
REMARK    5  A    between atoms: C_20  and  C_23
REMARK    6  A    between atoms: C_26  and  C_32
REMARK                            x       y       z     vdW  Elec       q    Type
REMARK                         _______ _______ _______ _____ _____    ______ ____
ROOT
ATOM      2  O   UNL     1      14.479   7.235   5.699  0.00  0.00    -0.266 OA
ATOM      3  O   UNL     1      10.918   3.997   3.783  0.00  0.00    -0.270 OA
ATOM      8  N   UNL     1      10.527   6.110   2.856  0.00  0.00    -0.297 N 
ATOM      9  N   UNL     1      12.918   7.817   4.052  0.00  0.00    -0.310 N 
ATOM     11  C   UNL     1      10.403   7.970   4.505  0.00  0.00    +0.027 C 
ATOM     12  C   UNL     1      11.267   8.399   2.239  0.00  0.00    +0.054 C 
ATOM     13  C   UNL     1      10.402   8.975   3.358  0.00  0.00    +0.018 C 
ATOM     14  C   UNL     1       9.830   6.620   4.036  0.00  0.00    +0.113 C 
ATOM     15  C   UNL     1      11.833   7.836   5.042  0.00  0.00    +0.130 C 
ATOM     16  C   UNL     1      10.657   7.070   1.748  0.00  0.00    +0.117 C 
ATOM     17  C   UNL     1      12.688   8.164   2.713  0.00  0.00    +0.027 A 
ATOM     18  C   UNL     1      13.714   8.252   1.846  0.00  0.00    +0.024 A 
ATOM     19  C   UNL     1      14.212   7.531   4.535  0.00  0.00    +0.274 A 
ATOM     20  C   UNL     1      11.023   4.804   2.861  0.00  0.00    +0.247 C 
ATOM     21  C   UNL     1      15.298   7.620   3.526  0.00  0.00    +0.112 A 
ATOM     22  C   UNL     1      15.061   7.970   2.262  0.00  0.00    +0.031 A 
ENDROOT
BRANCH  20  23
ATOM     23  C   UNL     1      11.754   4.342   1.677  0.00  0.00    +0.038 A 
ATOM     24  C   UNL     1      13.142   4.230   1.719  0.00  0.00    +0.028 A 
ATOM     25  C   UNL     1      11.058   4.018   0.515  0.00  0.00    +0.013 A 
ATOM     26  C   UNL     1      13.838   3.789   0.593  0.00  0.00    +0.060 A 
ATOM     27  C   UNL     1      11.754   3.577  -0.612  0.00  0.00    +0.002 A 
ATOM     29  C   UNL     1      13.143   3.463  -0.572  0.00  0.00    +0.015 A 
BRANCH  26  32
ATOM      7  O   UNL     1      16.054   3.954  -0.293  0.00  0.00    -0.245 OA
ATOM     32  C   UNL     1      15.286   3.671   0.633  0.00  0.00    +0.337 C 
BRANCH  32   6
ATOM      6  O   UNL     1      15.738   3.203   1.830  0.00  0.00    -0.477 OA
ATOM     37  H   UNL     1      15.074   3.324   2.543  0.00  0.00    +0.295 HD
ENDBRANCH  32   6
ENDBRANCH  26  32
ENDBRANCH  20  23
BRANCH  21  10
ATOM     10  N   UNL     1      16.627   7.342   3.889  0.00  0.00    -0.211 N 
ATOM     36  H   UNL     1      16.714   6.999   4.856  0.00  0.00    +0.174 HD
BRANCH  10   1
ATOM      1  S   UNL     1      17.804   8.471   3.434  0.00  0.00    +0.072 S 
ATOM      4  O   UNL     1      18.370   8.098   2.153  0.00  0.00    -0.150 OA
ATOM      5  O   UNL     1      17.298   9.815   3.646  0.00  0.00    -0.150 OA
BRANCH   1  28
ATOM     28  C   UNL     1      19.039   8.172   4.664  0.00  0.00    +0.108 A 
ATOM     30  C   UNL     1      20.117   7.363   4.354  0.00  0.00    +0.029 A 
ATOM     31  C   UNL     1      18.902   8.752   5.913  0.00  0.00    +0.029 A 
ATOM     33  C   UNL     1      21.092   7.127   5.324  0.00  0.00    +0.002 A 
ATOM     34  C   UNL     1      19.877   8.516   6.883  0.00  0.00    +0.002 A 
ATOM     35  C   UNL     1      20.971   7.703   6.589  0.00  0.00    +0.000 A 
ENDBRANCH   1  28
ENDBRANCH  10   1
ENDBRANCH  21  10
TORSDOF 6
ENDMDL
MODEL 5
REMARK VINA RESULT:      -7.0     26.616     31.004
REMARK  Name = 11867169
REMARK  6 active torsions:
REMARK  status: ('A' for Active; 'I' for Inactive)
REMARK    1  A    between atoms: S_1  and  N_10
REMARK    2  A    between atoms: S_1  and  C_28
REMARK    3  A    between atoms: O_6  and  C_32
REMARK    4  A    between atoms: N_10  and  C_21
REMARK    5  A    between atoms: C_20  and  C_23
REMARK    6  A    between atoms: C_26  and  C_32
REMARK                            x       y       z     vdW  Elec       q    Type
REMARK                         _______ _______ _______ _____ _____    ______ ____
ROOT
ATOM      2  O   UNL     1     -14.873   9.201  24.922  0.00  0.00    -0.266 OA
ATOM      3  O   UNL     1     -12.328   6.239  21.518  0.00  0.00    -0.270 OA
ATOM      8  N   UNL     1     -14.340   6.895  20.520  0.00  0.00    -0.297 N 
ATOM      9  N   UNL     1     -15.587   8.804  22.726  0.00  0.00    -0.310 N 
ATOM     11  C   UNL     1     -16.371   6.508  21.907  0.00  0.00    +0.027 C 
ATOM     12  C   UNL     1     -16.301   8.408  20.342  0.00  0.00    +0.054 C 
ATOM     13  C   UNL     1     -17.197   7.306  20.904  0.00  0.00    +0.018 C 
ATOM     14  C   UNL     1     -15.141   5.889  21.218  0.00  0.00    +0.113 C 
ATOM     15  C   UNL     1     -15.980   7.430  23.068  0.00  0.00    +0.130 C 
ATOM     16  C   UNL     1     -15.098   7.774  19.616  0.00  0.00    +0.117 C 
ATOM     17  C   UNL     1     -15.807   9.326  21.443  0.00  0.00    +0.027 A 
ATOM     18  C   UNL     1     -15.547  10.620  21.181  0.00  0.00    +0.024 A 
ATOM     19  C   UNL     1     -15.074   9.597  23.774  0.00  0.00    +0.274 A 
ATOM     20  C   UNL     1     -12.967   6.969  20.762  0.00  0.00    +0.247 C 
ATOM     21  C   UNL     1     -14.784  11.008  23.416  0.00  0.00    +0.112 A 
ATOM     22  C   UNL     1     -15.018  11.490  22.195  0.00  0.00    +0.031 A 
ENDROOT
BRANCH  20  23
ATOM     23  C   UNL     1     -12.204   8.019  20.079  0.00  0.00    +0.038 A 
ATOM     24  C   UNL     1     -11.703   7.791  18.799  0.00  0.00    +0.028 A 
ATOM     25  C   UNL     1     -11.985   9.240  20.712  0.00  0.00    +0.013 A 
ATOM     26  C   UNL     1     -10.980   8.789  18.148  0.00  0.00    +0.060 A 
ATOM     27  C   UNL     1     -11.260  10.239  20.061  0.00  0.00    +0.002 A 
ATOM     29  C   UNL     1     -10.758  10.014  18.779  0.00  0.00    +0.015 A 
BRANCH  26  32
ATOM      7  O   UNL     1     -10.298   9.418  15.943  0.00  0.00    -0.245 OA
ATOM     32  C   UNL     1     -10.455   8.555  16.812  0.00  0.00    +0.337 C 
BRANCH  32   6
ATOM      6  O   UNL     1     -10.139   7.247  16.599  0.00  0.00    -0.477 OA
ATOM     37  H   UNL     1     -10.091   7.035  15.642  0.00  0.00    +0.295 HD
ENDBRANCH  32   6
ENDBRANCH  26  32
ENDBRANCH  20  23
BRANCH  21  10
ATOM     10  N   UNL     1     -14.255  11.888  24.376  0.00  0.00    -0.211 N 
ATOM     36  H   UNL     1     -14.805  12.753  24.470  0.00  0.00    +0.174 HD
BRANCH  10   1
ATOM      1  S   UNL     1     -12.578  12.116  24.371  0.00  0.00    +0.072 S 
ATOM      4  O   UNL     1     -11.988  11.385  23.266  0.00  0.00    -0.150 OA
ATOM      5  O   UNL     1     -12.276  13.523  24.562  0.00  0.00    -0.150 OA
BRANCH   1  28
ATOM     28  C   UNL     1     -12.128  11.274  25.859  0.00  0.00    +0.108 A 
ATOM     30  C   UNL     1     -13.013  11.263  26.923  0.00  0.00    +0.029 A 
ATOM     31  C   UNL     1     -10.899  10.641  25.932  0.00  0.00    +0.029 A 
ATOM     33  C   UNL     1     -12.659  10.599  28.097  0.00  0.00    +0.002 A 
ATOM     34  C   UNL     1     -10.545   9.976  27.107  0.00  0.00    +0.002 A 
ATOM     35  C   UNL     1     -11.424   9.956  28.189  0.00  0.00    +0.000 A 
ENDBRANCH   1  28
ENDBRANCH  10   1
ENDBRANCH  21  10
TORSDOF 6
ENDMDL
MODEL 6
REMARK VINA RESULT:      -7.0     22.982     26.568
REMARK  Name = 11867169
REMARK  6 active torsions:
REMARK  status: ('A' for Active; 'I' for Inactive)
REMARK    1  A    between atoms: S_1  and  N_10
REMARK    2  A    between atoms: S_1  and  C_28
REMARK    3  A    between atoms: O_6  and  C_32
REMARK    4  A    between atoms: N_10  and  C_21
REMARK    5  A    between atoms: C_20  and  C_23
REMARK    6  A    between atoms: C_26  and  C_32
REMARK                            x       y       z     vdW  Elec       q    Type
REMARK                         _______ _______ _______ _____ _____    ______ ____
ROOT
ATOM      2  O   UNL     1      -5.851  -9.001  12.503  0.00  0.00    -0.266 OA
ATOM      3  O   UNL     1      -8.660  -8.673  16.843  0.00  0.00    -0.270 OA
ATOM      8  N   UNL     1      -9.120 -10.744  15.856  0.00  0.00    -0.297 N 
ATOM      9  N   UNL     1      -7.167 -10.741  13.357  0.00  0.00    -0.310 N 
ATOM     11  C   UNL     1      -9.724 -10.644  13.444  0.00  0.00    +0.027 C 
ATOM     12  C   UNL     1      -8.543 -12.615  14.328  0.00  0.00    +0.054 C 
ATOM     13  C   UNL     1      -9.643 -12.164  13.368  0.00  0.00    +0.018 C 
ATOM     14  C   UNL     1     -10.057 -10.193  14.878  0.00  0.00    +0.113 C 
ATOM     15  C   UNL     1      -8.399 -10.053  12.946  0.00  0.00    +0.130 C 
ATOM     16  C   UNL     1      -8.912 -12.198  15.766  0.00  0.00    +0.117 C 
ATOM     17  C   UNL     1      -7.205 -12.011  13.949  0.00  0.00    +0.027 A 
ATOM     18  C   UNL     1      -6.064 -12.674  14.213  0.00  0.00    +0.024 A 
ATOM     19  C   UNL     1      -5.949 -10.106  13.035  0.00  0.00    +0.274 A 
ATOM     20  C   UNL     1      -8.491  -9.889  16.764  0.00  0.00    +0.247 C 
ATOM     21  C   UNL     1      -4.725 -10.876  13.373  0.00  0.00    +0.112 A 
ATOM     22  C   UNL     1      -4.783 -12.091  13.919  0.00  0.00    +0.031 A 
ENDROOT
BRANCH  20  23
ATOM     23  C   UNL     1      -7.525 -10.470  17.700  0.00  0.00    +0.038 A 
ATOM     24  C   UNL     1      -6.190 -10.604  17.326  0.00  0.00    +0.028 A 
ATOM     25  C   UNL     1      -7.946 -10.887  18.961  0.00  0.00    +0.013 A 
ATOM     26  C   UNL     1      -5.269 -11.155  18.216  0.00  0.00    +0.060 A 
ATOM     27  C   UNL     1      -7.025 -11.440  19.852  0.00  0.00    +0.002 A 
ATOM     29  C   UNL     1      -5.688 -11.574  19.481  0.00  0.00    +0.015 A 
BRANCH  26  32
ATOM      7  O   UNL     1      -3.372 -10.853  16.792  0.00  0.00    -0.245 OA
ATOM     32  C   UNL     1      -3.875 -11.296  17.829  0.00  0.00    +0.337 C 
BRANCH  32   6
ATOM      6  O   UNL     1      -3.147 -11.987  18.750  0.00  0.00    -0.477 OA
ATOM     37  H   UNL     1      -3.721 -12.469  19.383  0.00  0.00    +0.295 HD
ENDBRANCH  32   6
ENDBRANCH  26  32
ENDBRANCH  20  23
BRANCH  21  10
ATOM     10  N   UNL     1      -3.454 -10.337  13.112  0.00  0.00    -0.211 N 
ATOM     36  H   UNL     1      -3.453  -9.308  13.096  0.00  0.00    +0.174 HD
BRANCH  10   1
ATOM      1  S   UNL     1      -2.546 -11.062  11.881  0.00  0.00    +0.072 S 
ATOM      4  O   UNL     1      -1.249 -10.421  11.786  0.00  0.00    -0.150 OA
ATOM      5  O   UNL     1      -2.643 -12.506  11.989  0.00  0.00    -0.150 OA
BRANCH   1  28
ATOM     28  C   UNL     1      -3.478 -10.577  10.458  0.00  0.00    +0.108 A 
ATOM     30  C   UNL     1      -3.499  -9.245  10.086  0.00  0.00    +0.029 A 
ATOM     31  C   UNL     1      -4.170 -11.541   9.743  0.00  0.00    +0.029 A 
ATOM     33  C   UNL     1      -4.234  -8.862   8.964  0.00  0.00    +0.002 A 
ATOM     34  C   UNL     1      -4.905 -11.158   8.621  0.00  0.00    +0.002 A 
ATOM     35  C   UNL     1      -4.937  -9.819   8.232  0.00  0.00    +0.000 A 
ENDBRANCH   1  28
ENDBRANCH  10   1
ENDBRANCH  21  10
TORSDOF 6
ENDMDL
MODEL 7
REMARK VINA RESULT:      -7.0      3.134      7.113
REMARK  Name = 11867169
REMARK  6 active torsions:
REMARK  status: ('A' for Active; 'I' for Inactive)
REMARK    1  A    between atoms: S_1  and  N_10
REMARK    2  A    between atoms: S_1  and  C_28
REMARK    3  A    between atoms: O_6  and  C_32
REMARK    4  A    between atoms: N_10  and  C_21
REMARK    5  A    between atoms: C_20  and  C_23
REMARK    6  A    between atoms: C_26  and  C_32
REMARK                            x       y       z     vdW  Elec       q    Type
REMARK                         _______ _______ _______ _____ _____    ______ ____
ROOT
ATOM      2  O   UNL     1      12.132  10.882   6.328  0.00  0.00    -0.266 OA
ATOM      3  O   UNL     1      14.119   9.461   1.759  0.00  0.00    -0.270 OA
ATOM      8  N   UNL     1      15.597   8.748   3.428  0.00  0.00    -0.297 N 
ATOM      9  N   UNL     1      14.067   9.586   6.077  0.00  0.00    -0.310 N 
ATOM     11  C   UNL     1      16.239  10.499   5.076  0.00  0.00    +0.027 C 
ATOM     12  C   UNL     1      16.112   8.143   5.781  0.00  0.00    +0.054 C 
ATOM     13  C   UNL     1      16.915   9.434   5.932  0.00  0.00    +0.018 C 
ATOM     14  C   UNL     1      16.211  10.064   3.599  0.00  0.00    +0.113 C 
ATOM     15  C   UNL     1      14.832  10.757   5.629  0.00  0.00    +0.130 C 
ATOM     16  C   UNL     1      16.131   7.695   4.306  0.00  0.00    +0.117 C 
ATOM     17  C   UNL     1      14.679   8.335   6.238  0.00  0.00    +0.027 A 
ATOM     18  C   UNL     1      13.991   7.302   6.759  0.00  0.00    +0.024 A 
ATOM     19  C   UNL     1      12.720   9.806   6.432  0.00  0.00    +0.274 A 
ATOM     20  C   UNL     1      14.570   8.585   2.495  0.00  0.00    +0.247 C 
ATOM     21  C   UNL     1      12.007   8.623   6.977  0.00  0.00    +0.112 A 
ATOM     22  C   UNL     1      12.613   7.446   7.139  0.00  0.00    +0.031 A 
ENDROOT
BRANCH  20  23
ATOM     23  C   UNL     1      13.948   7.262   2.383  0.00  0.00    +0.038 A 
ATOM     24  C   UNL     1      14.632   6.225   1.751  0.00  0.00    +0.028 A 
ATOM     25  C   UNL     1      12.677   7.047   2.908  0.00  0.00    +0.013 A 
ATOM     26  C   UNL     1      14.042   4.966   1.645  0.00  0.00    +0.060 A 
ATOM     27  C   UNL     1      12.085   5.787   2.802  0.00  0.00    +0.002 A 
ATOM     29  C   UNL     1      12.767   4.747   2.171  0.00  0.00    +0.015 A 
BRANCH  26  32
ATOM      7  O   UNL     1      14.644   3.574  -0.204  0.00  0.00    -0.245 OA
ATOM     32  C   UNL     1      14.752   3.882   0.987  0.00  0.00    +0.337 C 
BRANCH  32   6
ATOM      6  O   UNL     1      15.580   3.211   1.835  0.00  0.00    -0.477 OA
ATOM     37  H   UNL     1      15.482   3.521   2.762  0.00  0.00    +0.295 HD
ENDBRANCH  32   6
ENDBRANCH  26  32
ENDBRANCH  20  23
BRANCH  21  10
ATOM     10  N   UNL     1      10.655   8.720   7.350  0.00  0.00    -0.211 N 
ATOM     36  H   UNL     1      10.518   8.680   8.369  0.00  0.00    +0.174 HD
BRANCH  10   1
ATOM      1  S   UNL     1       9.542   7.814   6.453  0.00  0.00    +0.072 S 
ATOM      4  O   UNL     1       8.226   8.415   6.555  0.00  0.00    -0.150 OA
ATOM      5  O   UNL     1      10.103   7.500   5.152  0.00  0.00    -0.150 OA
BRANCH   1  28
ATOM     28  C   UNL     1       9.509   6.314   7.389  0.00  0.00    +0.108 A 
ATOM     30  C   UNL     1       9.845   5.124   6.769  0.00  0.00    +0.029 A 
ATOM     31  C   UNL     1       9.149   6.359   8.725  0.00  0.00    +0.029 A 
ATOM     33  C   UNL     1       9.820   3.940   7.507  0.00  0.00    +0.002 A 
ATOM     34  C   UNL     1       9.124   5.176   9.463  0.00  0.00    +0.002 A 
ATOM     35  C   UNL     1       9.459   3.966   8.854  0.00  0.00    +0.000 A 
ENDBRANCH   1  28
ENDBRANCH  10   1
ENDBRANCH  21  10
TORSDOF 6
ENDMDL
MODEL 8
REMARK VINA RESULT:      -7.0      2.561      4.543
REMARK  Name = 11867169
REMARK  6 active torsions:
REMARK  status: ('A' for Active; 'I' for Inactive)
REMARK    1  A    between atoms: S_1  and  N_10
REMARK    2  A    between atoms: S_1  and  C_28
REMARK    3  A    between atoms: O_6  and  C_32
REMARK    4  A    between atoms: N_10  and  C_21
REMARK    5  A    between atoms: C_20  and  C_23
REMARK    6  A    between atoms: C_26  and  C_32
REMARK                            x       y       z     vdW  Elec       q    Type
REMARK                         _______ _______ _______ _____ _____    ______ ____
ROOT
ATOM      2  O   UNL     1       8.541   7.987   2.685  0.00  0.00    -0.266 OA
ATOM      3  O   UNL     1      11.770  10.172   6.096  0.00  0.00    -0.270 OA
ATOM      8  N   UNL     1      11.166   8.073   6.936  0.00  0.00    -0.297 N 
ATOM      9  N   UNL     1       9.356   6.916   4.602  0.00  0.00    -0.310 N 
ATOM     11  C   UNL     1       8.718   7.627   6.977  0.00  0.00    +0.027 C 
ATOM     12  C   UNL     1      10.295   5.767   6.639  0.00  0.00    +0.054 C 
ATOM     13  C   UNL     1       8.997   6.172   7.336  0.00  0.00    +0.018 C 
ATOM     14  C   UNL     1       9.874   8.528   7.448  0.00  0.00    +0.113 C 
ATOM     15  C   UNL     1       8.486   7.727   5.465  0.00  0.00    +0.130 C 
ATOM     16  C   UNL     1      11.452   6.646   7.153  0.00  0.00    +0.117 C 
ATOM     17  C   UNL     1      10.175   5.909   5.134  0.00  0.00    +0.027 A 
ATOM     18  C   UNL     1      10.877   5.101   4.319  0.00  0.00    +0.024 A 
ATOM     19  C   UNL     1       9.251   7.132   3.212  0.00  0.00    +0.274 A 
ATOM     20  C   UNL     1      12.004   8.979   6.282  0.00  0.00    +0.247 C 
ATOM     21  C   UNL     1      10.068   6.225   2.367  0.00  0.00    +0.112 A 
ATOM     22  C   UNL     1      10.826   5.262   2.892  0.00  0.00    +0.031 A 
ENDROOT
BRANCH  20  23
ATOM     23  C   UNL     1      13.272   8.476   5.743  0.00  0.00    +0.038 A 
ATOM     24  C   UNL     1      13.295   7.836   4.506  0.00  0.00    +0.028 A 
ATOM     25  C   UNL     1      14.448   8.642   6.470  0.00  0.00    +0.013 A 
ATOM     26  C   UNL     1      14.500   7.359   3.992  0.00  0.00    +0.060 A 
ATOM     27  C   UNL     1      15.655   8.164   5.957  0.00  0.00    +0.002 A 
ATOM     29  C   UNL     1      15.681   7.523   4.718  0.00  0.00    +0.015 A 
BRANCH  26  32
ATOM      7  O   UNL     1      14.223   7.205   1.621  0.00  0.00    -0.245 OA
ATOM     32  C   UNL     1      14.528   6.690   2.702  0.00  0.00    +0.337 C 
BRANCH  32   6
ATOM      6  O   UNL     1      14.938   5.395   2.796  0.00  0.00    -0.477 OA
ATOM     37  H   UNL     1      15.351   5.081   1.963  0.00  0.00    +0.295 HD
ENDBRANCH  32   6
ENDBRANCH  26  32
ENDBRANCH  20  23
BRANCH  21  10
ATOM     10  N   UNL     1      10.055   6.357   0.968  0.00  0.00    -0.211 N 
ATOM     36  H   UNL     1       9.385   7.066   0.640  0.00  0.00    +0.174 HD
BRANCH  10   1
ATOM      1  S   UNL     1      10.072   4.929   0.058  0.00  0.00    +0.072 S 
ATOM      4  O   UNL     1       9.767   3.800   0.915  0.00  0.00    -0.150 OA
ATOM      5  O   UNL     1       9.339   5.129  -1.178  0.00  0.00    -0.150 OA
BRANCH   1  28
ATOM     28  C   UNL     1      11.788   4.826  -0.358  0.00  0.00    +0.108 A 
ATOM     30  C   UNL     1      12.535   3.763   0.118  0.00  0.00    +0.029 A 
ATOM     31  C   UNL     1      12.350   5.811  -1.152  0.00  0.00    +0.029 A 
ATOM     33  C   UNL     1      13.889   3.682  -0.210  0.00  0.00    +0.002 A 
ATOM     34  C   UNL     1      13.704   5.729  -1.480  0.00  0.00    +0.002 A 
ATOM     35  C   UNL     1      14.473   4.665  -1.008  0.00  0.00    +0.000 A 
ENDBRANCH   1  28
ENDBRANCH  10   1
ENDBRANCH  21  10
TORSDOF 6
ENDMDL
MODEL 9
REMARK VINA RESULT:      -6.9     23.549     27.285
REMARK  Name = 11867169
REMARK  6 active torsions:
REMARK  status: ('A' for Active; 'I' for Inactive)
REMARK    1  A    between atoms: S_1  and  N_10
REMARK    2  A    between atoms: S_1  and  C_28
REMARK    3  A    between atoms: O_6  and  C_32
REMARK    4  A    between atoms: N_10  and  C_21
REMARK    5  A    between atoms: C_20  and  C_23
REMARK    6  A    between atoms: C_26  and  C_32
REMARK                            x       y       z     vdW  Elec       q    Type
REMARK                         _______ _______ _______ _____ _____    ______ ____
ROOT
ATOM      2  O   UNL     1      -5.177 -14.347  14.989  0.00  0.00    -0.266 OA
ATOM      3  O   UNL     1      -9.323 -12.655  17.594  0.00  0.00    -0.270 OA
ATOM      8  N   UNL     1      -7.507 -11.311  18.202  0.00  0.00    -0.297 N 
ATOM      9  N   UNL     1      -5.189 -12.445  16.358  0.00  0.00    -0.310 N 
ATOM     11  C   UNL     1      -5.469 -12.558  18.901  0.00  0.00    +0.027 C 
ATOM     12  C   UNL     1      -5.245 -10.372  17.790  0.00  0.00    +0.054 C 
ATOM     13  C   UNL     1      -4.681 -11.253  18.903  0.00  0.00    +0.018 C 
ATOM     14  C   UNL     1      -6.964 -12.284  19.149  0.00  0.00    +0.113 C 
ATOM     15  C   UNL     1      -5.228 -13.278  17.568  0.00  0.00    +0.130 C 
ATOM     16  C   UNL     1      -6.729 -10.068  18.075  0.00  0.00    +0.117 C 
ATOM     17  C   UNL     1      -5.113 -11.048  16.438  0.00  0.00    +0.027 A 
ATOM     18  C   UNL     1      -4.962 -10.309  15.324  0.00  0.00    +0.024 A 
ATOM     19  C   UNL     1      -5.130 -13.125  15.123  0.00  0.00    +0.274 A 
ATOM     20  C   UNL     1      -8.670 -11.618  17.492  0.00  0.00    +0.247 C 
ATOM     21  C   UNL     1      -4.988 -12.254  13.929  0.00  0.00    +0.112 A 
ATOM     22  C   UNL     1      -4.900 -10.927  14.028  0.00  0.00    +0.031 A 
ENDROOT
BRANCH  20  23
ATOM     23  C   UNL     1      -9.160 -10.636  16.520  0.00  0.00    +0.038 A 
ATOM     24  C   UNL     1     -10.017  -9.619  16.932  0.00  0.00    +0.028 A 
ATOM     25  C   UNL     1      -8.765 -10.725  15.187  0.00  0.00    +0.013 A 
ATOM     26  C   UNL     1     -10.482  -8.684  16.008  0.00  0.00    +0.060 A 
ATOM     27  C   UNL     1      -9.230  -9.790  14.261  0.00  0.00    +0.002 A 
ATOM     29  C   UNL     1     -10.088  -8.770  14.671  0.00  0.00    +0.015 A 
BRANCH  26  32
ATOM      7  O   UNL     1     -12.609  -7.636  16.329  0.00  0.00    -0.245 OA
ATOM     32  C   UNL     1     -11.378  -7.621  16.434  0.00  0.00    +0.337 C 
BRANCH  32   6
ATOM      6  O   UNL     1     -10.711  -6.568  16.982  0.00  0.00    -0.477 OA
ATOM     37  H   UNL     1     -10.873  -5.736  16.487  0.00  0.00    +0.295 HD
ENDBRANCH  32   6
ENDBRANCH  26  32
ENDBRANCH  20  23
BRANCH  21  10
ATOM     10  N   UNL     1      -4.935 -12.818  12.643  0.00  0.00    -0.211 N 
ATOM     36  H   UNL     1      -5.457 -13.703  12.573  0.00  0.00    +0.174 HD
BRANCH  10   1
ATOM      1  S   UNL     1      -3.431 -12.825  11.866  0.00  0.00    +0.072 S 
ATOM      4  O   UNL     1      -2.379 -12.577  12.833  0.00  0.00    -0.150 OA
ATOM      5  O   UNL     1      -3.348 -13.965  10.971  0.00  0.00    -0.150 OA
BRANCH   1  28
ATOM     28  C   UNL     1      -3.575 -11.376  10.861  0.00  0.00    +0.108 A 
ATOM     30  C   UNL     1      -4.477 -11.369   9.812  0.00  0.00    +0.029 A 
ATOM     31  C   UNL     1      -2.782 -10.277  11.144  0.00  0.00    +0.029 A 
ATOM     33  C   UNL     1      -4.591 -10.227   9.019  0.00  0.00    +0.002 A 
ATOM     34  C   UNL     1      -2.896  -9.134  10.351  0.00  0.00    +0.002 A 
ATOM     35  C   UNL     1      -3.800  -9.110   9.289  0.00  0.00    +0.000 A 
ENDBRANCH   1  28
ENDBRANCH  10   1
ENDBRANCH  21  10
TORSDOF 6
ENDMDL
MODEL 10
REMARK VINA RESULT:      -6.8      3.596      6.706
REMARK  Name = 11867169
REMARK  6 active torsions:
REMARK  status: ('A' for Active; 'I' for Inactive)
REMARK    1  A    between atoms: S_1  and  N_10
REMARK    2  A    between atoms: S_1  and  C_28
REMARK    3  A    between atoms: O_6  and  C_32
REMARK    4  A    between atoms: N_10  and  C_21
REMARK    5  A    between atoms: C_20  and  C_23
REMARK    6  A    between atoms: C_26  and  C_32
REMARK                            x       y       z     vdW  Elec       q    Type
REMARK                         _______ _______ _______ _____ _____    ______ ____
ROOT
ATOM      2  O   UNL     1      14.066   6.500   7.332  0.00  0.00    -0.266 OA
ATOM      3  O   UNL     1      10.820   4.499   3.825  0.00  0.00    -0.270 OA
ATOM      8  N   UNL     1       9.637   6.103   5.051  0.00  0.00    -0.297 N 
ATOM      9  N   UNL     1      11.880   7.262   6.972  0.00  0.00    -0.310 N 
ATOM     11  C   UNL     1       9.806   5.865   7.523  0.00  0.00    +0.027 C 
ATOM     12  C   UNL     1       9.546   8.100   6.524  0.00  0.00    +0.054 C 
ATOM     13  C   UNL     1       9.117   7.214   7.692  0.00  0.00    +0.018 C 
ATOM     14  C   UNL     1       9.397   5.215   6.189  0.00  0.00    +0.113 C 
ATOM     15  C   UNL     1      11.323   6.069   7.625  0.00  0.00    +0.130 C 
ATOM     16  C   UNL     1       9.090   7.461   5.197  0.00  0.00    +0.117 C 
ATOM     17  C   UNL     1      11.050   8.292   6.508  0.00  0.00    +0.027 A 
ATOM     18  C   UNL     1      11.583   9.426   6.017  0.00  0.00    +0.024 A 
ATOM     19  C   UNL     1      13.286   7.362   6.928  0.00  0.00    +0.274 A 
ATOM     20  C   UNL     1      10.359   5.632   3.952  0.00  0.00    +0.247 C 
ATOM     21  C   UNL     1      13.813   8.626   6.354  0.00  0.00    +0.112 A 
ATOM     22  C   UNL     1      13.007   9.601   5.934  0.00  0.00    +0.031 A 
ENDROOT
BRANCH  20  23
ATOM     23  C   UNL     1      10.618   6.564   2.850  0.00  0.00    +0.038 A 
ATOM     24  C   UNL     1      11.655   7.489   2.953  0.00  0.00    +0.028 A 
ATOM     25  C   UNL     1       9.828   6.520   1.705  0.00  0.00    +0.013 A 
ATOM     26  C   UNL     1      11.903   8.375   1.905  0.00  0.00    +0.060 A 
ATOM     27  C   UNL     1      10.075   7.407   0.656  0.00  0.00    +0.002 A 
ATOM     29  C   UNL     1      11.112   8.334   0.756  0.00  0.00    +0.015 A 
BRANCH  26  32
ATOM      7  O   UNL     1      12.871  10.499   2.429  0.00  0.00    -0.245 OA
ATOM     32  C   UNL     1      12.983   9.342   2.009  0.00  0.00    +0.337 C 
BRANCH  32   6
ATOM      6  O   UNL     1      14.176   8.838   1.587  0.00  0.00    -0.477 OA
ATOM     37  H   UNL     1      14.275   7.890   1.822  0.00  0.00    +0.295 HD
ENDBRANCH  32   6
ENDBRANCH  26  32
ENDBRANCH  20  23
BRANCH  21  10
ATOM     10  N   UNL     1      15.199   8.831   6.244  0.00  0.00    -0.211 N 
ATOM     36  H   UNL     1      15.531   9.626   6.807  0.00  0.00    +0.174 HD
BRANCH  10   1
ATOM      1  S   UNL     1      15.873   8.735   4.694  0.00  0.00    +0.072 S 
ATOM      4  O   UNL     1      15.392   7.541   4.025  0.00  0.00    -0.150 OA
ATOM      5  O   UNL     1      15.780  10.027   4.041  0.00  0.00    -0.150 OA
BRANCH   1  28
ATOM     28  C   UNL     1      17.575   8.466   5.093  0.00  0.00    +0.108 A 
ATOM     30  C   UNL     1      18.028   8.775   6.363  0.00  0.00    +0.029 A 
ATOM     31  C   UNL     1      18.422   7.952   4.126  0.00  0.00    +0.029 A 
ATOM     33  C   UNL     1      19.370   8.563   6.678  0.00  0.00    +0.002 A 
ATOM     34  C   UNL     1      19.764   7.741   4.440  0.00  0.00    +0.002 A 
ATOM     35  C   UNL     1      20.238   8.047   5.716  0.00  0.00    +0.000 A 
ENDBRANCH   1  28
ENDBRANCH  10   1
ENDBRANCH  21  10
TORSDOF 6
ENDMDL
