MODEL 1
REMARK VINA RESULT:      -7.5      0.000      0.000
REMARK  Name = 11912816
REMARK  6 active torsions:
REMARK  status: ('A' for Active; 'I' for Inactive)
REMARK    1  A    between atoms: O_5  and  C_30
REMARK    2  A    between atoms: O_5  and  C_31
REMARK    3  A    between atoms: N_6  and  C_12
REMARK    4  A    between atoms: N_7  and  C_13
REMARK    5  A    between atoms: C_17  and  C_18
REMARK    6  A    between atoms: C_19  and  C_23
REMARK                            x       y       z     vdW  Elec       q    Type
REMARK                         _______ _______ _______ _____ _____    ______ ____
ROOT
ATOM      1  O   UNL     1      -5.009  -8.778  10.499  0.00  0.00    -0.370 OA
ATOM      2  O   UNL     1      -6.207 -11.656  10.380  0.00  0.00    -0.370 OA
ATOM     10  C   UNL     1      -4.884 -11.151  10.625  0.00  0.00    +0.171 C 
ATOM     11  C   UNL     1      -4.689  -9.945   9.726  0.00  0.00    +0.171 C 
ATOM     12  C   UNL     1      -4.790 -10.587  12.024  0.00  0.00    +0.130 C 
ATOM     13  C   UNL     1      -5.705 -10.141   8.624  0.00  0.00    +0.130 C 
ATOM     14  C   UNL     1      -5.308  -9.171  11.847  0.00  0.00    +0.185 C 
ATOM     15  C   UNL     1      -6.820 -10.882   9.339  0.00  0.00    +0.185 C 
ENDROOT
BRANCH  12   6
ATOM      6  N   UNL     1      -3.409 -10.565  12.456  0.00  0.00    -0.306 N 
ATOM      8  N   UNL     1      -4.004 -10.634  14.725  0.00  0.00    -0.214 NA
ATOM      9  N   UNL     1      -1.690 -10.564  14.053  0.00  0.00    -0.223 NA
ATOM     16  C   UNL     1      -3.023 -10.589  13.784  0.00  0.00    +0.216 A 
ATOM     19  C   UNL     1      -3.591 -10.657  16.009  0.00  0.00    +0.076 A 
ATOM     21  C   UNL     1      -1.350 -10.589  15.358  0.00  0.00    +0.116 A 
ATOM     22  C   UNL     1      -2.265 -10.636  16.389  0.00  0.00    +0.048 A 
ATOM     32  H   UNL     1      -2.670 -10.583  11.763  0.00  0.00    +0.149 HD
BRANCH  19  23
ATOM     23  C   UNL     1      -4.648 -10.707  16.991  0.00  0.00    +0.001 A 
ATOM     26  C   UNL     1      -5.875 -10.091  16.732  0.00  0.00    +0.013 A 
ATOM     27  C   UNL     1      -4.448 -11.369  18.203  0.00  0.00    +0.013 A 
ATOM     28  C   UNL     1      -6.896 -10.139  17.681  0.00  0.00    +0.046 A 
ATOM     29  C   UNL     1      -5.468 -11.417  19.152  0.00  0.00    +0.046 A 
ATOM     30  C   UNL     1      -6.692 -10.802  18.892  0.00  0.00    +0.120 A 
BRANCH  30   5
ATOM      5  O   UNL     1      -7.687 -10.847  19.818  0.00  0.00    -0.495 OA
ATOM     31  C   UNL     1      -9.018 -11.017  19.334  0.00  0.00    +0.277 C 
ENDBRANCH  30   5
ENDBRANCH  19  23
ENDBRANCH  12   6
BRANCH  13   7
ATOM      3  O   UNL     1      -6.286  -9.809   5.884  0.00  0.00    -0.267 OA
ATOM      7  N   UNL     1      -5.161 -10.928   7.545  0.00  0.00    -0.301 N 
ATOM     17  C   UNL     1      -5.499 -10.700   6.211  0.00  0.00    +0.280 C 
ATOM     33  H   UNL     1      -4.469 -11.641   7.763  0.00  0.00    +0.150 HD
BRANCH  17  18
ATOM      4  O   UNL     1      -5.493 -11.754   4.074  0.00  0.00    -0.458 OA
ATOM     18  C   UNL     1      -4.837 -11.563   5.224  0.00  0.00    +0.189 A 
ATOM     20  C   UNL     1      -3.657 -12.206   5.288  0.00  0.00    +0.054 A 
ATOM     24  C   UNL     1      -3.547 -12.878   4.048  0.00  0.00    +0.042 A 
ATOM     25  C   UNL     1      -4.689 -12.571   3.345  0.00  0.00    +0.196 A 
ENDBRANCH  17  18
ENDBRANCH  13   7
TORSDOF 5
ENDMDL
MODEL 2
REMARK VINA RESULT:      -6.7      7.198      8.376
REMARK  Name = 11912816
REMARK  6 active torsions:
REMARK  status: ('A' for Active; 'I' for Inactive)
REMARK    1  A    between atoms: O_5  and  C_30
REMARK    2  A    between atoms: O_5  and  C_31
REMARK    3  A    between atoms: N_6  and  C_12
REMARK    4  A    between atoms: N_7  and  C_13
REMARK    5  A    between atoms: C_17  and  C_18
REMARK    6  A    between atoms: C_19  and  C_23
REMARK                            x       y       z     vdW  Elec       q    Type
REMARK                         _______ _______ _______ _____ _____    ______ ____
ROOT
ATOM      1  O   UNL     1     -11.027  -5.970  16.375  0.00  0.00    -0.370 OA
ATOM      2  O   UNL     1     -12.496  -8.192  14.750  0.00  0.00    -0.370 OA
ATOM     10  C   UNL     1     -11.117  -7.800  14.856  0.00  0.00    +0.171 C 
ATOM     11  C   UNL     1     -11.087  -6.289  14.975  0.00  0.00    +0.171 C 
ATOM     12  C   UNL     1     -10.535  -8.285  16.164  0.00  0.00    +0.130 C 
ATOM     13  C   UNL     1     -12.410  -5.848  14.391  0.00  0.00    +0.130 C 
ATOM     14  C   UNL     1     -10.932  -7.185  17.132  0.00  0.00    +0.185 C 
ATOM     15  C   UNL     1     -13.318  -7.016  14.728  0.00  0.00    +0.185 C 
ENDROOT
BRANCH  12   6
ATOM      6  N   UNL     1      -9.094  -8.367  16.063  0.00  0.00    -0.306 N 
ATOM      8  N   UNL     1      -8.973 -10.102  17.638  0.00  0.00    -0.214 NA
ATOM      9  N   UNL     1      -6.980  -9.234  16.597  0.00  0.00    -0.223 NA
ATOM     16  C   UNL     1      -8.326  -9.262  16.788  0.00  0.00    +0.216 A 
ATOM     19  C   UNL     1      -8.194 -10.960  18.327  0.00  0.00    +0.076 A 
ATOM     21  C   UNL     1      -6.263 -10.119  17.319  0.00  0.00    +0.116 A 
ATOM     22  C   UNL     1      -6.820 -11.015  18.208  0.00  0.00    +0.048 A 
ATOM     32  H   UNL     1      -8.607  -7.781  15.395  0.00  0.00    +0.149 HD
BRANCH  19  23
ATOM     23  C   UNL     1      -8.900 -11.845  19.223  0.00  0.00    +0.001 A 
ATOM     26  C   UNL     1      -8.308 -13.040  19.640  0.00  0.00    +0.013 A 
ATOM     27  C   UNL     1     -10.178 -11.510  19.675  0.00  0.00    +0.013 A 
ATOM     28  C   UNL     1      -8.992 -13.895  20.505  0.00  0.00    +0.046 A 
ATOM     29  C   UNL     1     -10.861 -12.365  20.540  0.00  0.00    +0.046 A 
ATOM     30  C   UNL     1     -10.269 -13.558  20.955  0.00  0.00    +0.120 A 
BRANCH  30   5
ATOM      5  O   UNL     1     -10.935 -14.391  21.797  0.00  0.00    -0.495 OA
ATOM     31  C   UNL     1     -12.127 -13.890  22.400  0.00  0.00    +0.277 C 
ENDBRANCH  30   5
ENDBRANCH  19  23
ENDBRANCH  12   6
BRANCH  13   7
ATOM      3  O   UNL     1     -12.461  -3.363  13.057  0.00  0.00    -0.267 OA
ATOM      7  N   UNL     1     -12.313  -5.654  12.965  0.00  0.00    -0.301 N 
ATOM     17  C   UNL     1     -12.346  -4.388  12.381  0.00  0.00    +0.280 C 
ATOM     33  H   UNL     1     -12.165  -6.467  12.372  0.00  0.00    +0.150 HD
BRANCH  17  18
ATOM      4  O   UNL     1     -12.798  -5.342  10.245  0.00  0.00    -0.458 OA
ATOM     18  C   UNL     1     -12.203  -4.351  10.920  0.00  0.00    +0.189 A 
ATOM     20  C   UNL     1     -11.561  -3.469  10.133  0.00  0.00    +0.054 A 
ATOM     24  C   UNL     1     -11.766  -3.946   8.817  0.00  0.00    +0.042 A 
ATOM     25  C   UNL     1     -12.525  -5.087   8.938  0.00  0.00    +0.196 A 
ENDBRANCH  17  18
ENDBRANCH  13   7
TORSDOF 5
ENDMDL
MODEL 3
REMARK VINA RESULT:      -6.7     25.342     27.068
REMARK  Name = 11912816
REMARK  6 active torsions:
REMARK  status: ('A' for Active; 'I' for Inactive)
REMARK    1  A    between atoms: O_5  and  C_30
REMARK    2  A    between atoms: O_5  and  C_31
REMARK    3  A    between atoms: N_6  and  C_12
REMARK    4  A    between atoms: N_7  and  C_13
REMARK    5  A    between atoms: C_17  and  C_18
REMARK    6  A    between atoms: C_19  and  C_23
REMARK                            x       y       z     vdW  Elec       q    Type
REMARK                         _______ _______ _______ _____ _____    ______ ____
ROOT
ATOM      1  O   UNL     1      10.928  13.669   9.992  0.00  0.00    -0.370 OA
ATOM      2  O   UNL     1       9.613  11.746  12.066  0.00  0.00    -0.370 OA
ATOM     10  C   UNL     1      10.959  11.909  11.593  0.00  0.00    +0.171 C 
ATOM     11  C   UNL     1      10.880  12.238  10.115  0.00  0.00    +0.171 C 
ATOM     12  C   UNL     1      11.586  13.137  12.212  0.00  0.00    +0.130 C 
ATOM     13  C   UNL     1       9.524  11.719   9.695  0.00  0.00    +0.130 C 
ATOM     14  C   UNL     1      11.118  14.249  11.290  0.00  0.00    +0.185 C 
ATOM     15  C   UNL     1       8.706  11.887  10.962  0.00  0.00    +0.185 C 
ENDROOT
BRANCH  12   6
ATOM      6  N   UNL     1      13.028  13.028  12.173  0.00  0.00    -0.306 N 
ATOM      8  N   UNL     1      13.081  11.611  14.043  0.00  0.00    -0.214 NA
ATOM      9  N   UNL     1      15.115  12.261  12.923  0.00  0.00    -0.223 NA
ATOM     16  C   UNL     1      13.763  12.277  13.073  0.00  0.00    +0.216 A 
ATOM     19  C   UNL     1      13.829  10.890  14.902  0.00  0.00    +0.076 A 
ATOM     21  C   UNL     1      15.800  11.519  13.818  0.00  0.00    +0.116 A 
ATOM     22  C   UNL     1      15.205  10.806  14.838  0.00  0.00    +0.048 A 
ATOM     32  H   UNL     1      13.542  13.479  11.424  0.00  0.00    +0.149 HD
BRANCH  19  23
ATOM     23  C   UNL     1      13.086  10.190  15.922  0.00  0.00    +0.001 A 
ATOM     26  C   UNL     1      13.512  10.229  17.252  0.00  0.00    +0.013 A 
ATOM     27  C   UNL     1      11.939   9.469  15.584  0.00  0.00    +0.013 A 
ATOM     28  C   UNL     1      12.794   9.552  18.238  0.00  0.00    +0.046 A 
ATOM     29  C   UNL     1      11.221   8.792  16.569  0.00  0.00    +0.046 A 
ATOM     30  C   UNL     1      11.648   8.832  17.896  0.00  0.00    +0.120 A 
BRANCH  30   5
ATOM      5  O   UNL     1      10.948   8.171  18.856  0.00  0.00    -0.495 OA
ATOM     31  C   UNL     1      11.207   8.531  20.212  0.00  0.00    +0.277 C 
ENDBRANCH  30   5
ENDBRANCH  19  23
ENDBRANCH  12   6
BRANCH  13   7
ATOM      3  O   UNL     1       9.530  10.765   7.041  0.00  0.00    -0.267 OA
ATOM      7  N   UNL     1       9.595  10.335   9.296  0.00  0.00    -0.301 N 
ATOM     17  C   UNL     1       9.594   9.944   7.957  0.00  0.00    +0.280 C 
ATOM     33  H   UNL     1       9.700   9.625  10.017  0.00  0.00    +0.150 HD
BRANCH  17  18
ATOM      4  O   UNL     1      10.930   8.042   7.429  0.00  0.00    -0.458 OA
ATOM     18  C   UNL     1       9.704   8.500   7.711  0.00  0.00    +0.189 A 
ATOM     20  C   UNL     1       8.758   7.544   7.723  0.00  0.00    +0.054 A 
ATOM     24  C   UNL     1       9.451   6.349   7.416  0.00  0.00    +0.042 A 
ATOM     25  C   UNL     1      10.769   6.705   7.246  0.00  0.00    +0.196 A 
ENDBRANCH  17  18
ENDBRANCH  13   7
TORSDOF 5
ENDMDL
MODEL 4
REMARK VINA RESULT:      -6.6      5.270     10.295
REMARK  Name = 11912816
REMARK  6 active torsions:
REMARK  status: ('A' for Active; 'I' for Inactive)
REMARK    1  A    between atoms: O_5  and  C_30
REMARK    2  A    between atoms: O_5  and  C_31
REMARK    3  A    between atoms: N_6  and  C_12
REMARK    4  A    between atoms: N_7  and  C_13
REMARK    5  A    between atoms: C_17  and  C_18
REMARK    6  A    between atoms: C_19  and  C_23
REMARK                            x       y       z     vdW  Elec       q    Type
REMARK                         _______ _______ _______ _____ _____    ______ ____
ROOT
ATOM      1  O   UNL     1     -10.221 -10.179  15.847  0.00  0.00    -0.370 OA
ATOM      2  O   UNL     1     -10.292  -7.076  16.166  0.00  0.00    -0.370 OA
ATOM     10  C   UNL     1     -10.110  -8.156  17.096  0.00  0.00    +0.171 C 
ATOM     11  C   UNL     1     -11.013  -9.290  16.652  0.00  0.00    +0.171 C 
ATOM     12  C   UNL     1      -8.715  -8.724  16.971  0.00  0.00    +0.130 C 
ATOM     13  C   UNL     1     -12.066  -8.611  15.805  0.00  0.00    +0.130 C 
ATOM     14  C   UNL     1      -8.862  -9.718  15.832  0.00  0.00    +0.185 C 
ATOM     15  C   UNL     1     -11.300  -7.442  15.212  0.00  0.00    +0.185 C 
ENDROOT
BRANCH  12   6
ATOM      6  N   UNL     1      -8.350  -9.411  18.190  0.00  0.00    -0.306 N 
ATOM      8  N   UNL     1      -6.273 -10.076  17.324  0.00  0.00    -0.214 NA
ATOM      9  N   UNL     1      -6.932 -10.680  19.562  0.00  0.00    -0.223 NA
ATOM     16  C   UNL     1      -7.149 -10.076  18.364  0.00  0.00    +0.216 A 
ATOM     19  C   UNL     1      -5.113 -10.733  17.528  0.00  0.00    +0.076 A 
ATOM     21  C   UNL     1      -5.750 -11.319  19.697  0.00  0.00    +0.116 A 
ATOM     22  C   UNL     1      -4.794 -11.379  18.705  0.00  0.00    +0.048 A 
ATOM     32  H   UNL     1      -8.973  -9.373  18.989  0.00  0.00    +0.149 HD
BRANCH  19  23
ATOM     23  C   UNL     1      -4.198 -10.720  16.412  0.00  0.00    +0.001 A 
ATOM     26  C   UNL     1      -2.819 -10.767  16.635  0.00  0.00    +0.013 A 
ATOM     27  C   UNL     1      -4.686 -10.661  15.105  0.00  0.00    +0.013 A 
ATOM     28  C   UNL     1      -1.935 -10.754  15.557  0.00  0.00    +0.046 A 
ATOM     29  C   UNL     1      -3.801 -10.648  14.027  0.00  0.00    +0.046 A 
ATOM     30  C   UNL     1      -2.426 -10.694  14.252  0.00  0.00    +0.120 A 
BRANCH  30   5
ATOM      5  O   UNL     1      -1.564 -10.680  13.200  0.00  0.00    -0.495 OA
ATOM     31  C   UNL     1      -2.101 -10.337  11.924  0.00  0.00    +0.277 C 
ENDBRANCH  30   5
ENDBRANCH  19  23
ENDBRANCH  12   6
BRANCH  13   7
ATOM      3  O   UNL     1     -14.791  -8.755  15.095  0.00  0.00    -0.267 OA
ATOM      7  N   UNL     1     -13.173  -8.158  16.611  0.00  0.00    -0.301 N 
ATOM     17  C   UNL     1     -14.496  -8.265  16.187  0.00  0.00    +0.280 C 
ATOM     33  H   UNL     1     -12.980  -7.793  17.541  0.00  0.00    +0.150 HD
BRANCH  17  18
ATOM      4  O   UNL     1     -16.012  -6.569  16.899  0.00  0.00    -0.458 OA
ATOM     18  C   UNL     1     -15.514  -7.789  17.134  0.00  0.00    +0.189 A 
ATOM     20  C   UNL     1     -16.038  -8.389  18.217  0.00  0.00    +0.054 A 
ATOM     24  C   UNL     1     -16.968  -7.454  18.731  0.00  0.00    +0.042 A 
ATOM     25  C   UNL     1     -16.916  -6.364  17.893  0.00  0.00    +0.196 A 
ENDBRANCH  17  18
ENDBRANCH  13   7
TORSDOF 5
ENDMDL
MODEL 5
REMARK VINA RESULT:      -6.6      5.422      7.870
REMARK  Name = 11912816
REMARK  6 active torsions:
REMARK  status: ('A' for Active; 'I' for Inactive)
REMARK    1  A    between atoms: O_5  and  C_30
REMARK    2  A    between atoms: O_5  and  C_31
REMARK    3  A    between atoms: N_6  and  C_12
REMARK    4  A    between atoms: N_7  and  C_13
REMARK    5  A    between atoms: C_17  and  C_18
REMARK    6  A    between atoms: C_19  and  C_23
REMARK                            x       y       z     vdW  Elec       q    Type
REMARK                         _______ _______ _______ _____ _____    ______ ____
ROOT
ATOM      1  O   UNL     1      -4.007 -10.498  16.883  0.00  0.00    -0.370 OA
ATOM      2  O   UNL     1      -5.488 -11.534  14.340  0.00  0.00    -0.370 OA
ATOM     10  C   UNL     1      -5.576 -11.870  15.735  0.00  0.00    +0.171 C 
ATOM     11  C   UNL     1      -4.172 -11.803  16.303  0.00  0.00    +0.171 C 
ATOM     12  C   UNL     1      -6.330 -10.797  16.485  0.00  0.00    +0.130 C 
ATOM     13  C   UNL     1      -3.278 -11.957  15.094  0.00  0.00    +0.130 C 
ATOM     14  C   UNL     1      -5.245  -9.779  16.789  0.00  0.00    +0.185 C 
ATOM     15  C   UNL     1      -4.111 -11.328  13.992  0.00  0.00    +0.185 C 
ENDROOT
BRANCH  12   6
ATOM      6  N   UNL     1      -6.867 -11.338  17.714  0.00  0.00    -0.306 N 
ATOM      8  N   UNL     1      -8.818 -10.042  17.560  0.00  0.00    -0.214 NA
ATOM      9  N   UNL     1      -8.478 -11.555  19.406  0.00  0.00    -0.223 NA
ATOM     16  C   UNL     1      -8.092 -10.967  18.243  0.00  0.00    +0.216 A 
ATOM     19  C   UNL     1     -10.005  -9.705  18.104  0.00  0.00    +0.076 A 
ATOM     21  C   UNL     1      -9.677 -11.170  19.893  0.00  0.00    +0.116 A 
ATOM     22  C   UNL     1     -10.491 -10.241  19.279  0.00  0.00    +0.048 A 
ATOM     32  H   UNL     1      -6.358 -12.065  18.203  0.00  0.00    +0.149 HD
BRANCH  19  23
ATOM     23  C   UNL     1     -10.761  -8.723  17.363  0.00  0.00    +0.001 A 
ATOM     26  C   UNL     1     -10.142  -7.553  16.916  0.00  0.00    +0.013 A 
ATOM     27  C   UNL     1     -12.113  -8.938  17.092  0.00  0.00    +0.013 A 
ATOM     28  C   UNL     1     -10.872  -6.604  16.201  0.00  0.00    +0.046 A 
ATOM     29  C   UNL     1     -12.844  -7.989  16.377  0.00  0.00    +0.046 A 
ATOM     30  C   UNL     1     -12.224  -6.822  15.932  0.00  0.00    +0.120 A 
BRANCH  30   5
ATOM      5  O   UNL     1     -12.937  -5.897  15.235  0.00  0.00    -0.495 OA
ATOM     31  C   UNL     1     -14.063  -6.365  14.496  0.00  0.00    +0.277 C 
ENDBRANCH  30   5
ENDBRANCH  19  23
ENDBRANCH  12   6
BRANCH  13   7
ATOM      3  O   UNL     1      -1.131 -12.947  13.556  0.00  0.00    -0.267 OA
ATOM      7  N   UNL     1      -3.008 -13.347  14.817  0.00  0.00    -0.301 N 
ATOM     17  C   UNL     1      -1.921 -13.756  14.046  0.00  0.00    +0.280 C 
ATOM     33  H   UNL     1      -3.605 -14.053  15.243  0.00  0.00    +0.150 HD
BRANCH  17  18
ATOM      4  O   UNL     1      -2.648 -15.974  14.526  0.00  0.00    -0.458 OA
ATOM     18  C   UNL     1      -1.761 -15.207  13.881  0.00  0.00    +0.189 A 
ATOM     20  C   UNL     1      -0.853 -15.904  13.175  0.00  0.00    +0.054 A 
ATOM     24  C   UNL     1      -1.194 -17.260  13.392  0.00  0.00    +0.042 A 
ATOM     25  C   UNL     1      -2.293 -17.250  14.219  0.00  0.00    +0.196 A 
ENDBRANCH  17  18
ENDBRANCH  13   7
TORSDOF 5
ENDMDL
MODEL 6
REMARK VINA RESULT:      -6.5      2.089     10.693
REMARK  Name = 11912816
REMARK  6 active torsions:
REMARK  status: ('A' for Active; 'I' for Inactive)
REMARK    1  A    between atoms: O_5  and  C_30
REMARK    2  A    between atoms: O_5  and  C_31
REMARK    3  A    between atoms: N_6  and  C_12
REMARK    4  A    between atoms: N_7  and  C_13
REMARK    5  A    between atoms: C_17  and  C_18
REMARK    6  A    between atoms: C_19  and  C_23
REMARK                            x       y       z     vdW  Elec       q    Type
REMARK                         _______ _______ _______ _____ _____    ______ ____
ROOT
ATOM      1  O   UNL     1      -2.958  -9.957  11.855  0.00  0.00    -0.370 OA
ATOM      2  O   UNL     1      -4.347 -12.717  12.292  0.00  0.00    -0.370 OA
ATOM     10  C   UNL     1      -4.847 -11.380  12.125  0.00  0.00    +0.171 C 
ATOM     11  C   UNL     1      -3.885 -10.448  12.837  0.00  0.00    +0.171 C 
ATOM     12  C   UNL     1      -4.758 -10.965  10.675  0.00  0.00    +0.130 C 
ATOM     13  C   UNL     1      -3.176 -11.340  13.830  0.00  0.00    +0.130 C 
ATOM     14  C   UNL     1      -3.332 -10.455  10.562  0.00  0.00    +0.185 C 
ATOM     15  C   UNL     1      -3.173 -12.680  13.118  0.00  0.00    +0.185 C 
ENDROOT
BRANCH  12   6
ATOM      6  N   UNL     1      -5.694  -9.895  10.409  0.00  0.00    -0.306 N 
ATOM      8  N   UNL     1      -5.719 -10.343   8.105  0.00  0.00    -0.214 NA
ATOM      9  N   UNL     1      -7.046  -8.558   9.034  0.00  0.00    -0.223 NA
ATOM     16  C   UNL     1      -6.167  -9.590   9.144  0.00  0.00    +0.216 A 
ATOM     19  C   UNL     1      -6.201 -10.018   6.888  0.00  0.00    +0.076 A 
ATOM     21  C   UNL     1      -7.487  -8.288   7.787  0.00  0.00    +0.116 A 
ATOM     22  C   UNL     1      -7.096  -8.990   6.667  0.00  0.00    +0.048 A 
ATOM     32  H   UNL     1      -6.074  -9.362  11.182  0.00  0.00    +0.149 HD
BRANCH  19  23
ATOM     23  C   UNL     1      -5.714 -10.830   5.799  0.00  0.00    +0.001 A 
ATOM     26  C   UNL     1      -6.499 -11.017   4.658  0.00  0.00    +0.013 A 
ATOM     27  C   UNL     1      -4.458 -11.433   5.882  0.00  0.00    +0.013 A 
ATOM     28  C   UNL     1      -6.028 -11.803   3.606  0.00  0.00    +0.046 A 
ATOM     29  C   UNL     1      -3.987 -12.219   4.830  0.00  0.00    +0.046 A 
ATOM     30  C   UNL     1      -4.772 -12.405   3.693  0.00  0.00    +0.120 A 
BRANCH  30   5
ATOM      5  O   UNL     1      -4.314 -13.172   2.667  0.00  0.00    -0.495 OA
ATOM     31  C   UNL     1      -2.914 -13.447   2.637  0.00  0.00    +0.277 C 
ENDBRANCH  30   5
ENDBRANCH  19  23
ENDBRANCH  12   6
BRANCH  13   7
ATOM      3  O   UNL     1      -2.167 -10.620  16.363  0.00  0.00    -0.267 OA
ATOM      7  N   UNL     1      -3.898 -11.411  15.077  0.00  0.00    -0.301 N 
ATOM     17  C   UNL     1      -3.326 -11.035  16.291  0.00  0.00    +0.280 C 
ATOM     33  H   UNL     1      -4.873 -11.699  15.059  0.00  0.00    +0.150 HD
BRANCH  17  18
ATOM      4  O   UNL     1      -5.336 -10.430  17.420  0.00  0.00    -0.458 OA
ATOM     18  C   UNL     1      -4.198 -11.133  17.469  0.00  0.00    +0.189 A 
ATOM     20  C   UNL     1      -4.039 -11.827  18.610  0.00  0.00    +0.054 A 
ATOM     24  C   UNL     1      -5.196 -11.536  19.372  0.00  0.00    +0.042 A 
ATOM     25  C   UNL     1      -5.954 -10.683  18.603  0.00  0.00    +0.196 A 
ENDBRANCH  17  18
ENDBRANCH  13   7
TORSDOF 5
ENDMDL
MODEL 7
REMARK VINA RESULT:      -6.4      2.929      9.000
REMARK  Name = 11912816
REMARK  6 active torsions:
REMARK  status: ('A' for Active; 'I' for Inactive)
REMARK    1  A    between atoms: O_5  and  C_30
REMARK    2  A    between atoms: O_5  and  C_31
REMARK    3  A    between atoms: N_6  and  C_12
REMARK    4  A    between atoms: N_7  and  C_13
REMARK    5  A    between atoms: C_17  and  C_18
REMARK    6  A    between atoms: C_19  and  C_23
REMARK                            x       y       z     vdW  Elec       q    Type
REMARK                         _______ _______ _______ _____ _____    ______ ____
ROOT
ATOM      1  O   UNL     1      -6.261 -12.958  18.048  0.00  0.00    -0.370 OA
ATOM      2  O   UNL     1      -6.993 -12.904  15.015  0.00  0.00    -0.370 OA
ATOM     10  C   UNL     1      -6.060 -12.160  15.815  0.00  0.00    +0.171 C 
ATOM     11  C   UNL     1      -6.712 -11.920  17.163  0.00  0.00    +0.171 C 
ATOM     12  C   UNL     1      -4.852 -13.009  16.135  0.00  0.00    +0.130 C 
ATOM     13  C   UNL     1      -8.191 -12.070  16.887  0.00  0.00    +0.130 C 
ATOM     14  C   UNL     1      -5.303 -13.779  17.363  0.00  0.00    +0.185 C 
ATOM     15  C   UNL     1      -8.209 -13.084  15.757  0.00  0.00    +0.185 C 
ENDROOT
BRANCH  12   6
ATOM      6  N   UNL     1      -3.725 -12.162  16.462  0.00  0.00    -0.306 N 
ATOM      8  N   UNL     1      -3.410 -11.533  14.223  0.00  0.00    -0.214 NA
ATOM      9  N   UNL     1      -1.977 -10.678  15.963  0.00  0.00    -0.223 NA
ATOM     16  C   UNL     1      -3.016 -11.436  15.521  0.00  0.00    +0.216 A 
ATOM     19  C   UNL     1      -2.697 -10.812  13.333  0.00  0.00    +0.076 A 
ATOM     21  C   UNL     1      -1.309  -9.983  15.019  0.00  0.00    +0.116 A 
ATOM     22  C   UNL     1      -1.626 -10.012  13.677  0.00  0.00    +0.048 A 
ATOM     32  H   UNL     1      -3.456 -12.042  17.431  0.00  0.00    +0.149 HD
BRANCH  19  23
ATOM     23  C   UNL     1      -3.132 -10.928  11.962  0.00  0.00    +0.001 A 
ATOM     26  C   UNL     1      -3.455 -12.180  11.433  0.00  0.00    +0.013 A 
ATOM     27  C   UNL     1      -3.230  -9.790  11.159  0.00  0.00    +0.013 A 
ATOM     28  C   UNL     1      -3.874 -12.292  10.107  0.00  0.00    +0.046 A 
ATOM     29  C   UNL     1      -3.649  -9.903   9.833  0.00  0.00    +0.046 A 
ATOM     30  C   UNL     1      -3.971 -11.153   9.307  0.00  0.00    +0.120 A 
BRANCH  30   5
ATOM      5  O   UNL     1      -4.379 -11.262   8.014  0.00  0.00    -0.495 OA
ATOM     31  C   UNL     1      -5.437 -10.404   7.592  0.00  0.00    +0.277 C 
ENDBRANCH  30   5
ENDBRANCH  19  23
ENDBRANCH  12   6
BRANCH  13   7
ATOM      3  O   UNL     1      -9.577 -10.269  18.558  0.00  0.00    -0.267 OA
ATOM      7  N   UNL     1      -8.776 -10.817  16.476  0.00  0.00    -0.301 N 
ATOM     17  C   UNL     1      -9.447  -9.980  17.367  0.00  0.00    +0.280 C 
ATOM     33  H   UNL     1      -8.649 -10.514  15.513  0.00  0.00    +0.150 HD
BRANCH  17  18
ATOM      4  O   UNL     1      -9.903  -8.609  15.472  0.00  0.00    -0.458 OA
ATOM     18  C   UNL     1      -9.959  -8.723  16.804  0.00  0.00    +0.189 A 
ATOM     20  C   UNL     1     -10.483  -7.649  17.419  0.00  0.00    +0.054 A 
ATOM     24  C   UNL     1     -10.796  -6.752  16.370  0.00  0.00    +0.042 A 
ATOM     25  C   UNL     1     -10.426  -7.383  15.205  0.00  0.00    +0.196 A 
ENDBRANCH  17  18
ENDBRANCH  13   7
TORSDOF 5
ENDMDL
MODEL 8
REMARK VINA RESULT:      -6.3      2.916     10.815
REMARK  Name = 11912816
REMARK  6 active torsions:
REMARK  status: ('A' for Active; 'I' for Inactive)
REMARK    1  A    between atoms: O_5  and  C_30
REMARK    2  A    between atoms: O_5  and  C_31
REMARK    3  A    between atoms: N_6  and  C_12
REMARK    4  A    between atoms: N_7  and  C_13
REMARK    5  A    between atoms: C_17  and  C_18
REMARK    6  A    between atoms: C_19  and  C_23
REMARK                            x       y       z     vdW  Elec       q    Type
REMARK                         _______ _______ _______ _____ _____    ______ ____
ROOT
ATOM      1  O   UNL     1      -3.543  -8.979  10.386  0.00  0.00    -0.370 OA
ATOM      2  O   UNL     1      -5.154 -11.611  10.846  0.00  0.00    -0.370 OA
ATOM     10  C   UNL     1      -5.514 -10.221  10.873  0.00  0.00    +0.171 C 
ATOM     11  C   UNL     1      -4.345  -9.464  11.475  0.00  0.00    +0.171 C 
ATOM     12  C   UNL     1      -5.619  -9.679   9.466  0.00  0.00    +0.130 C 
ATOM     13  C   UNL     1      -3.591 -10.515  12.256  0.00  0.00    +0.130 C 
ATOM     14  C   UNL     1      -4.182  -9.310   9.144  0.00  0.00    +0.185 C 
ATOM     15  C   UNL     1      -3.863 -11.775  11.453  0.00  0.00    +0.185 C 
ENDROOT
BRANCH  12   6
ATOM      6  N   UNL     1      -6.455  -8.499   9.452  0.00  0.00    -0.306 N 
ATOM      8  N   UNL     1      -7.106  -8.853   7.225  0.00  0.00    -0.214 NA
ATOM      9  N   UNL     1      -7.933  -6.962   8.472  0.00  0.00    -0.223 NA
ATOM     16  C   UNL     1      -7.187  -8.093   8.350  0.00  0.00    +0.216 A 
ATOM     19  C   UNL     1      -7.832  -8.428   6.171  0.00  0.00    +0.076 A 
ATOM     21  C   UNL     1      -8.633  -6.596   7.378  0.00  0.00    +0.116 A 
ATOM     22  C   UNL     1      -8.622  -7.296   6.190  0.00  0.00    +0.048 A 
ATOM     32  H   UNL     1      -6.562  -7.954  10.300  0.00  0.00    +0.149 HD
BRANCH  19  23
ATOM     23  C   UNL     1      -7.734  -9.250   4.989  0.00  0.00    +0.001 A 
ATOM     26  C   UNL     1      -8.289  -8.813   3.783  0.00  0.00    +0.013 A 
ATOM     27  C   UNL     1      -7.085 -10.484   5.045  0.00  0.00    +0.013 A 
ATOM     28  C   UNL     1      -8.195  -9.608   2.641  0.00  0.00    +0.046 A 
ATOM     29  C   UNL     1      -6.990 -11.279   3.903  0.00  0.00    +0.046 A 
ATOM     30  C   UNL     1      -7.545 -10.841   2.701  0.00  0.00    +0.120 A 
BRANCH  30   5
ATOM      5  O   UNL     1      -7.454 -11.617   1.587  0.00  0.00    -0.495 OA
ATOM     31  C   UNL     1      -6.757 -12.855   1.713  0.00  0.00    +0.277 C 
ENDBRANCH  30   5
ENDBRANCH  19  23
ENDBRANCH  12   6
BRANCH  13   7
ATOM      3  O   UNL     1      -2.032 -10.623  14.604  0.00  0.00    -0.267 OA
ATOM      7  N   UNL     1      -4.098 -10.632  13.601  0.00  0.00    -0.301 N 
ATOM     17  C   UNL     1      -3.258 -10.679  14.713  0.00  0.00    +0.280 C 
ATOM     33  H   UNL     1      -5.106 -10.630  13.743  0.00  0.00    +0.150 HD
BRANCH  17  18
ATOM      4  O   UNL     1      -3.269 -11.433  16.974  0.00  0.00    -0.458 OA
ATOM     18  C   UNL     1      -3.926 -10.765  16.019  0.00  0.00    +0.189 A 
ATOM     20  C   UNL     1      -5.112 -10.273  16.419  0.00  0.00    +0.054 A 
ATOM     24  C   UNL     1      -5.226 -10.669  17.773  0.00  0.00    +0.042 A 
ATOM     25  C   UNL     1      -4.079 -11.371  18.063  0.00  0.00    +0.196 A 
ENDBRANCH  17  18
ENDBRANCH  13   7
TORSDOF 5
ENDMDL
MODEL 9
REMARK VINA RESULT:      -6.2      5.581      9.228
REMARK  Name = 11912816
REMARK  6 active torsions:
REMARK  status: ('A' for Active; 'I' for Inactive)
REMARK    1  A    between atoms: O_5  and  C_30
REMARK    2  A    between atoms: O_5  and  C_31
REMARK    3  A    between atoms: N_6  and  C_12
REMARK    4  A    between atoms: N_7  and  C_13
REMARK    5  A    between atoms: C_17  and  C_18
REMARK    6  A    between atoms: C_19  and  C_23
REMARK                            x       y       z     vdW  Elec       q    Type
REMARK                         _______ _______ _______ _____ _____    ______ ____
ROOT
ATOM      1  O   UNL     1      -9.893  -6.903   6.302  0.00  0.00    -0.370 OA
ATOM      2  O   UNL     1      -8.022  -6.175   8.691  0.00  0.00    -0.370 OA
ATOM     10  C   UNL     1      -8.780  -7.350   8.358  0.00  0.00    +0.171 C 
ATOM     11  C   UNL     1     -10.078  -6.885   7.727  0.00  0.00    +0.171 C 
ATOM     12  C   UNL     1      -8.091  -8.122   7.257  0.00  0.00    +0.130 C 
ATOM     13  C   UNL     1     -10.237  -5.464   8.219  0.00  0.00    +0.130 C 
ATOM     14  C   UNL     1      -8.593  -7.431   6.001  0.00  0.00    +0.185 C 
ATOM     15  C   UNL     1      -8.796  -5.010   8.368  0.00  0.00    +0.185 C 
ENDROOT
BRANCH  12   6
ATOM      6  N   UNL     1      -8.523  -9.502   7.276  0.00  0.00    -0.306 N 
ATOM      8  N   UNL     1      -6.671 -10.180   8.548  0.00  0.00    -0.214 NA
ATOM      9  N   UNL     1      -8.344 -11.770   7.853  0.00  0.00    -0.223 NA
ATOM     16  C   UNL     1      -7.825 -10.514   7.912  0.00  0.00    +0.216 A 
ATOM     19  C   UNL     1      -6.018 -11.190   9.157  0.00  0.00    +0.076 A 
ATOM     21  C   UNL     1      -7.638 -12.731   8.484  0.00  0.00    +0.116 A 
ATOM     22  C   UNL     1      -6.458 -12.498   9.158  0.00  0.00    +0.048 A 
ATOM     32  H   UNL     1      -9.407  -9.753   6.849  0.00  0.00    +0.149 HD
BRANCH  19  23
ATOM     23  C   UNL     1      -4.797 -10.813   9.828  0.00  0.00    +0.001 A 
ATOM     26  C   UNL     1      -4.209 -11.679  10.754  0.00  0.00    +0.013 A 
ATOM     27  C   UNL     1      -4.198  -9.582   9.555  0.00  0.00    +0.013 A 
ATOM     28  C   UNL     1      -3.029 -11.315  11.402  0.00  0.00    +0.046 A 
ATOM     29  C   UNL     1      -3.018  -9.217  10.204  0.00  0.00    +0.046 A 
ATOM     30  C   UNL     1      -2.434 -10.083  11.128  0.00  0.00    +0.120 A 
BRANCH  30   5
ATOM      5  O   UNL     1      -1.285  -9.727  11.761  0.00  0.00    -0.495 OA
ATOM     31  C   UNL     1      -0.413  -8.832  11.071  0.00  0.00    +0.277 C 
ENDBRANCH  30   5
ENDBRANCH  19  23
ENDBRANCH  12   6
BRANCH  13   7
ATOM      3  O   UNL     1     -11.687  -3.267   9.230  0.00  0.00    -0.267 OA
ATOM      7  N   UNL     1     -10.933  -5.422   9.481  0.00  0.00    -0.301 N 
ATOM     17  C   UNL     1     -11.630  -4.293   9.910  0.00  0.00    +0.280 C 
ATOM     33  H   UNL     1     -10.956  -6.263  10.053  0.00  0.00    +0.150 HD
BRANCH  17  18
ATOM      4  O   UNL     1     -13.312  -5.308  11.260  0.00  0.00    -0.458 OA
ATOM     18  C   UNL     1     -12.316  -4.416  11.204  0.00  0.00    +0.189 A 
ATOM     20  C   UNL     1     -12.102  -3.768  12.363  0.00  0.00    +0.054 A 
ATOM     24  C   UNL     1     -13.063  -4.301  13.254  0.00  0.00    +0.042 A 
ATOM     25  C   UNL     1     -13.774  -5.234  12.536  0.00  0.00    +0.196 A 
ENDBRANCH  17  18
ENDBRANCH  13   7
TORSDOF 5
ENDMDL
MODEL 10
REMARK VINA RESULT:      -6.2     24.329     27.731
REMARK  Name = 11912816
REMARK  6 active torsions:
REMARK  status: ('A' for Active; 'I' for Inactive)
REMARK    1  A    between atoms: O_5  and  C_30
REMARK    2  A    between atoms: O_5  and  C_31
REMARK    3  A    between atoms: N_6  and  C_12
REMARK    4  A    between atoms: N_7  and  C_13
REMARK    5  A    between atoms: C_17  and  C_18
REMARK    6  A    between atoms: C_19  and  C_23
REMARK                            x       y       z     vdW  Elec       q    Type
REMARK                         _______ _______ _______ _____ _____    ______ ____
ROOT
ATOM      1  O   UNL     1       9.987   7.885   2.371  0.00  0.00    -0.370 OA
ATOM      2  O   UNL     1      12.558   6.708   3.689  0.00  0.00    -0.370 OA
ATOM     10  C   UNL     1      11.475   6.120   2.950  0.00  0.00    +0.171 C 
ATOM     11  C   UNL     1      10.209   6.854   3.347  0.00  0.00    +0.171 C 
ATOM     12  C   UNL     1      11.627   6.417   1.476  0.00  0.00    +0.130 C 
ATOM     13  C   UNL     1      10.543   7.463   4.689  0.00  0.00    +0.130 C 
ATOM     14  C   UNL     1      10.985   7.787   1.344  0.00  0.00    +0.185 C 
ATOM     15  C   UNL     1      12.035   7.714   4.569  0.00  0.00    +0.185 C 
ENDROOT
BRANCH  12   6
ATOM      6  N   UNL     1      10.892   5.444   0.698  0.00  0.00    -0.306 N 
ATOM      8  N   UNL     1      12.771   4.898  -0.598  0.00  0.00    -0.214 NA
ATOM      9  N   UNL     1      10.651   3.814  -0.974  0.00  0.00    -0.223 NA
ATOM     16  C   UNL     1      11.455   4.696  -0.322  0.00  0.00    +0.216 A 
ATOM     19  C   UNL     1      13.287   4.153  -1.597  0.00  0.00    +0.076 A 
ATOM     21  C   UNL     1      11.233   3.103  -1.962  0.00  0.00    +0.116 A 
ATOM     22  C   UNL     1      12.559   3.231  -2.320  0.00  0.00    +0.048 A 
ATOM     32  H   UNL     1       9.925   5.248   0.929  0.00  0.00    +0.149 HD
BRANCH  19  23
ATOM     23  C   UNL     1      14.685   4.382  -1.872  0.00  0.00    +0.001 A 
ATOM     26  C   UNL     1      15.085   4.853  -3.125  0.00  0.00    +0.013 A 
ATOM     27  C   UNL     1      15.644   4.132  -0.888  0.00  0.00    +0.013 A 
ATOM     28  C   UNL     1      16.436   5.073  -3.392  0.00  0.00    +0.046 A 
ATOM     29  C   UNL     1      16.995   4.352  -1.155  0.00  0.00    +0.046 A 
ATOM     30  C   UNL     1      17.392   4.822  -2.406  0.00  0.00    +0.120 A 
BRANCH  30   5
ATOM      5  O   UNL     1      18.709   5.036  -2.666  0.00  0.00    -0.495 OA
ATOM     31  C   UNL     1      19.593   3.929  -2.496  0.00  0.00    +0.277 C 
ENDBRANCH  30   5
ENDBRANCH  19  23
ENDBRANCH  12   6
BRANCH  13   7
ATOM      3  O   UNL     1       9.980   8.183   7.357  0.00  0.00    -0.267 OA
ATOM      7  N   UNL     1      10.250   6.549   5.766  0.00  0.00    -0.301 N 
ATOM     17  C   UNL     1       9.981   6.986   7.062  0.00  0.00    +0.280 C 
ATOM     33  H   UNL     1      10.190   5.555   5.557  0.00  0.00    +0.150 HD
BRANCH  17  18
ATOM      4  O   UNL     1      10.086   4.702   7.735  0.00  0.00    -0.458 OA
ATOM     18  C   UNL     1       9.668   5.936   8.041  0.00  0.00    +0.189 A 
ATOM     20  C   UNL     1       9.019   6.013   9.216  0.00  0.00    +0.054 A 
ATOM     24  C   UNL     1       9.021   4.688   9.715  0.00  0.00    +0.042 A 
ATOM     25  C   UNL     1       9.683   3.929   8.778  0.00  0.00    +0.196 A 
ENDBRANCH  17  18
ENDBRANCH  13   7
TORSDOF 5
ENDMDL
