MODEL 1
REMARK VINA RESULT:      -6.7      0.000      0.000
REMARK  Name = 45783777
REMARK  6 active torsions:
REMARK  status: ('A' for Active; 'I' for Inactive)
REMARK    1  A    between atoms: N_4  and  C_13
REMARK    2  A    between atoms: N_8  and  C_27
REMARK    3  A    between atoms: N_8  and  C_28
REMARK    4  A    between atoms: C_9  and  C_14
REMARK    5  A    between atoms: C_13  and  C_15
REMARK    6  A    between atoms: C_18  and  C_22
REMARK                            x       y       z     vdW  Elec       q    Type
REMARK                         _______ _______ _______ _____ _____    ______ ____
ROOT
ATOM      4  N   UNL     1      13.150   7.829  19.985  0.00  0.00    -0.287 NA
ATOM      9  C   UNL     1      12.306   7.855  18.773  0.00  0.00    +0.146 C 
ATOM     10  C   UNL     1      10.983   8.494  19.233  0.00  0.00    +0.030 C 
ATOM     11  C   UNL     1      12.235   7.751  21.124  0.00  0.00    +0.085 C 
ATOM     12  C   UNL     1      11.154   8.736  20.725  0.00  0.00    +0.017 C 
ENDROOT
BRANCH   9  14
ATOM      1  O   UNL     1      12.504   8.316  16.381  0.00  0.00    -0.336 OA
ATOM      5  N   UNL     1      13.899   9.513  17.661  0.00  0.00    -0.190 NA
ATOM      6  N   UNL     1      13.240   9.123  15.504  0.00  0.00    -0.056 NA
ATOM     14  C   UNL     1      12.953   8.608  17.629  0.00  0.00    +0.245 A 
ATOM     18  C   UNL     1      14.041   9.799  16.334  0.00  0.00    +0.204 A 
BRANCH  18  22
ATOM      7  N   UNL     1      16.433  11.563  14.101  0.00  0.00    -0.240 NA
ATOM     22  C   UNL     1      14.991  10.768  15.870  0.00  0.00    +0.041 A 
ATOM     24  C   UNL     1      15.395  11.821  16.683  0.00  0.00    +0.016 A 
ATOM     25  C   UNL     1      15.535  10.684  14.599  0.00  0.00    +0.124 A 
ATOM     26  C   UNL     1      16.318  12.746  16.206  0.00  0.00    +0.044 A 
ATOM     27  C   UNL     1      16.804  12.573  14.919  0.00  0.00    +0.118 A 
BRANCH  27   8
ATOM      8  N   UNL     1      17.742  13.524  14.447  0.00  0.00    -0.332 N 
ATOM     28  C   UNL     1      19.044  13.667  15.013  0.00  0.00    +0.127 C 
ATOM     29  H   UNL     1      17.391  14.261  13.846  0.00  0.00    +0.147 HD
ENDBRANCH  27   8
ENDBRANCH  18  22
ENDBRANCH   9  14
BRANCH   4  13
ATOM     13  C   UNL     1      14.120   6.741  19.986  0.00  0.00    +0.120 C 
BRANCH  13  15
ATOM      2  O   UNL     1      19.003   6.143  20.529  0.00  0.00    -0.453 OA
ATOM      3  O   UNL     1      19.319   8.413  21.274  0.00  0.00    -0.453 OA
ATOM     15  C   UNL     1      15.501   7.223  20.342  0.00  0.00    -0.030 A 
ATOM     16  C   UNL     1      16.588   6.353  20.235  0.00  0.00    +0.054 A 
ATOM     17  C   UNL     1      15.685   8.548  20.777  0.00  0.00    +0.009 A 
ATOM     19  C   UNL     1      17.835   6.841  20.570  0.00  0.00    +0.167 A 
ATOM     20  C   UNL     1      16.959   9.017  21.110  0.00  0.00    +0.050 A 
ATOM     21  C   UNL     1      18.015   8.137  20.995  0.00  0.00    +0.166 A 
ATOM     23  C   UNL     1      19.939   7.145  20.976  0.00  0.00    +0.466 C 
ENDBRANCH  13  15
ENDBRANCH   4  13
TORSDOF 5
ENDMDL
MODEL 2
REMARK VINA RESULT:      -6.6     26.893     30.245
REMARK  Name = 45783777
REMARK  6 active torsions:
REMARK  status: ('A' for Active; 'I' for Inactive)
REMARK    1  A    between atoms: N_4  and  C_13
REMARK    2  A    between atoms: N_8  and  C_27
REMARK    3  A    between atoms: N_8  and  C_28
REMARK    4  A    between atoms: C_9  and  C_14
REMARK    5  A    between atoms: C_13  and  C_15
REMARK    6  A    between atoms: C_18  and  C_22
REMARK                            x       y       z     vdW  Elec       q    Type
REMARK                         _______ _______ _______ _____ _____    ______ ____
ROOT
ATOM      4  N   UNL     1      -3.412 -10.836  14.596  0.00  0.00    -0.287 NA
ATOM      9  C   UNL     1      -3.800 -11.341  15.929  0.00  0.00    +0.146 C 
ATOM     10  C   UNL     1      -2.624 -10.963  16.848  0.00  0.00    +0.030 C 
ATOM     11  C   UNL     1      -1.950 -10.844  14.561  0.00  0.00    +0.085 C 
ATOM     12  C   UNL     1      -1.600 -10.306  15.934  0.00  0.00    +0.017 C 
ENDROOT
BRANCH   9  14
ATOM      1  O   UNL     1      -5.510  -9.597  15.851  0.00  0.00    -0.336 OA
ATOM      5  N   UNL     1      -5.960 -11.255  17.288  0.00  0.00    -0.190 NA
ATOM      6  N   UNL     1      -6.740  -9.278  16.440  0.00  0.00    -0.056 NA
ATOM     14  C   UNL     1      -5.121 -10.774  16.405  0.00  0.00    +0.245 A 
ATOM     18  C   UNL     1      -6.937 -10.303  17.275  0.00  0.00    +0.204 A 
BRANCH  18  22
ATOM      7  N   UNL     1      -9.122 -11.234  20.136  0.00  0.00    -0.240 NA
ATOM     22  C   UNL     1      -8.101 -10.406  18.108  0.00  0.00    +0.041 A 
ATOM     24  C   UNL     1      -9.302  -9.813  17.737  0.00  0.00    +0.016 A 
ATOM     25  C   UNL     1      -8.064 -11.100  19.306  0.00  0.00    +0.124 A 
ATOM     26  C   UNL     1     -10.414  -9.929  18.564  0.00  0.00    +0.044 A 
ATOM     27  C   UNL     1     -10.274 -10.645  19.742  0.00  0.00    +0.118 A 
BRANCH  27   8
ATOM      8  N   UNL     1     -11.415 -10.754  20.575  0.00  0.00    -0.332 N 
ATOM     28  C   UNL     1     -12.499  -9.828  20.520  0.00  0.00    +0.127 C 
ATOM     29  H   UNL     1     -11.346 -11.373  21.374  0.00  0.00    +0.147 HD
ENDBRANCH  27   8
ENDBRANCH  18  22
ENDBRANCH   9  14
BRANCH   4  13
ATOM     13  C   UNL     1      -3.990 -11.602  13.500  0.00  0.00    +0.120 C 
BRANCH  13  15
ATOM      2  O   UNL     1      -6.906  -8.921  10.532  0.00  0.00    -0.453 OA
ATOM      3  O   UNL     1      -5.092  -8.383   9.039  0.00  0.00    -0.453 OA
ATOM     15  C   UNL     1      -4.251 -10.742  12.292  0.00  0.00    -0.030 A 
ATOM     16  C   UNL     1      -5.539 -10.260  12.048  0.00  0.00    +0.054 A 
ATOM     17  C   UNL     1      -3.192 -10.429  11.420  0.00  0.00    +0.009 A 
ATOM     19  C   UNL     1      -5.728  -9.474  10.930  0.00  0.00    +0.167 A 
ATOM     20  C   UNL     1      -3.411  -9.630  10.295  0.00  0.00    +0.050 A 
ATOM     21  C   UNL     1      -4.692  -9.168  10.077  0.00  0.00    +0.166 A 
ATOM     23  C   UNL     1      -6.496  -8.230   9.334  0.00  0.00    +0.466 C 
ENDBRANCH  13  15
ENDBRANCH   4  13
TORSDOF 5
ENDMDL
MODEL 3
REMARK VINA RESULT:      -6.6     27.512     31.890
REMARK  Name = 45783777
REMARK  6 active torsions:
REMARK  status: ('A' for Active; 'I' for Inactive)
REMARK    1  A    between atoms: N_4  and  C_13
REMARK    2  A    between atoms: N_8  and  C_27
REMARK    3  A    between atoms: N_8  and  C_28
REMARK    4  A    between atoms: C_9  and  C_14
REMARK    5  A    between atoms: C_13  and  C_15
REMARK    6  A    between atoms: C_18  and  C_22
REMARK                            x       y       z     vdW  Elec       q    Type
REMARK                         _______ _______ _______ _____ _____    ______ ____
ROOT
ATOM      4  N   UNL     1     -15.348   6.156  21.443  0.00  0.00    -0.287 NA
ATOM      9  C   UNL     1     -16.620   5.878  22.140  0.00  0.00    +0.146 C 
ATOM     10  C   UNL     1     -17.671   5.798  21.018  0.00  0.00    +0.030 C 
ATOM     11  C   UNL     1     -15.697   6.874  20.217  0.00  0.00    +0.085 C 
ATOM     12  C   UNL     1     -16.910   6.103  19.736  0.00  0.00    +0.017 C 
ENDROOT
BRANCH   9  14
ATOM      1  O   UNL     1     -16.506   3.442  22.303  0.00  0.00    -0.336 OA
ATOM      5  N   UNL     1     -16.560   4.489  24.282  0.00  0.00    -0.190 NA
ATOM      6  N   UNL     1     -16.462   2.436  23.276  0.00  0.00    -0.056 NA
ATOM     14  C   UNL     1     -16.562   4.618  22.979  0.00  0.00    +0.245 A 
ATOM     18  C   UNL     1     -16.497   3.133  24.416  0.00  0.00    +0.204 A 
BRANCH  18  22
ATOM      7  N   UNL     1     -16.821   0.523  27.045  0.00  0.00    -0.240 NA
ATOM     22  C   UNL     1     -16.469   2.504  25.705  0.00  0.00    +0.041 A 
ATOM     24  C   UNL     1     -16.081   3.210  26.839  0.00  0.00    +0.016 A 
ATOM     25  C   UNL     1     -16.826   1.175  25.861  0.00  0.00    +0.124 A 
ATOM     26  C   UNL     1     -16.063   2.574  28.075  0.00  0.00    +0.044 A 
ATOM     27  C   UNL     1     -16.440   1.241  28.125  0.00  0.00    +0.118 A 
BRANCH  27   8
ATOM      8  N   UNL     1     -16.416   0.607  29.392  0.00  0.00    -0.332 N 
ATOM     28  C   UNL     1     -15.204   0.334  30.092  0.00  0.00    +0.127 C 
ATOM     29  H   UNL     1     -17.265   0.142  29.692  0.00  0.00    +0.147 HD
ENDBRANCH  27   8
ENDBRANCH  18  22
ENDBRANCH   9  14
BRANCH   4  13
ATOM     13  C   UNL     1     -14.395   6.896  22.259  0.00  0.00    +0.120 C 
BRANCH  13  15
ATOM      2  O   UNL     1     -12.026  10.703  20.164  0.00  0.00    -0.453 OA
ATOM      3  O   UNL     1     -10.347   9.276  19.187  0.00  0.00    -0.453 OA
ATOM     15  C   UNL     1     -13.295   7.501  21.427  0.00  0.00    -0.030 A 
ATOM     16  C   UNL     1     -13.254   8.883  21.231  0.00  0.00    +0.054 A 
ATOM     17  C   UNL     1     -12.316   6.667  20.857  0.00  0.00    +0.009 A 
ATOM     19  C   UNL     1     -12.226   9.391  20.463  0.00  0.00    +0.167 A 
ATOM     20  C   UNL     1     -11.285   7.207  20.084  0.00  0.00    +0.050 A 
ATOM     21  C   UNL     1     -11.268   8.575  19.906  0.00  0.00    +0.166 A 
ATOM     23  C   UNL     1     -10.833  10.623  19.356  0.00  0.00    +0.466 C 
ENDBRANCH  13  15
ENDBRANCH   4  13
TORSDOF 5
ENDMDL
MODEL 4
REMARK VINA RESULT:      -6.6     26.501     29.633
REMARK  Name = 45783777
REMARK  6 active torsions:
REMARK  status: ('A' for Active; 'I' for Inactive)
REMARK    1  A    between atoms: N_4  and  C_13
REMARK    2  A    between atoms: N_8  and  C_27
REMARK    3  A    between atoms: N_8  and  C_28
REMARK    4  A    between atoms: C_9  and  C_14
REMARK    5  A    between atoms: C_13  and  C_15
REMARK    6  A    between atoms: C_18  and  C_22
REMARK                            x       y       z     vdW  Elec       q    Type
REMARK                         _______ _______ _______ _____ _____    ______ ____
ROOT
ATOM      4  N   UNL     1      -2.891 -10.645  14.117  0.00  0.00    -0.287 NA
ATOM      9  C   UNL     1      -3.142 -11.307  15.414  0.00  0.00    +0.146 C 
ATOM     10  C   UNL     1      -2.042 -10.769  16.346  0.00  0.00    +0.030 C 
ATOM     11  C   UNL     1      -1.457 -10.361  14.069  0.00  0.00    +0.085 C 
ATOM     12  C   UNL     1      -1.188  -9.860  15.473  0.00  0.00    +0.017 C 
ENDROOT
BRANCH   9  14
ATOM      1  O   UNL     1      -4.943 -11.813  16.986  0.00  0.00    -0.336 OA
ATOM      5  N   UNL     1      -5.430 -10.179  15.534  0.00  0.00    -0.190 NA
ATOM      6  N   UNL     1      -6.245 -11.395  17.293  0.00  0.00    -0.056 NA
ATOM     14  C   UNL     1      -4.538 -11.046  15.941  0.00  0.00    +0.245 A 
ATOM     18  C   UNL     1      -6.459 -10.430  16.393  0.00  0.00    +0.204 A 
BRANCH  18  22
ATOM      7  N   UNL     1      -9.543  -8.884  15.005  0.00  0.00    -0.240 NA
ATOM     22  C   UNL     1      -7.691  -9.697  16.328  0.00  0.00    +0.041 A 
ATOM     24  C   UNL     1      -8.230  -9.101  17.463  0.00  0.00    +0.016 A 
ATOM     25  C   UNL     1      -8.379  -9.560  15.134  0.00  0.00    +0.124 A 
ATOM     26  C   UNL     1      -9.426  -8.397  17.370  0.00  0.00    +0.044 A 
ATOM     27  C   UNL     1     -10.037  -8.317  16.129  0.00  0.00    +0.118 A 
BRANCH  27   8
ATOM      8  N   UNL     1     -11.255  -7.597  16.051  0.00  0.00    -0.332 N 
ATOM     28  C   UNL     1     -11.303  -6.173  15.973  0.00  0.00    +0.127 C 
ATOM     29  H   UNL     1     -12.104  -8.099  16.282  0.00  0.00    +0.147 HD
ENDBRANCH  27   8
ENDBRANCH  18  22
ENDBRANCH   9  14
BRANCH   4  13
ATOM     13  C   UNL     1      -3.334 -11.433  12.974  0.00  0.00    +0.120 C 
BRANCH  13  15
ATOM      2  O   UNL     1      -7.187  -9.262  10.752  0.00  0.00    -0.453 OA
ATOM      3  O   UNL     1      -5.795  -8.244   9.069  0.00  0.00    -0.453 OA
ATOM     15  C   UNL     1      -3.961 -10.573  11.910  0.00  0.00    -0.030 A 
ATOM     16  C   UNL     1      -5.343 -10.368  11.908  0.00  0.00    +0.054 A 
ATOM     17  C   UNL     1      -3.149  -9.979  10.927  0.00  0.00    +0.009 A 
ATOM     19  C   UNL     1      -5.871  -9.570  10.914  0.00  0.00    +0.167 A 
ATOM     20  C   UNL     1      -3.710  -9.175   9.932  0.00  0.00    +0.050 A 
ATOM     21  C   UNL     1      -5.076  -8.990   9.953  0.00  0.00    +0.166 A 
ATOM     23  C   UNL     1      -7.132  -8.421   9.582  0.00  0.00    +0.466 C 
ENDBRANCH  13  15
ENDBRANCH   4  13
TORSDOF 5
ENDMDL
MODEL 5
REMARK VINA RESULT:      -6.5     27.891     31.590
REMARK  Name = 45783777
REMARK  6 active torsions:
REMARK  status: ('A' for Active; 'I' for Inactive)
REMARK    1  A    between atoms: N_4  and  C_13
REMARK    2  A    between atoms: N_8  and  C_27
REMARK    3  A    between atoms: N_8  and  C_28
REMARK    4  A    between atoms: C_9  and  C_14
REMARK    5  A    between atoms: C_13  and  C_15
REMARK    6  A    between atoms: C_18  and  C_22
REMARK                            x       y       z     vdW  Elec       q    Type
REMARK                         _______ _______ _______ _____ _____    ______ ____
ROOT
ATOM      4  N   UNL     1     -11.520 -11.666  18.118  0.00  0.00    -0.287 NA
ATOM      9  C   UNL     1     -10.618 -12.333  19.079  0.00  0.00    +0.146 C 
ATOM     10  C   UNL     1     -10.730 -13.831  18.745  0.00  0.00    +0.030 C 
ATOM     11  C   UNL     1     -12.561 -12.638  17.784  0.00  0.00    +0.085 C 
ATOM     12  C   UNL     1     -11.759 -13.915  17.626  0.00  0.00    +0.017 C 
ENDROOT
BRANCH   9  14
ATOM      1  O   UNL     1      -8.673 -11.301  20.139  0.00  0.00    -0.336 OA
ATOM      5  N   UNL     1      -8.379 -11.797  17.975  0.00  0.00    -0.190 NA
ATOM      6  N   UNL     1      -7.370 -10.897  19.821  0.00  0.00    -0.056 NA
ATOM     14  C   UNL     1      -9.196 -11.819  18.998  0.00  0.00    +0.245 A 
ATOM     18  C   UNL     1      -7.272 -11.223  18.529  0.00  0.00    +0.204 A 
BRANCH  18  22
ATOM      7  N   UNL     1      -5.034  -9.997  15.824  0.00  0.00    -0.240 NA
ATOM     22  C   UNL     1      -6.082 -10.990  17.763  0.00  0.00    +0.041 A 
ATOM     24  C   UNL     1      -4.855 -11.498  18.175  0.00  0.00    +0.016 A 
ATOM     25  C   UNL     1      -6.118 -10.253  16.591  0.00  0.00    +0.124 A 
ATOM     26  C   UNL     1      -3.717 -11.256  17.413  0.00  0.00    +0.044 A 
ATOM     27  C   UNL     1      -3.859 -10.507  16.255  0.00  0.00    +0.118 A 
BRANCH  27   8
ATOM      8  N   UNL     1      -2.691 -10.269  15.490  0.00  0.00    -0.332 N 
ATOM     28  C   UNL     1      -1.382 -10.584  15.964  0.00  0.00    +0.127 C 
ATOM     29  H   UNL     1      -2.781  -9.656  14.687  0.00  0.00    +0.147 HD
ENDBRANCH  27   8
ENDBRANCH  18  22
ENDBRANCH   9  14
BRANCH   4  13
ATOM     13  C   UNL     1     -12.077 -10.418  18.622  0.00  0.00    +0.120 C 
BRANCH  13  15
ATOM      2  O   UNL     1     -12.886  -6.760  15.388  0.00  0.00    -0.453 OA
ATOM      3  O   UNL     1     -10.602  -6.001  15.494  0.00  0.00    -0.453 OA
ATOM     15  C   UNL     1     -11.646  -9.237  17.795  0.00  0.00    -0.030 A 
ATOM     16  C   UNL     1     -12.573  -8.589  16.975  0.00  0.00    +0.054 A 
ATOM     17  C   UNL     1     -10.312  -8.794  17.856  0.00  0.00    +0.009 A 
ATOM     19  C   UNL     1     -12.131  -7.509  16.238  0.00  0.00    +0.167 A 
ATOM     20  C   UNL     1      -9.892  -7.698  17.099  0.00  0.00    +0.050 A 
ATOM     21  C   UNL     1     -10.826  -7.076  16.298  0.00  0.00    +0.166 A 
ATOM     23  C   UNL     1     -11.911  -5.806  14.921  0.00  0.00    +0.466 C 
ENDBRANCH  13  15
ENDBRANCH   4  13
TORSDOF 5
ENDMDL
MODEL 6
REMARK VINA RESULT:      -6.5     13.927     17.432
REMARK  Name = 45783777
REMARK  6 active torsions:
REMARK  status: ('A' for Active; 'I' for Inactive)
REMARK    1  A    between atoms: N_4  and  C_13
REMARK    2  A    between atoms: N_8  and  C_27
REMARK    3  A    between atoms: N_8  and  C_28
REMARK    4  A    between atoms: C_9  and  C_14
REMARK    5  A    between atoms: C_13  and  C_15
REMARK    6  A    between atoms: C_18  and  C_22
REMARK                            x       y       z     vdW  Elec       q    Type
REMARK                         _______ _______ _______ _____ _____    ______ ____
ROOT
ATOM      4  N   UNL     1       9.413   7.629   6.357  0.00  0.00    -0.287 NA
ATOM      9  C   UNL     1      10.529   6.669   6.482  0.00  0.00    +0.146 C 
ATOM     10  C   UNL     1      10.303   5.983   7.841  0.00  0.00    +0.030 C 
ATOM     11  C   UNL     1       9.032   8.000   7.720  0.00  0.00    +0.085 C 
ATOM     12  C   UNL     1       9.076   6.663   8.432  0.00  0.00    +0.017 C 
ENDROOT
BRANCH   9  14
ATOM      1  O   UNL     1      10.051   4.457   5.559  0.00  0.00    -0.336 OA
ATOM      5  N   UNL     1      11.077   5.842   4.129  0.00  0.00    -0.190 NA
ATOM      6  N   UNL     1      10.216   3.735   4.370  0.00  0.00    -0.056 NA
ATOM     14  C   UNL     1      10.583   5.685   5.331  0.00  0.00    +0.245 A 
ATOM     18  C   UNL     1      10.828   4.620   3.576  0.00  0.00    +0.204 A 
BRANCH  18  22
ATOM      7  N   UNL     1      10.602   4.219  -0.114  0.00  0.00    -0.240 NA
ATOM     22  C   UNL     1      11.203   4.313   2.226  0.00  0.00    +0.041 A 
ATOM     24  C   UNL     1      12.471   3.830   1.927  0.00  0.00    +0.016 A 
ATOM     25  C   UNL     1      10.312   4.488   1.179  0.00  0.00    +0.124 A 
ATOM     26  C   UNL     1      12.807   3.541   0.608  0.00  0.00    +0.044 A 
ATOM     27  C   UNL     1      11.844   3.750  -0.367  0.00  0.00    +0.118 A 
BRANCH  27   8
ATOM      8  N   UNL     1      12.201   3.452  -1.705  0.00  0.00    -0.332 N 
ATOM     28  C   UNL     1      11.932   2.188  -2.310  0.00  0.00    +0.127 C 
ATOM     29  H   UNL     1      12.859   4.076  -2.158  0.00  0.00    +0.147 HD
ENDBRANCH  27   8
ENDBRANCH  18  22
ENDBRANCH   9  14
BRANCH   4  13
ATOM     13  C   UNL     1       9.745   8.792   5.545  0.00  0.00    +0.120 C 
BRANCH  13  15
ATOM      2  O   UNL     1       5.352  10.336   3.867  0.00  0.00    -0.453 OA
ATOM      3  O   UNL     1       5.870   9.724   1.595  0.00  0.00    -0.453 OA
ATOM     15  C   UNL     1       8.727   9.026   4.460  0.00  0.00    -0.030 A 
ATOM     16  C   UNL     1       7.494   9.599   4.778  0.00  0.00    +0.054 A 
ATOM     17  C   UNL     1       9.030   8.669   3.134  0.00  0.00    +0.009 A 
ATOM     19  C   UNL     1       6.595   9.797   3.749  0.00  0.00    +0.167 A 
ATOM     20  C   UNL     1       8.102   8.880   2.111  0.00  0.00    +0.050 A 
ATOM     21  C   UNL     1       6.892   9.446   2.451  0.00  0.00    +0.166 A 
ATOM     23  C   UNL     1       4.898  10.288   2.499  0.00  0.00    +0.466 C 
ENDBRANCH  13  15
ENDBRANCH   4  13
TORSDOF 5
ENDMDL
MODEL 7
REMARK VINA RESULT:      -6.4     29.268     32.510
REMARK  Name = 45783777
REMARK  6 active torsions:
REMARK  status: ('A' for Active; 'I' for Inactive)
REMARK    1  A    between atoms: N_4  and  C_13
REMARK    2  A    between atoms: N_8  and  C_27
REMARK    3  A    between atoms: N_8  and  C_28
REMARK    4  A    between atoms: C_9  and  C_14
REMARK    5  A    between atoms: C_13  and  C_15
REMARK    6  A    between atoms: C_18  and  C_22
REMARK                            x       y       z     vdW  Elec       q    Type
REMARK                         _______ _______ _______ _____ _____    ______ ____
ROOT
ATOM      4  N   UNL     1     -11.554 -11.871  20.320  0.00  0.00    -0.287 NA
ATOM      9  C   UNL     1     -11.083 -11.163  19.112  0.00  0.00    +0.146 C 
ATOM     10  C   UNL     1     -11.792  -9.798  19.160  0.00  0.00    +0.030 C 
ATOM     11  C   UNL     1     -12.882 -11.338  20.621  0.00  0.00    +0.085 C 
ATOM     12  C   UNL     1     -12.683  -9.853  20.392  0.00  0.00    +0.017 C 
ENDROOT
BRANCH   9  14
ATOM      1  O   UNL     1      -8.925 -11.044  20.252  0.00  0.00    -0.336 OA
ATOM      5  N   UNL     1      -8.788 -10.921  18.020  0.00  0.00    -0.190 NA
ATOM      6  N   UNL     1      -7.562 -10.918  19.952  0.00  0.00    -0.056 NA
ATOM     14  C   UNL     1      -9.575 -11.038  19.060  0.00  0.00    +0.245 A 
ATOM     18  C   UNL     1      -7.564 -10.851  18.617  0.00  0.00    +0.204 A 
BRANCH  18  22
ATOM      7  N   UNL     1      -5.251  -9.878  15.873  0.00  0.00    -0.240 NA
ATOM     22  C   UNL     1      -6.358 -10.716  17.851  0.00  0.00    +0.041 A 
ATOM     24  C   UNL     1      -5.160 -11.261  18.300  0.00  0.00    +0.016 A 
ATOM     25  C   UNL     1      -6.351 -10.041  16.642  0.00  0.00    +0.124 A 
ATOM     26  C   UNL     1      -4.007 -11.114  17.537  0.00  0.00    +0.044 A 
ATOM     27  C   UNL     1      -4.104 -10.421  16.340  0.00  0.00    +0.118 A 
BRANCH  27   8
ATOM      8  N   UNL     1      -2.921 -10.280  15.574  0.00  0.00    -0.332 N 
ATOM     28  C   UNL     1      -2.185 -11.398  15.081  0.00  0.00    +0.127 C 
ATOM     29  H   UNL     1      -2.477  -9.369  15.575  0.00  0.00    +0.147 HD
ENDBRANCH  27   8
ENDBRANCH  18  22
ENDBRANCH   9  14
BRANCH   4  13
ATOM     13  C   UNL     1     -11.566 -13.320  20.168  0.00  0.00    +0.120 C 
BRANCH  13  15
ATOM      2  O   UNL     1     -11.424 -15.068  24.797  0.00  0.00    -0.453 OA
ATOM      3  O   UNL     1      -9.169 -15.882  24.547  0.00  0.00    -0.453 OA
ATOM     15  C   UNL     1     -10.892 -14.011  21.324  0.00  0.00    -0.030 A 
ATOM     16  C   UNL     1     -11.578 -14.177  22.529  0.00  0.00    +0.054 A 
ATOM     17  C   UNL     1      -9.575 -14.485  21.178  0.00  0.00    +0.009 A 
ATOM     19  C   UNL     1     -10.919 -14.819  23.558  0.00  0.00    +0.167 A 
ATOM     20  C   UNL     1      -8.932 -15.131  22.236  0.00  0.00    +0.050 A 
ATOM     21  C   UNL     1      -9.631 -15.283  23.415  0.00  0.00    +0.166 A 
ATOM     23  C   UNL     1     -10.311 -15.742  25.418  0.00  0.00    +0.466 C 
ENDBRANCH  13  15
ENDBRANCH   4  13
TORSDOF 5
ENDMDL
MODEL 8
REMARK VINA RESULT:      -6.4     27.827     29.192
REMARK  Name = 45783777
REMARK  6 active torsions:
REMARK  status: ('A' for Active; 'I' for Inactive)
REMARK    1  A    between atoms: N_4  and  C_13
REMARK    2  A    between atoms: N_8  and  C_27
REMARK    3  A    between atoms: N_8  and  C_28
REMARK    4  A    between atoms: C_9  and  C_14
REMARK    5  A    between atoms: C_13  and  C_15
REMARK    6  A    between atoms: C_18  and  C_22
REMARK                            x       y       z     vdW  Elec       q    Type
REMARK                         _______ _______ _______ _____ _____    ______ ____
ROOT
ATOM      4  N   UNL     1      -3.223 -12.503  14.091  0.00  0.00    -0.287 NA
ATOM      9  C   UNL     1      -2.381 -12.493  12.877  0.00  0.00    +0.146 C 
ATOM     10  C   UNL     1      -2.494 -13.921  12.313  0.00  0.00    +0.030 C 
ATOM     11  C   UNL     1      -3.218 -13.879  14.587  0.00  0.00    +0.085 C 
ATOM     12  C   UNL     1      -3.367 -14.675  13.305  0.00  0.00    +0.017 C 
ENDROOT
BRANCH   9  14
ATOM      1  O   UNL     1      -1.920 -10.432  11.649  0.00  0.00    -0.336 OA
ATOM      5  N   UNL     1      -3.919 -11.336  11.200  0.00  0.00    -0.190 NA
ATOM      6  N   UNL     1      -2.527  -9.588  10.709  0.00  0.00    -0.056 NA
ATOM     14  C   UNL     1      -2.806 -11.435  11.882  0.00  0.00    +0.245 A 
ATOM     18  C   UNL     1      -3.701 -10.189  10.495  0.00  0.00    +0.204 A 
BRANCH  18  22
ATOM      7  N   UNL     1      -5.694  -9.729   7.389  0.00  0.00    -0.240 NA
ATOM     22  C   UNL     1      -4.678  -9.669   9.582  0.00  0.00    +0.041 A 
ATOM     24  C   UNL     1      -5.534  -8.640   9.958  0.00  0.00    +0.016 A 
ATOM     25  C   UNL     1      -4.797 -10.174   8.297  0.00  0.00    +0.124 A 
ATOM     26  C   UNL     1      -6.471  -8.156   9.052  0.00  0.00    +0.044 A 
ATOM     27  C   UNL     1      -6.509  -8.728   7.791  0.00  0.00    +0.118 A 
BRANCH  27   8
ATOM      8  N   UNL     1      -7.470  -8.224   6.879  0.00  0.00    -0.332 N 
ATOM     28  C   UNL     1      -8.243  -7.055   7.144  0.00  0.00    +0.127 C 
ATOM     29  H   UNL     1      -7.763  -8.840   6.129  0.00  0.00    +0.147 HD
ENDBRANCH  27   8
ENDBRANCH  18  22
ENDBRANCH   9  14
BRANCH   4  13
ATOM     13  C   UNL     1      -2.780 -11.554  15.105  0.00  0.00    +0.120 C 
BRANCH  13  15
ATOM      2  O   UNL     1      -7.200  -9.487  15.938  0.00  0.00    -0.453 OA
ATOM      3  O   UNL     1      -7.071  -9.885  18.311  0.00  0.00    -0.453 OA
ATOM     15  C   UNL     1      -3.913 -11.118  15.995  0.00  0.00    -0.030 A 
ATOM     16  C   UNL     1      -5.030 -10.489  15.440  0.00  0.00    +0.054 A 
ATOM     17  C   UNL     1      -3.838 -11.350  17.381  0.00  0.00    +0.009 A 
ATOM     19  C   UNL     1      -6.044 -10.110  16.296  0.00  0.00    +0.167 A 
ATOM     20  C   UNL     1      -4.878 -10.955  18.225  0.00  0.00    +0.050 A 
ATOM     21  C   UNL     1      -5.969 -10.337  17.651  0.00  0.00    +0.166 A 
ATOM     23  C   UNL     1      -7.846  -9.349  17.220  0.00  0.00    +0.466 C 
ENDBRANCH  13  15
ENDBRANCH   4  13
TORSDOF 5
ENDMDL
MODEL 9
REMARK VINA RESULT:      -6.2     27.833     31.231
REMARK  Name = 45783777
REMARK  6 active torsions:
REMARK  status: ('A' for Active; 'I' for Inactive)
REMARK    1  A    between atoms: N_4  and  C_13
REMARK    2  A    between atoms: N_8  and  C_27
REMARK    3  A    between atoms: N_8  and  C_28
REMARK    4  A    between atoms: C_9  and  C_14
REMARK    5  A    between atoms: C_13  and  C_15
REMARK    6  A    between atoms: C_18  and  C_22
REMARK                            x       y       z     vdW  Elec       q    Type
REMARK                         _______ _______ _______ _____ _____    ______ ____
ROOT
ATOM      4  N   UNL     1     -10.213 -12.071  19.196  0.00  0.00    -0.287 NA
ATOM      9  C   UNL     1      -8.970 -12.498  19.871  0.00  0.00    +0.146 C 
ATOM     10  C   UNL     1      -8.941 -14.028  19.704  0.00  0.00    +0.030 C 
ATOM     11  C   UNL     1     -11.140 -13.199  19.285  0.00  0.00    +0.085 C 
ATOM     12  C   UNL     1     -10.234 -14.375  18.979  0.00  0.00    +0.017 C 
ENDROOT
BRANCH   9  14
ATOM      1  O   UNL     1      -7.146 -10.886  20.088  0.00  0.00    -0.336 OA
ATOM      5  N   UNL     1      -7.147 -12.010  18.151  0.00  0.00    -0.190 NA
ATOM      6  N   UNL     1      -6.046 -10.411  19.362  0.00  0.00    -0.056 NA
ATOM     14  C   UNL     1      -7.738 -11.824  19.304  0.00  0.00    +0.245 A 
ATOM     18  C   UNL     1      -6.115 -11.122  18.232  0.00  0.00    +0.204 A 
BRANCH  18  22
ATOM      7  N   UNL     1      -4.741 -10.571  14.821  0.00  0.00    -0.240 NA
ATOM     22  C   UNL     1      -5.166 -10.970  17.167  0.00  0.00    +0.041 A 
ATOM     24  C   UNL     1      -3.800 -11.065  17.406  0.00  0.00    +0.016 A 
ATOM     25  C   UNL     1      -5.581 -10.724  15.868  0.00  0.00    +0.124 A 
ATOM     26  C   UNL     1      -2.903 -10.913  16.354  0.00  0.00    +0.044 A 
ATOM     27  C   UNL     1      -3.420 -10.670  15.091  0.00  0.00    +0.118 A 
BRANCH  27   8
ATOM      8  N   UNL     1      -2.494 -10.517  14.029  0.00  0.00    -0.332 N 
ATOM     28  C   UNL     1      -2.197 -11.566  13.110  0.00  0.00    +0.127 C 
ATOM     29  H   UNL     1      -1.871  -9.718  14.071  0.00  0.00    +0.147 HD
ENDBRANCH  27   8
ENDBRANCH  18  22
ENDBRANCH   9  14
BRANCH   4  13
ATOM     13  C   UNL     1     -10.779 -10.850  19.754  0.00  0.00    +0.120 C 
BRANCH  13  15
ATOM      2  O   UNL     1      -9.707  -7.367  16.406  0.00  0.00    -0.453 OA
ATOM      3  O   UNL     1     -12.010  -7.132  15.737  0.00  0.00    -0.453 OA
ATOM     15  C   UNL     1     -11.146  -9.860  18.680  0.00  0.00    -0.030 A 
ATOM     16  C   UNL     1     -10.149  -9.089  18.079  0.00  0.00    +0.054 A 
ATOM     17  C   UNL     1     -12.490  -9.724  18.290  0.00  0.00    +0.009 A 
ATOM     19  C   UNL     1     -10.533  -8.198  17.098  0.00  0.00    +0.167 A 
ATOM     20  C   UNL     1     -12.852  -8.813  17.294  0.00  0.00    +0.050 A 
ATOM     21  C   UNL     1     -11.849  -8.064  16.716  0.00  0.00    +0.166 A 
ATOM     23  C   UNL     1     -10.649  -6.695  15.545  0.00  0.00    +0.466 C 
ENDBRANCH  13  15
ENDBRANCH   4  13
TORSDOF 5
ENDMDL
MODEL 10
REMARK VINA RESULT:      -6.1     13.386     16.618
REMARK  Name = 45783777
REMARK  6 active torsions:
REMARK  status: ('A' for Active; 'I' for Inactive)
REMARK    1  A    between atoms: N_4  and  C_13
REMARK    2  A    between atoms: N_8  and  C_27
REMARK    3  A    between atoms: N_8  and  C_28
REMARK    4  A    between atoms: C_9  and  C_14
REMARK    5  A    between atoms: C_13  and  C_15
REMARK    6  A    between atoms: C_18  and  C_22
REMARK                            x       y       z     vdW  Elec       q    Type
REMARK                         _______ _______ _______ _____ _____    ______ ____
ROOT
ATOM      4  N   UNL     1      13.530   7.591   5.178  0.00  0.00    -0.287 NA
ATOM      9  C   UNL     1      14.139   7.959   3.884  0.00  0.00    +0.146 C 
ATOM     10  C   UNL     1      15.601   8.300   4.223  0.00  0.00    +0.030 C 
ATOM     11  C   UNL     1      14.273   8.319   6.206  0.00  0.00    +0.085 C 
ATOM     12  C   UNL     1      15.704   8.154   5.735  0.00  0.00    +0.017 C 
ENDROOT
BRANCH   9  14
ATOM      1  O   UNL     1      15.109   6.067   2.678  0.00  0.00    -0.336 OA
ATOM      5  N   UNL     1      13.006   6.551   2.080  0.00  0.00    -0.190 NA
ATOM      6  N   UNL     1      14.764   5.140   1.686  0.00  0.00    -0.056 NA
ATOM     14  C   UNL     1      14.019   6.859   2.849  0.00  0.00    +0.245 A 
ATOM     18  C   UNL     1      13.510   5.491   1.385  0.00  0.00    +0.204 A 
BRANCH  18  22
ATOM      7  N   UNL     1      10.685   4.636  -0.877  0.00  0.00    -0.240 NA
ATOM     22  C   UNL     1      12.733   4.801   0.395  0.00  0.00    +0.041 A 
ATOM     24  C   UNL     1      13.230   3.669  -0.243  0.00  0.00    +0.016 A 
ATOM     25  C   UNL     1      11.467   5.239   0.046  0.00  0.00    +0.124 A 
ATOM     26  C   UNL     1      12.455   3.020  -1.198  0.00  0.00    +0.044 A 
ATOM     27  C   UNL     1      11.200   3.538  -1.476  0.00  0.00    +0.118 A 
BRANCH  27   8
ATOM      8  N   UNL     1      10.423   2.867  -2.453  0.00  0.00    -0.332 N 
ATOM     28  C   UNL     1      10.431   3.236  -3.830  0.00  0.00    +0.127 C 
ATOM     29  H   UNL     1       9.682   2.262  -2.117  0.00  0.00    +0.147 HD
ENDBRANCH  27   8
ENDBRANCH  18  22
ENDBRANCH   9  14
BRANCH   4  13
ATOM     13  C   UNL     1      12.100   7.864   5.239  0.00  0.00    +0.120 C 
BRANCH  13  15
ATOM      2  O   UNL     1      10.447   5.471   9.243  0.00  0.00    -0.453 OA
ATOM      3  O   UNL     1       9.322   3.797   7.925  0.00  0.00    -0.453 OA
ATOM     15  C   UNL     1      11.347   6.757   5.927  0.00  0.00    -0.030 A 
ATOM     16  C   UNL     1      11.303   6.711   7.322  0.00  0.00    +0.054 A 
ATOM     17  C   UNL     1      10.690   5.780   5.157  0.00  0.00    +0.009 A 
ATOM     19  C   UNL     1      10.597   5.679   7.907  0.00  0.00    +0.167 A 
ATOM     20  C   UNL     1       9.983   4.746   5.775  0.00  0.00    +0.050 A 
ATOM     21  C   UNL     1       9.955   4.723   7.154  0.00  0.00    +0.166 A 
ATOM     23  C   UNL     1       9.637   4.278   9.248  0.00  0.00    +0.466 C 
ENDBRANCH  13  15
ENDBRANCH   4  13
TORSDOF 5
ENDMDL
