MODEL 1
REMARK VINA RESULT:      -6.9      0.000      0.000
REMARK  Name = 75536994
REMARK  4 active torsions:
REMARK  status: ('A' for Active; 'I' for Inactive)
REMARK    1  A    between atoms: S_1  and  N_7
REMARK    2  A    between atoms: S_1  and  C_16
REMARK    3  A    between atoms: N_8  and  C_15
REMARK    4  A    between atoms: C_15  and  C_17
REMARK                            x       y       z     vdW  Elec       q    Type
REMARK                         _______ _______ _______ _____ _____    ______ ____
ROOT
ATOM      3  O   UNL     1      12.124   6.734  18.853  0.00  0.00    -0.252 OA
ATOM      6  N   UNL     1      12.802   8.771  17.901  0.00  0.00    -0.278 N 
ATOM      7  N   UNL     1      13.436  10.612  15.894  0.00  0.00    -0.178 NA
ATOM      8  N   UNL     1      13.978   7.963  19.636  0.00  0.00    -0.279 N 
ATOM      9  C   UNL     1      13.775   9.806  18.194  0.00  0.00    +0.111 C 
ATOM     10  C   UNL     1      14.475  10.256  16.916  0.00  0.00    +0.133 C 
ATOM     11  C   UNL     1      14.694   9.159  19.229  0.00  0.00    +0.133 C 
ATOM     12  C   UNL     1      11.837   8.975  16.838  0.00  0.00    +0.127 C 
ATOM     13  C   UNL     1      12.546   9.446  15.573  0.00  0.00    +0.128 C 
ATOM     14  C   UNL     1      12.871   7.702  18.805  0.00  0.00    +0.305 C 
ENDROOT
BRANCH   7   1
ATOM      1  S   UNL     1      14.016  11.483  14.537  0.00  0.00    +0.029 S 
ATOM      4  O   UNL     1      12.900  11.777  13.665  0.00  0.00    -0.158 OA
ATOM      5  O   UNL     1      15.214  10.838  14.050  0.00  0.00    -0.158 OA
ATOM     16  C   UNL     1      14.491  12.987  15.348  0.00  0.00    +0.215 C 
ENDBRANCH   7   1
BRANCH   8  15
ATOM     15  C   UNL     1      14.462   7.104  20.694  0.00  0.00    +0.144 C 
BRANCH  15  17
ATOM      2  F   UNL     1      19.872   5.722  19.977  0.00  0.00    -0.205 F 
ATOM     17  C   UNL     1      15.905   6.736  20.502  0.00  0.00    -0.030 A 
ATOM     18  C   UNL     1      16.836   7.020  21.502  0.00  0.00    +0.008 A 
ATOM     19  C   UNL     1      16.314   6.109  19.326  0.00  0.00    +0.008 A 
ATOM     20  C   UNL     1      18.176   6.678  21.325  0.00  0.00    +0.038 A 
ATOM     21  C   UNL     1      17.655   5.766  19.148  0.00  0.00    +0.038 A 
ATOM     22  C   UNL     1      18.586   6.052  20.147  0.00  0.00    +0.123 A 
ENDBRANCH  15  17
ENDBRANCH   8  15
TORSDOF 3
ENDMDL
MODEL 2
REMARK VINA RESULT:      -6.4      5.111      7.696
REMARK  Name = 75536994
REMARK  4 active torsions:
REMARK  status: ('A' for Active; 'I' for Inactive)
REMARK    1  A    between atoms: S_1  and  N_7
REMARK    2  A    between atoms: S_1  and  C_16
REMARK    3  A    between atoms: N_8  and  C_15
REMARK    4  A    between atoms: C_15  and  C_17
REMARK                            x       y       z     vdW  Elec       q    Type
REMARK                         _______ _______ _______ _____ _____    ______ ____
ROOT
ATOM      3  O   UNL     1      16.132   9.849  20.632  0.00  0.00    -0.252 OA
ATOM      6  N   UNL     1      17.463   7.943  20.973  0.00  0.00    -0.278 N 
ATOM      7  N   UNL     1      19.790   6.406  21.169  0.00  0.00    -0.178 NA
ATOM      8  N   UNL     1      15.624   7.745  19.697  0.00  0.00    -0.279 N 
ATOM      9  C   UNL     1      17.384   6.528  20.665  0.00  0.00    +0.111 C 
ATOM     10  C   UNL     1      18.735   6.015  20.176  0.00  0.00    +0.133 C 
ATOM     11  C   UNL     1      16.261   6.441  19.634  0.00  0.00    +0.133 C 
ATOM     12  C   UNL     1      18.530   8.434  21.823  0.00  0.00    +0.127 C 
ATOM     13  C   UNL     1      19.872   7.896  21.338  0.00  0.00    +0.128 C 
ATOM     14  C   UNL     1      16.374   8.662  20.459  0.00  0.00    +0.305 C 
ENDROOT
BRANCH   7   1
ATOM      1  S   UNL     1      21.296   5.609  20.986  0.00  0.00    +0.029 S 
ATOM      4  O   UNL     1      22.210   6.499  20.305  0.00  0.00    -0.158 OA
ATOM      5  O   UNL     1      21.054   4.263  20.521  0.00  0.00    -0.158 OA
ATOM     16  C   UNL     1      21.779   5.523  22.691  0.00  0.00    +0.215 C 
ENDBRANCH   7   1
BRANCH   8  15
ATOM     15  C   UNL     1      14.431   8.051  18.940  0.00  0.00    +0.144 C 
BRANCH  15  17
ATOM      2  F   UNL     1       9.757   7.346  21.999  0.00  0.00    -0.205 F 
ATOM     17  C   UNL     1      13.184   7.863  19.757  0.00  0.00    -0.030 A 
ATOM     18  C   UNL     1      12.107   8.735  19.595  0.00  0.00    +0.008 A 
ATOM     19  C   UNL     1      13.103   6.818  20.675  0.00  0.00    +0.008 A 
ATOM     20  C   UNL     1      10.949   8.560  20.352  0.00  0.00    +0.038 A 
ATOM     21  C   UNL     1      11.946   6.643  21.433  0.00  0.00    +0.038 A 
ATOM     22  C   UNL     1      10.869   7.515  21.272  0.00  0.00    +0.123 A 
ENDBRANCH  15  17
ENDBRANCH   8  15
TORSDOF 3
ENDMDL
MODEL 3
REMARK VINA RESULT:      -6.3      4.409      5.756
REMARK  Name = 75536994
REMARK  4 active torsions:
REMARK  status: ('A' for Active; 'I' for Inactive)
REMARK    1  A    between atoms: S_1  and  N_7
REMARK    2  A    between atoms: S_1  and  C_16
REMARK    3  A    between atoms: N_8  and  C_15
REMARK    4  A    between atoms: C_15  and  C_17
REMARK                            x       y       z     vdW  Elec       q    Type
REMARK                         _______ _______ _______ _____ _____    ______ ____
ROOT
ATOM      3  O   UNL     1      14.280   9.898  18.950  0.00  0.00    -0.252 OA
ATOM      6  N   UNL     1      12.626  10.386  20.545  0.00  0.00    -0.278 N 
ATOM      7  N   UNL     1      11.458  11.576  22.790  0.00  0.00    -0.178 NA
ATOM      8  N   UNL     1      12.954   8.238  19.972  0.00  0.00    -0.279 N 
ATOM      9  C   UNL     1      11.590   9.658  21.253  0.00  0.00    +0.111 C 
ATOM     10  C   UNL     1      11.550  10.079  22.718  0.00  0.00    +0.133 C 
ATOM     11  C   UNL     1      11.952   8.192  21.023  0.00  0.00    +0.133 C 
ATOM     12  C   UNL     1      12.695  11.829  20.660  0.00  0.00    +0.127 C 
ATOM     13  C   UNL     1      12.631  12.239  22.128  0.00  0.00    +0.128 C 
ATOM     14  C   UNL     1      13.396   9.552  19.722  0.00  0.00    +0.305 C 
ENDROOT
BRANCH   7   1
ATOM      1  S   UNL     1      11.033  12.208  24.325  0.00  0.00    +0.029 S 
ATOM      4  O   UNL     1      11.237  11.180  25.321  0.00  0.00    -0.158 OA
ATOM      5  O   UNL     1       9.778  12.914  24.204  0.00  0.00    -0.158 OA
ATOM     16  C   UNL     1      12.325  13.410  24.502  0.00  0.00    +0.215 C 
ENDBRANCH   7   1
BRANCH   8  15
ATOM     15  C   UNL     1      13.495   7.036  19.378  0.00  0.00    +0.144 C 
BRANCH  15  17
ATOM      2  F   UNL     1      18.771   6.040  21.071  0.00  0.00    -0.205 F 
ATOM     17  C   UNL     1      14.902   6.770  19.829  0.00  0.00    -0.030 A 
ATOM     18  C   UNL     1      15.901   6.519  18.888  0.00  0.00    +0.008 A 
ATOM     19  C   UNL     1      15.210   6.775  21.189  0.00  0.00    +0.008 A 
ATOM     20  C   UNL     1      17.208   6.273  19.308  0.00  0.00    +0.038 A 
ATOM     21  C   UNL     1      16.517   6.528  21.609  0.00  0.00    +0.038 A 
ATOM     22  C   UNL     1      17.516   6.276  20.668  0.00  0.00    +0.123 A 
ENDBRANCH  15  17
ENDBRANCH   8  15
TORSDOF 3
ENDMDL
MODEL 4
REMARK VINA RESULT:      -6.2     26.771     28.405
REMARK  Name = 75536994
REMARK  4 active torsions:
REMARK  status: ('A' for Active; 'I' for Inactive)
REMARK    1  A    between atoms: S_1  and  N_7
REMARK    2  A    between atoms: S_1  and  C_16
REMARK    3  A    between atoms: N_8  and  C_15
REMARK    4  A    between atoms: C_15  and  C_17
REMARK                            x       y       z     vdW  Elec       q    Type
REMARK                         _______ _______ _______ _____ _____    ______ ____
ROOT
ATOM      3  O   UNL     1      -3.550 -14.150  14.102  0.00  0.00    -0.252 OA
ATOM      6  N   UNL     1      -4.160 -12.711  15.856  0.00  0.00    -0.278 N 
ATOM      7  N   UNL     1      -5.842 -11.331  17.612  0.00  0.00    -0.178 NA
ATOM      8  N   UNL     1      -2.595 -12.015  14.402  0.00  0.00    -0.279 N 
ATOM      9  C   UNL     1      -3.710 -11.438  16.387  0.00  0.00    +0.111 C 
ATOM     10  C   UNL     1      -4.904 -10.555  16.734  0.00  0.00    +0.133 C 
ATOM     11  C   UNL     1      -2.807 -10.883  15.288  0.00  0.00    +0.133 C 
ATOM     12  C   UNL     1      -5.164 -13.473  16.572  0.00  0.00    +0.127 C 
ATOM     13  C   UNL     1      -6.342 -12.573  16.934  0.00  0.00    +0.128 C 
ATOM     14  C   UNL     1      -3.446 -13.094  14.712  0.00  0.00    +0.305 C 
ENDROOT
BRANCH   7   1
ATOM      1  S   UNL     1      -7.043 -10.397  18.401  0.00  0.00    +0.029 S 
ATOM      4  O   UNL     1      -7.318  -9.225  17.600  0.00  0.00    -0.158 OA
ATOM      5  O   UNL     1      -6.708 -10.301  19.804  0.00  0.00    -0.158 OA
ATOM     16  C   UNL     1      -8.416 -11.509  18.239  0.00  0.00    +0.215 C 
ENDBRANCH   7   1
BRANCH   8  15
ATOM     15  C   UNL     1      -1.699 -11.943  13.270  0.00  0.00    +0.144 C 
BRANCH  15  17
ATOM      2  F   UNL     1      -3.815  -8.798   9.107  0.00  0.00    -0.205 F 
ATOM     17  C   UNL     1      -2.263 -11.104  12.159  0.00  0.00    -0.030 A 
ATOM     18  C   UNL     1      -3.449 -11.485  11.531  0.00  0.00    +0.008 A 
ATOM     19  C   UNL     1      -1.602  -9.944  11.757  0.00  0.00    +0.008 A 
ATOM     20  C   UNL     1      -3.973 -10.706  10.500  0.00  0.00    +0.038 A 
ATOM     21  C   UNL     1      -2.126  -9.165  10.725  0.00  0.00    +0.038 A 
ATOM     22  C   UNL     1      -3.311  -9.547  10.096  0.00  0.00    +0.123 A 
ENDBRANCH  15  17
ENDBRANCH   8  15
TORSDOF 3
ENDMDL
MODEL 5
REMARK VINA RESULT:      -6.0      5.484      6.454
REMARK  Name = 75536994
REMARK  4 active torsions:
REMARK  status: ('A' for Active; 'I' for Inactive)
REMARK    1  A    between atoms: S_1  and  N_7
REMARK    2  A    between atoms: S_1  and  C_16
REMARK    3  A    between atoms: N_8  and  C_15
REMARK    4  A    between atoms: C_15  and  C_17
REMARK                            x       y       z     vdW  Elec       q    Type
REMARK                         _______ _______ _______ _____ _____    ______ ____
ROOT
ATOM      3  O   UNL     1      10.656   8.325  22.720  0.00  0.00    -0.252 OA
ATOM      6  N   UNL     1      11.408  10.547  22.844  0.00  0.00    -0.278 N 
ATOM      7  N   UNL     1      11.347  13.275  23.453  0.00  0.00    -0.178 NA
ATOM      8  N   UNL     1      11.682   9.435  20.911  0.00  0.00    -0.279 N 
ATOM      9  C   UNL     1      12.158  11.459  22.003  0.00  0.00    +0.111 C 
ATOM     10  C   UNL     1      11.525  12.847  22.025  0.00  0.00    +0.133 C 
ATOM     11  C   UNL     1      12.155  10.781  20.635  0.00  0.00    +0.133 C 
ATOM     12  C   UNL     1      11.075  10.931  24.202  0.00  0.00    +0.127 C 
ATOM     13  C   UNL     1      10.464  12.329  24.213  0.00  0.00    +0.128 C 
ATOM     14  C   UNL     1      11.185   9.310  22.223  0.00  0.00    +0.305 C 
ENDROOT
BRANCH   7   1
ATOM      1  S   UNL     1      10.998  14.938  23.677  0.00  0.00    +0.029 S 
ATOM      4  O   UNL     1      12.136  15.568  24.310  0.00  0.00    -0.158 OA
ATOM      5  O   UNL     1       9.662  15.063  24.213  0.00  0.00    -0.158 OA
ATOM     16  C   UNL     1      10.960  15.450  21.979  0.00  0.00    +0.215 C 
ENDBRANCH   7   1
BRANCH   8  15
ATOM     15  C   UNL     1      11.627   8.418  19.885  0.00  0.00    +0.144 C 
BRANCH  15  17
ATOM      2  F   UNL     1      16.683   6.143  18.904  0.00  0.00    -0.205 F 
ATOM     17  C   UNL     1      12.976   7.811  19.623  0.00  0.00    -0.030 A 
ATOM     18  C   UNL     1      13.555   7.918  18.359  0.00  0.00    +0.008 A 
ATOM     19  C   UNL     1      13.649   7.141  20.644  0.00  0.00    +0.008 A 
ATOM     20  C   UNL     1      14.807   7.355  18.115  0.00  0.00    +0.038 A 
ATOM     21  C   UNL     1      14.901   6.578  20.402  0.00  0.00    +0.038 A 
ATOM     22  C   UNL     1      15.480   6.683  19.136  0.00  0.00    +0.123 A 
ENDBRANCH  15  17
ENDBRANCH   8  15
TORSDOF 3
ENDMDL
MODEL 6
REMARK VINA RESULT:      -6.0      4.892      6.941
REMARK  Name = 75536994
REMARK  4 active torsions:
REMARK  status: ('A' for Active; 'I' for Inactive)
REMARK    1  A    between atoms: S_1  and  N_7
REMARK    2  A    between atoms: S_1  and  C_16
REMARK    3  A    between atoms: N_8  and  C_15
REMARK    4  A    between atoms: C_15  and  C_17
REMARK                            x       y       z     vdW  Elec       q    Type
REMARK                         _______ _______ _______ _____ _____    ______ ____
ROOT
ATOM      3  O   UNL     1      11.359   7.221  20.051  0.00  0.00    -0.252 OA
ATOM      6  N   UNL     1      12.026   8.672  21.774  0.00  0.00    -0.278 N 
ATOM      7  N   UNL     1      11.834  10.755  23.630  0.00  0.00    -0.178 NA
ATOM      8  N   UNL     1      13.474   8.264  20.105  0.00  0.00    -0.279 N 
ATOM      9  C   UNL     1      13.240   9.359  22.169  0.00  0.00    +0.111 C 
ATOM     10  C   UNL     1      12.927  10.789  22.601  0.00  0.00    +0.133 C 
ATOM     11  C   UNL     1      14.138   9.250  20.939  0.00  0.00    +0.133 C 
ATOM     12  C   UNL     1      10.871   8.696  22.649  0.00  0.00    +0.127 C 
ATOM     13  C   UNL     1      10.581  10.127  23.092  0.00  0.00    +0.128 C 
ATOM     14  C   UNL     1      12.183   7.956  20.578  0.00  0.00    +0.305 C 
ENDROOT
BRANCH   7   1
ATOM      1  S   UNL     1      11.604  12.215  24.497  0.00  0.00    +0.029 S 
ATOM      4  O   UNL     1      12.442  12.190  25.676  0.00  0.00    -0.158 OA
ATOM      5  O   UNL     1      10.187  12.489  24.575  0.00  0.00    -0.158 OA
ATOM     16  C   UNL     1      12.321  13.349  23.336  0.00  0.00    +0.215 C 
ENDBRANCH   7   1
BRANCH   8  15
ATOM     15  C   UNL     1      14.058   7.785  18.872  0.00  0.00    +0.144 C 
BRANCH  15  17
ATOM      2  F   UNL     1      13.024  11.259  14.564  0.00  0.00    -0.205 F 
ATOM     17  C   UNL     1      13.783   8.712  17.723  0.00  0.00    -0.030 A 
ATOM     18  C   UNL     1      12.623   8.556  16.964  0.00  0.00    +0.008 A 
ATOM     19  C   UNL     1      14.686   9.728  17.414  0.00  0.00    +0.008 A 
ATOM     20  C   UNL     1      12.366   9.416  15.897  0.00  0.00    +0.038 A 
ATOM     21  C   UNL     1      14.430  10.589  16.347  0.00  0.00    +0.038 A 
ATOM     22  C   UNL     1      13.270  10.432  15.588  0.00  0.00    +0.123 A 
ENDBRANCH  15  17
ENDBRANCH   8  15
TORSDOF 3
ENDMDL
MODEL 7
REMARK VINA RESULT:      -5.8     27.166     29.715
REMARK  Name = 75536994
REMARK  4 active torsions:
REMARK  status: ('A' for Active; 'I' for Inactive)
REMARK    1  A    between atoms: S_1  and  N_7
REMARK    2  A    between atoms: S_1  and  C_16
REMARK    3  A    between atoms: N_8  and  C_15
REMARK    4  A    between atoms: C_15  and  C_17
REMARK                            x       y       z     vdW  Elec       q    Type
REMARK                         _______ _______ _______ _____ _____    ______ ____
ROOT
ATOM      3  O   UNL     1     -15.172   8.461  20.254  0.00  0.00    -0.252 OA
ATOM      6  N   UNL     1     -15.221   6.237  21.010  0.00  0.00    -0.278 N 
ATOM      7  N   UNL     1     -16.208   3.953  22.285  0.00  0.00    -0.178 NA
ATOM      8  N   UNL     1     -13.320   7.409  21.267  0.00  0.00    -0.279 N 
ATOM      9  C   UNL     1     -14.272   5.279  21.544  0.00  0.00    +0.111 C 
ATOM     10  C   UNL     1     -14.885   4.518  22.714  0.00  0.00    +0.133 C 
ATOM     11  C   UNL     1     -13.058   6.131  21.906  0.00  0.00    +0.133 C 
ATOM     12  C   UNL     1     -16.568   5.810  20.687  0.00  0.00    +0.127 C 
ATOM     13  C   UNL     1     -17.162   5.030  21.856  0.00  0.00    +0.128 C 
ATOM     14  C   UNL     1     -14.638   7.491  20.774  0.00  0.00    +0.305 C 
ENDROOT
BRANCH   7   1
ATOM      1  S   UNL     1     -16.869   2.767  23.330  0.00  0.00    +0.029 S 
ATOM      4  O   UNL     1     -16.011   2.642  24.488  0.00  0.00    -0.158 OA
ATOM      5  O   UNL     1     -17.259   1.620  22.543  0.00  0.00    -0.158 OA
ATOM     16  C   UNL     1     -18.343   3.620  23.827  0.00  0.00    +0.215 C 
ENDBRANCH   7   1
BRANCH   8  15
ATOM     15  C   UNL     1     -12.353   8.483  21.277  0.00  0.00    +0.144 C 
BRANCH  15  17
ATOM      2  F   UNL     1      -9.856   9.120  16.272  0.00  0.00    -0.205 F 
ATOM     17  C   UNL     1     -11.688   8.653  19.942  0.00  0.00    -0.030 A 
ATOM     18  C   UNL     1     -11.148   9.889  19.584  0.00  0.00    +0.008 A 
ATOM     19  C   UNL     1     -11.608   7.576  19.060  0.00  0.00    +0.008 A 
ATOM     20  C   UNL     1     -10.529  10.047  18.344  0.00  0.00    +0.038 A 
ATOM     21  C   UNL     1     -10.990   7.733  17.820  0.00  0.00    +0.038 A 
ATOM     22  C   UNL     1     -10.451   8.970  17.462  0.00  0.00    +0.123 A 
ENDBRANCH  15  17
ENDBRANCH   8  15
TORSDOF 3
ENDMDL
MODEL 8
REMARK VINA RESULT:      -5.8     26.233     27.822
REMARK  Name = 75536994
REMARK  4 active torsions:
REMARK  status: ('A' for Active; 'I' for Inactive)
REMARK    1  A    between atoms: S_1  and  N_7
REMARK    2  A    between atoms: S_1  and  C_16
REMARK    3  A    between atoms: N_8  and  C_15
REMARK    4  A    between atoms: C_15  and  C_17
REMARK                            x       y       z     vdW  Elec       q    Type
REMARK                         _______ _______ _______ _____ _____    ______ ____
ROOT
ATOM      3  O   UNL     1      -1.127  -9.788  14.899  0.00  0.00    -0.252 OA
ATOM      6  N   UNL     1      -2.392 -10.667  13.125  0.00  0.00    -0.278 N 
ATOM      7  N   UNL     1      -3.670 -10.742  10.640  0.00  0.00    -0.178 NA
ATOM      8  N   UNL     1      -3.145 -10.966  15.222  0.00  0.00    -0.279 N 
ATOM      9  C   UNL     1      -3.562 -11.511  12.975  0.00  0.00    +0.111 C 
ATOM     10  C   UNL     1      -4.478 -10.962  11.886  0.00  0.00    +0.133 C 
ATOM     11  C   UNL     1      -4.178 -11.533  14.372  0.00  0.00    +0.133 C 
ATOM     12  C   UNL     1      -1.622 -10.293  11.956  0.00  0.00    +0.127 C 
ATOM     13  C   UNL     1      -2.551  -9.768  10.866  0.00  0.00    +0.128 C 
ATOM     14  C   UNL     1      -2.097 -10.399  14.470  0.00  0.00    +0.305 C 
ENDROOT
BRANCH   7   1
ATOM      1  S   UNL     1      -4.585 -10.484   9.214  0.00  0.00    +0.029 S 
ATOM      4  O   UNL     1      -4.385 -11.609   8.326  0.00  0.00    -0.158 OA
ATOM      5  O   UNL     1      -4.386  -9.122   8.775  0.00  0.00    -0.158 OA
ATOM     16  C   UNL     1      -6.217 -10.608   9.899  0.00  0.00    +0.215 C 
ENDBRANCH   7   1
BRANCH   8  15
ATOM     15  C   UNL     1      -3.286 -10.899  16.659  0.00  0.00    +0.144 C 
BRANCH  15  17
ATOM      2  F   UNL     1      -8.614  -9.946  18.209  0.00  0.00    -0.205 F 
ATOM     17  C   UNL     1      -4.708 -10.645  17.072  0.00  0.00    -0.030 A 
ATOM     18  C   UNL     1      -5.278 -11.392  18.103  0.00  0.00    +0.008 A 
ATOM     19  C   UNL     1      -5.457  -9.663  16.425  0.00  0.00    +0.008 A 
ATOM     20  C   UNL     1      -6.598 -11.156  18.488  0.00  0.00    +0.038 A 
ATOM     21  C   UNL     1      -6.777  -9.427  16.809  0.00  0.00    +0.038 A 
ATOM     22  C   UNL     1      -7.348 -10.174  17.840  0.00  0.00    +0.123 A 
ENDBRANCH  15  17
ENDBRANCH   8  15
TORSDOF 3
ENDMDL
MODEL 9
REMARK VINA RESULT:      -5.7     13.193     15.737
REMARK  Name = 75536994
REMARK  4 active torsions:
REMARK  status: ('A' for Active; 'I' for Inactive)
REMARK    1  A    between atoms: S_1  and  N_7
REMARK    2  A    between atoms: S_1  and  C_16
REMARK    3  A    between atoms: N_8  and  C_15
REMARK    4  A    between atoms: C_15  and  C_17
REMARK                            x       y       z     vdW  Elec       q    Type
REMARK                         _______ _______ _______ _____ _____    ______ ____
ROOT
ATOM      3  O   UNL     1      11.618   7.882   4.619  0.00  0.00    -0.252 OA
ATOM      6  N   UNL     1      12.325   6.181   3.160  0.00  0.00    -0.278 N 
ATOM      7  N   UNL     1      13.435   5.025   0.869  0.00  0.00    -0.178 NA
ATOM      8  N   UNL     1      10.303   5.989   4.122  0.00  0.00    -0.279 N 
ATOM      9  C   UNL     1      11.845   4.878   2.743  0.00  0.00    +0.111 C 
ATOM     10  C   UNL     1      12.015   4.706   1.236  0.00  0.00    +0.133 C 
ATOM     11  C   UNL     1      10.397   4.849   3.227  0.00  0.00    +0.133 C 
ATOM     12  C   UNL     1      13.638   6.631   2.743  0.00  0.00    +0.127 C 
ATOM     13  C   UNL     1      13.804   6.433   1.240  0.00  0.00    +0.128 C 
ATOM     14  C   UNL     1      11.440   6.817   4.043  0.00  0.00    +0.305 C 
ENDROOT
BRANCH   7   1
ATOM      1  S   UNL     1      13.910   4.537  -0.703  0.00  0.00    +0.029 S 
ATOM      4  O   UNL     1      15.237   3.967  -0.629  0.00  0.00    -0.158 OA
ATOM      5  O   UNL     1      13.584   5.592  -1.635  0.00  0.00    -0.158 OA
ATOM     16  C   UNL     1      12.755   3.212  -0.947  0.00  0.00    +0.215 C 
ENDBRANCH   7   1
BRANCH   8  15
ATOM     15  C   UNL     1       9.106   6.266   4.885  0.00  0.00    +0.144 C 
BRANCH  15  17
ATOM      2  F   UNL     1       9.697   4.878  10.309  0.00  0.00    -0.205 F 
ATOM     17  C   UNL     1       9.264   5.896   6.331  0.00  0.00    -0.030 A 
ATOM     18  C   UNL     1       8.964   6.827   7.326  0.00  0.00    +0.008 A 
ATOM     19  C   UNL     1       9.710   4.622   6.680  0.00  0.00    +0.008 A 
ATOM     20  C   UNL     1       9.110   6.483   8.670  0.00  0.00    +0.038 A 
ATOM     21  C   UNL     1       9.856   4.277   8.024  0.00  0.00    +0.038 A 
ATOM     22  C   UNL     1       9.557   5.209   9.019  0.00  0.00    +0.123 A 
ENDBRANCH  15  17
ENDBRANCH   8  15
TORSDOF 3
ENDMDL
MODEL 10
REMARK VINA RESULT:      -5.6     26.899     28.408
REMARK  Name = 75536994
REMARK  4 active torsions:
REMARK  status: ('A' for Active; 'I' for Inactive)
REMARK    1  A    between atoms: S_1  and  N_7
REMARK    2  A    between atoms: S_1  and  C_16
REMARK    3  A    between atoms: N_8  and  C_15
REMARK    4  A    between atoms: C_15  and  C_17
REMARK                            x       y       z     vdW  Elec       q    Type
REMARK                         _______ _______ _______ _____ _____    ______ ____
ROOT
ATOM      3  O   UNL     1      -3.688 -13.150  12.391  0.00  0.00    -0.252 OA
ATOM      6  N   UNL     1      -3.456 -12.502  14.637  0.00  0.00    -0.278 N 
ATOM      7  N   UNL     1      -4.202 -12.029  17.290  0.00  0.00    -0.178 NA
ATOM      8  N   UNL     1      -2.597 -11.166  13.047  0.00  0.00    -0.279 N 
ATOM      9  C   UNL     1      -2.770 -11.457  15.371  0.00  0.00    +0.111 C 
ATOM     10  C   UNL     1      -3.673 -10.893  16.464  0.00  0.00    +0.133 C 
ATOM     11  C   UNL     1      -2.373 -10.452  14.292  0.00  0.00    +0.133 C 
ATOM     12  C   UNL     1      -4.111 -13.575  15.358  0.00  0.00    +0.127 C 
ATOM     13  C   UNL     1      -4.993 -13.000  16.462  0.00  0.00    +0.128 C 
ATOM     14  C   UNL     1      -3.294 -12.373  13.250  0.00  0.00    +0.305 C 
ENDROOT
BRANCH   7   1
ATOM      1  S   UNL     1      -4.928 -11.576  18.774  0.00  0.00    +0.029 S 
ATOM      4  O   UNL     1      -5.391 -10.210  18.664  0.00  0.00    -0.158 OA
ATOM      5  O   UNL     1      -4.075 -12.006  19.858  0.00  0.00    -0.158 OA
ATOM     16  C   UNL     1      -6.345 -12.642  18.733  0.00  0.00    +0.215 C 
ENDBRANCH   7   1
BRANCH   8  15
ATOM     15  C   UNL     1      -2.243 -10.598  11.766  0.00  0.00    +0.144 C 
BRANCH  15  17
ATOM      2  F   UNL     1      -6.581  -7.917   9.380  0.00  0.00    -0.205 F 
ATOM     17  C   UNL     1      -3.400  -9.884  11.129  0.00  0.00    -0.030 A 
ATOM     18  C   UNL     1      -4.619  -9.791  11.803  0.00  0.00    +0.008 A 
ATOM     19  C   UNL     1      -3.257  -9.312   9.865  0.00  0.00    +0.008 A 
ATOM     20  C   UNL     1      -5.694  -9.127  11.212  0.00  0.00    +0.038 A 
ATOM     21  C   UNL     1      -4.331  -8.648   9.274  0.00  0.00    +0.038 A 
ATOM     22  C   UNL     1      -5.550  -8.556   9.947  0.00  0.00    +0.123 A 
ENDBRANCH  15  17
ENDBRANCH   8  15
TORSDOF 3
ENDMDL
