MODEL 1
REMARK VINA RESULT:      -7.2      0.000      0.000
REMARK  Name = 75536754
REMARK  8 active torsions:
REMARK  status: ('A' for Active; 'I' for Inactive)
REMARK    1  A    between atoms: O_2  and  C_11
REMARK    2  A    between atoms: N_6  and  C_10
REMARK    3  A    between atoms: N_6  and  C_15
REMARK    4  A    between atoms: N_7  and  C_14
REMARK    5  A    between atoms: N_9  and  C_26
REMARK    6  A    between atoms: C_12  and  C_14
REMARK    7  A    between atoms: C_15  and  C_17
REMARK    8  A    between atoms: C_27  and  C_28
REMARK                            x       y       z     vdW  Elec       q    Type
REMARK                         _______ _______ _______ _____ _____    ______ ____
ROOT
ATOM      1  O   UNL     1      14.617   8.436  17.993  0.00  0.00    -0.371 OA
ATOM     10  C   UNL     1      12.895   6.923  18.614  0.00  0.00    +0.111 C 
ATOM     11  C   UNL     1      12.268   8.159  17.997  0.00  0.00    +0.164 C 
ATOM     12  C   UNL     1      13.445   8.725  17.213  0.00  0.00    +0.165 C 
ATOM     13  C   UNL     1      14.282   7.434  18.968  0.00  0.00    +0.181 C 
ENDROOT
BRANCH  11   2
ATOM      2  O   UNL     1      11.172   7.855  17.157  0.00  0.00    -0.388 OA
ATOM     30  H   UNL     1      11.078   8.571  16.507  0.00  0.00    +0.210 HD
ENDBRANCH  11   2
BRANCH  10   6
ATOM      6  N   UNL     1      12.168   6.413  19.766  0.00  0.00    -0.305 NA
ATOM     29  H   UNL     1      12.110   5.397  19.699  0.00  0.00    +0.123 HD
BRANCH   6  15
ATOM     15  C   UNL     1      12.841   6.766  21.010  0.00  0.00    +0.116 C 
BRANCH  15  17
ATOM     17  C   UNL     1      12.303   8.044  21.595  0.00  0.00    -0.033 A 
ATOM     22  C   UNL     1      13.156   9.127  21.808  0.00  0.00    +0.007 A 
ATOM     23  C   UNL     1      10.952   8.147  21.926  0.00  0.00    +0.007 A 
ATOM     24  C   UNL     1      12.659  10.312  22.351  0.00  0.00    +0.023 A 
ATOM     25  C   UNL     1      10.454   9.332  22.469  0.00  0.00    +0.023 A 
ATOM     26  C   UNL     1      11.307  10.414  22.681  0.00  0.00    +0.033 A 
BRANCH  26   9
ATOM      5  O   UNL     1      11.384  11.450  25.507  0.00  0.00    -0.276 OA
ATOM      9  N   UNL     1      10.809  11.598  23.225  0.00  0.00    -0.286 N 
ATOM     27  C   UNL     1      10.872  12.032  24.556  0.00  0.00    +0.214 C 
ATOM     28  C   UNL     1      10.213  13.377  24.737  0.00  0.00    +0.109 C 
ATOM     32  H   UNL     1      10.344  12.218  22.565  0.00  0.00    +0.155 HD
ENDBRANCH  26   9
ENDBRANCH  15  17
ENDBRANCH   6  15
ENDBRANCH  10   6
BRANCH  12  14
ATOM     14  C   UNL     1      13.343  10.221  16.972  0.00  0.00    +0.140 C 
BRANCH  14   7
ATOM      3  O   UNL     1      17.503  13.021  12.967  0.00  0.00    -0.377 OA
ATOM      4  O   UNL     1      13.141  11.113  14.311  0.00  0.00    -0.253 OA
ATOM      7  N   UNL     1      14.437  10.700  16.158  0.00  0.00    -0.297 N 
ATOM      8  N   UNL     1      15.414  11.557  14.184  0.00  0.00    -0.281 N 
ATOM     16  C   UNL     1      14.254  11.125  14.847  0.00  0.00    +0.302 C 
ATOM     18  C   UNL     1      15.313  12.016  12.796  0.00  0.00    +0.137 C 
ATOM     19  C   UNL     1      16.790  11.463  14.691  0.00  0.00    +0.137 C 
ATOM     20  C   UNL     1      16.152  13.264  12.571  0.00  0.00    +0.179 C 
ATOM     21  C   UNL     1      17.577  12.727  14.363  0.00  0.00    +0.179 C 
ATOM     31  H   UNL     1      15.349  10.693  16.592  0.00  0.00    +0.150 HD
ENDBRANCH  14   7
ENDBRANCH  12  14
TORSDOF 7
ENDMDL
MODEL 2
REMARK VINA RESULT:      -7.0     26.617     29.798
REMARK  Name = 75536754
REMARK  8 active torsions:
REMARK  status: ('A' for Active; 'I' for Inactive)
REMARK    1  A    between atoms: O_2  and  C_11
REMARK    2  A    between atoms: N_6  and  C_10
REMARK    3  A    between atoms: N_6  and  C_15
REMARK    4  A    between atoms: N_7  and  C_14
REMARK    5  A    between atoms: N_9  and  C_26
REMARK    6  A    between atoms: C_12  and  C_14
REMARK    7  A    between atoms: C_15  and  C_17
REMARK    8  A    between atoms: C_27  and  C_28
REMARK                            x       y       z     vdW  Elec       q    Type
REMARK                         _______ _______ _______ _____ _____    ______ ____
ROOT
ATOM      1  O   UNL     1      -5.267 -11.576  15.915  0.00  0.00    -0.371 OA
ATOM     10  C   UNL     1      -3.177 -11.185  14.859  0.00  0.00    +0.111 C 
ATOM     11  C   UNL     1      -3.092 -10.733  16.305  0.00  0.00    +0.164 C 
ATOM     12  C   UNL     1      -4.245 -11.512  16.923  0.00  0.00    +0.165 C 
ATOM     13  C   UNL     1      -4.681 -11.236  14.647  0.00  0.00    +0.181 C 
ENDROOT
BRANCH  11   2
ATOM      2  O   UNL     1      -1.855 -11.056  16.907  0.00  0.00    -0.388 OA
ATOM     30  H   UNL     1      -1.551 -10.285  17.414  0.00  0.00    +0.210 HD
ENDBRANCH  11   2
BRANCH  10   6
ATOM      6  N   UNL     1      -2.505 -10.292  13.929  0.00  0.00    -0.305 NA
ATOM     29  H   UNL     1      -1.749  -9.811  14.417  0.00  0.00    +0.123 HD
BRANCH   6  15
ATOM     15  C   UNL     1      -1.944 -11.030  12.804  0.00  0.00    +0.116 C 
BRANCH  15  17
ATOM     17  C   UNL     1      -2.719 -10.792  11.535  0.00  0.00    -0.033 A 
ATOM     22  C   UNL     1      -2.736  -9.523  10.958  0.00  0.00    +0.007 A 
ATOM     23  C   UNL     1      -3.419 -11.840  10.937  0.00  0.00    +0.007 A 
ATOM     24  C   UNL     1      -3.455  -9.301   9.782  0.00  0.00    +0.023 A 
ATOM     25  C   UNL     1      -4.137 -11.619   9.762  0.00  0.00    +0.023 A 
ATOM     26  C   UNL     1      -4.154 -10.349   9.184  0.00  0.00    +0.033 A 
BRANCH  26   9
ATOM      5  O   UNL     1      -6.868  -9.116   8.756  0.00  0.00    -0.276 OA
ATOM      9  N   UNL     1      -4.873 -10.128   8.009  0.00  0.00    -0.286 N 
ATOM     27  C   UNL     1      -6.141  -9.547   7.867  0.00  0.00    +0.214 C 
ATOM     28  C   UNL     1      -6.569  -9.488   6.422  0.00  0.00    +0.109 C 
ATOM     32  H   UNL     1      -4.411 -10.429   7.153  0.00  0.00    +0.155 HD
ENDBRANCH  26   9
ENDBRANCH  15  17
ENDBRANCH   6  15
ENDBRANCH  10   6
BRANCH  12  14
ATOM     14  C   UNL     1      -4.802 -10.867  18.180  0.00  0.00    +0.140 C 
BRANCH  14   7
ATOM      3  O   UNL     1     -11.116  -9.906  18.812  0.00  0.00    -0.377 OA
ATOM      4  O   UNL     1      -6.693 -11.725  20.079  0.00  0.00    -0.253 OA
ATOM      7  N   UNL     1      -6.232 -10.680  18.089  0.00  0.00    -0.297 N 
ATOM      8  N   UNL     1      -8.464 -10.884  18.840  0.00  0.00    -0.281 N 
ATOM     16  C   UNL     1      -7.102 -11.135  19.074  0.00  0.00    +0.302 C 
ATOM     18  C   UNL     1      -9.452 -11.336  19.824  0.00  0.00    +0.137 C 
ATOM     19  C   UNL     1      -9.046 -10.329  17.610  0.00  0.00    +0.137 C 
ATOM     20  C   UNL     1     -10.516 -10.275  20.055  0.00  0.00    +0.179 C 
ATOM     21  C   UNL     1     -10.148  -9.328  17.935  0.00  0.00    +0.179 C 
ATOM     31  H   UNL     1      -6.567 -10.213  17.259  0.00  0.00    +0.150 HD
ENDBRANCH  14   7
ENDBRANCH  12  14
TORSDOF 7
ENDMDL
MODEL 3
REMARK VINA RESULT:      -7.0     26.893     29.764
REMARK  Name = 75536754
REMARK  8 active torsions:
REMARK  status: ('A' for Active; 'I' for Inactive)
REMARK    1  A    between atoms: O_2  and  C_11
REMARK    2  A    between atoms: N_6  and  C_10
REMARK    3  A    between atoms: N_6  and  C_15
REMARK    4  A    between atoms: N_7  and  C_14
REMARK    5  A    between atoms: N_9  and  C_26
REMARK    6  A    between atoms: C_12  and  C_14
REMARK    7  A    between atoms: C_15  and  C_17
REMARK    8  A    between atoms: C_27  and  C_28
REMARK                            x       y       z     vdW  Elec       q    Type
REMARK                         _______ _______ _______ _____ _____    ______ ____
ROOT
ATOM      1  O   UNL     1      -8.732 -11.797  20.086  0.00  0.00    -0.371 OA
ATOM     10  C   UNL     1      -9.979 -10.405  18.621  0.00  0.00    +0.111 C 
ATOM     11  C   UNL     1      -8.543 -10.472  18.135  0.00  0.00    +0.164 C 
ATOM     12  C   UNL     1      -8.064 -11.749  18.814  0.00  0.00    +0.165 C 
ATOM     13  C   UNL     1      -9.833 -10.873  20.060  0.00  0.00    +0.181 C 
ENDROOT
BRANCH  11   2
ATOM      2  O   UNL     1      -8.446 -10.556  16.727  0.00  0.00    -0.388 OA
ATOM     30  H   UNL     1      -9.344 -10.608  16.361  0.00  0.00    +0.210 HD
ENDBRANCH  11   2
BRANCH  10   6
ATOM      6  N   UNL     1     -10.570  -9.081  18.514  0.00  0.00    -0.305 NA
ATOM     29  H   UNL     1      -9.896  -8.451  18.077  0.00  0.00    +0.123 HD
BRANCH   6  15
ATOM     15  C   UNL     1     -11.782  -9.110  17.704  0.00  0.00    +0.116 C 
BRANCH  15  17
ATOM     17  C   UNL     1     -11.835  -7.962  16.732  0.00  0.00    -0.033 A 
ATOM     22  C   UNL     1     -10.674  -7.250  16.431  0.00  0.00    +0.007 A 
ATOM     23  C   UNL     1     -13.044  -7.609  16.133  0.00  0.00    +0.007 A 
ATOM     24  C   UNL     1     -10.722  -6.185  15.530  0.00  0.00    +0.023 A 
ATOM     25  C   UNL     1     -13.093  -6.545  15.233  0.00  0.00    +0.023 A 
ATOM     26  C   UNL     1     -11.932  -5.833  14.931  0.00  0.00    +0.033 A 
BRANCH  26   9
ATOM      5  O   UNL     1     -12.462  -5.803  11.967  0.00  0.00    -0.276 OA
ATOM      9  N   UNL     1     -11.982  -4.768  14.032  0.00  0.00    -0.286 N 
ATOM     27  C   UNL     1     -12.233  -4.812  12.653  0.00  0.00    +0.214 C 
ATOM     28  C   UNL     1     -12.201  -3.436  12.036  0.00  0.00    +0.109 C 
ATOM     32  H   UNL     1     -11.814  -3.849  14.436  0.00  0.00    +0.155 HD
ENDBRANCH  26   9
ENDBRANCH  15  17
ENDBRANCH   6  15
ENDBRANCH  10   6
BRANCH  12  14
ATOM     14  C   UNL     1      -6.560 -11.791  19.021  0.00  0.00    +0.140 C 
BRANCH  14   7
ATOM      3  O   UNL     1      -2.731 -10.630  14.004  0.00  0.00    -0.377 OA
ATOM      4  O   UNL     1      -3.764 -11.725  18.717  0.00  0.00    -0.253 OA
ATOM      7  N   UNL     1      -5.851 -11.360  17.839  0.00  0.00    -0.297 N 
ATOM      8  N   UNL     1      -3.920 -10.904  16.554  0.00  0.00    -0.281 N 
ATOM     16  C   UNL     1      -4.462 -11.357  17.767  0.00  0.00    +0.302 C 
ATOM     18  C   UNL     1      -2.464 -10.862  16.394  0.00  0.00    +0.137 C 
ATOM     19  C   UNL     1      -4.668 -10.310  15.436  0.00  0.00    +0.137 C 
ATOM     20  C   UNL     1      -2.051 -11.368  15.021  0.00  0.00    +0.179 C 
ATOM     21  C   UNL     1      -4.143 -10.820  14.100  0.00  0.00    +0.179 C 
ATOM     31  H   UNL     1      -6.423 -11.043  17.069  0.00  0.00    +0.150 HD
ENDBRANCH  14   7
ENDBRANCH  12  14
TORSDOF 7
ENDMDL
MODEL 4
REMARK VINA RESULT:      -7.0      2.319      3.272
REMARK  Name = 75536754
REMARK  8 active torsions:
REMARK  status: ('A' for Active; 'I' for Inactive)
REMARK    1  A    between atoms: O_2  and  C_11
REMARK    2  A    between atoms: N_6  and  C_10
REMARK    3  A    between atoms: N_6  and  C_15
REMARK    4  A    between atoms: N_7  and  C_14
REMARK    5  A    between atoms: N_9  and  C_26
REMARK    6  A    between atoms: C_12  and  C_14
REMARK    7  A    between atoms: C_15  and  C_17
REMARK    8  A    between atoms: C_27  and  C_28
REMARK                            x       y       z     vdW  Elec       q    Type
REMARK                         _______ _______ _______ _____ _____    ______ ____
ROOT
ATOM      1  O   UNL     1      14.453   8.330  17.401  0.00  0.00    -0.371 OA
ATOM     10  C   UNL     1      12.741   6.999  18.368  0.00  0.00    +0.111 C 
ATOM     11  C   UNL     1      12.103   8.109  17.553  0.00  0.00    +0.164 C 
ATOM     12  C   UNL     1      13.252   8.490  16.628  0.00  0.00    +0.165 C 
ATOM     13  C   UNL     1      14.148   7.538  18.562  0.00  0.00    +0.181 C 
ENDROOT
BRANCH  11   2
ATOM      2  O   UNL     1      10.968   7.674  16.831  0.00  0.00    -0.388 OA
ATOM     30  H   UNL     1      11.214   7.593  15.894  0.00  0.00    +0.210 HD
ENDBRANCH  11   2
BRANCH  10   6
ATOM      6  N   UNL     1      12.058   6.733  19.624  0.00  0.00    -0.305 NA
ATOM     29  H   UNL     1      11.863   5.734  19.692  0.00  0.00    +0.123 HD
BRANCH   6  15
ATOM     15  C   UNL     1      12.877   7.131  20.762  0.00  0.00    +0.116 C 
BRANCH  15  17
ATOM     17  C   UNL     1      12.348   8.374  21.426  0.00  0.00    -0.033 A 
ATOM     22  C   UNL     1      13.228   9.383  21.818  0.00  0.00    +0.007 A 
ATOM     23  C   UNL     1      10.979   8.517  21.652  0.00  0.00    +0.007 A 
ATOM     24  C   UNL     1      12.739  10.535  22.435  0.00  0.00    +0.023 A 
ATOM     25  C   UNL     1      10.489   9.669  22.267  0.00  0.00    +0.023 A 
ATOM     26  C   UNL     1      11.369  10.678  22.659  0.00  0.00    +0.033 A 
BRANCH  26   9
ATOM      5  O   UNL     1      11.247  11.433  25.571  0.00  0.00    -0.276 OA
ATOM      9  N   UNL     1      10.879  11.829  23.276  0.00  0.00    -0.286 N 
ATOM     27  C   UNL     1      10.846  12.129  24.645  0.00  0.00    +0.214 C 
ATOM     28  C   UNL     1      10.234  13.483  24.905  0.00  0.00    +0.109 C 
ATOM     32  H   UNL     1      10.501  12.533  22.646  0.00  0.00    +0.155 HD
ENDBRANCH  26   9
ENDBRANCH  15  17
ENDBRANCH   6  15
ENDBRANCH  10   6
BRANCH  12  14
ATOM     14  C   UNL     1      13.160   9.915  16.111  0.00  0.00    +0.140 C 
BRANCH  14   7
ATOM      3  O   UNL     1      13.549  14.821  20.229  0.00  0.00    -0.377 OA
ATOM      4  O   UNL     1      15.134  11.859  16.596  0.00  0.00    -0.253 OA
ATOM      7  N   UNL     1      13.152  10.872  17.194  0.00  0.00    -0.297 N 
ATOM      8  N   UNL     1      14.023  12.662  18.467  0.00  0.00    -0.281 N 
ATOM     16  C   UNL     1      14.169  11.804  17.365  0.00  0.00    +0.302 C 
ATOM     18  C   UNL     1      15.052  13.672  18.727  0.00  0.00    +0.137 C 
ATOM     19  C   UNL     1      12.992  12.566  19.511  0.00  0.00    +0.137 C 
ATOM     20  C   UNL     1      14.427  15.001  19.116  0.00  0.00    +0.179 C 
ATOM     21  C   UNL     1      12.471  13.948  19.887  0.00  0.00    +0.179 C 
ATOM     31  H   UNL     1      12.371  10.813  17.831  0.00  0.00    +0.150 HD
ENDBRANCH  14   7
ENDBRANCH  12  14
TORSDOF 7
ENDMDL
MODEL 5
REMARK VINA RESULT:      -7.0     26.417     30.451
REMARK  Name = 75536754
REMARK  8 active torsions:
REMARK  status: ('A' for Active; 'I' for Inactive)
REMARK    1  A    between atoms: O_2  and  C_11
REMARK    2  A    between atoms: N_6  and  C_10
REMARK    3  A    between atoms: N_6  and  C_15
REMARK    4  A    between atoms: N_7  and  C_14
REMARK    5  A    between atoms: N_9  and  C_26
REMARK    6  A    between atoms: C_12  and  C_14
REMARK    7  A    between atoms: C_15  and  C_17
REMARK    8  A    between atoms: C_27  and  C_28
REMARK                            x       y       z     vdW  Elec       q    Type
REMARK                         _______ _______ _______ _____ _____    ______ ____
ROOT
ATOM      1  O   UNL     1     -18.080   4.853  23.812  0.00  0.00    -0.371 OA
ATOM     10  C   UNL     1     -16.088   3.939  22.899  0.00  0.00    +0.111 C 
ATOM     11  C   UNL     1     -16.113   3.675  24.393  0.00  0.00    +0.164 C 
ATOM     12  C   UNL     1     -17.599   3.823  24.692  0.00  0.00    +0.165 C 
ATOM     13  C   UNL     1     -17.107   5.059  22.774  0.00  0.00    +0.181 C 
ENDROOT
BRANCH  11   2
ATOM      2  O   UNL     1     -15.633   2.388  24.729  0.00  0.00    -0.388 OA
ATOM     30  H   UNL     1     -15.808   1.792  23.982  0.00  0.00    +0.210 HD
ENDBRANCH  11   2
BRANCH  10   6
ATOM      6  N   UNL     1     -14.775   4.309  22.394  0.00  0.00    -0.305 NA
ATOM     29  H   UNL     1     -14.756   4.169  21.383  0.00  0.00    +0.123 HD
BRANCH   6  15
ATOM     15  C   UNL     1     -14.476   5.706  22.682  0.00  0.00    +0.116 C 
BRANCH  15  17
ATOM     17  C   UNL     1     -13.703   6.356  21.566  0.00  0.00    -0.033 A 
ATOM     22  C   UNL     1     -14.361   7.174  20.647  0.00  0.00    +0.007 A 
ATOM     23  C   UNL     1     -12.330   6.141  21.449  0.00  0.00    +0.007 A 
ATOM     24  C   UNL     1     -13.646   7.776  19.612  0.00  0.00    +0.023 A 
ATOM     25  C   UNL     1     -11.615   6.743  20.414  0.00  0.00    +0.023 A 
ATOM     26  C   UNL     1     -12.273   7.561  19.496  0.00  0.00    +0.033 A 
BRANCH  26   9
ATOM      5  O   UNL     1     -10.330   9.861  19.542  0.00  0.00    -0.276 OA
ATOM      9  N   UNL     1     -11.557   8.162  18.460  0.00  0.00    -0.286 N 
ATOM     27  C   UNL     1     -10.661   9.238  18.539  0.00  0.00    +0.214 C 
ATOM     28  C   UNL     1     -10.092   9.590  17.188  0.00  0.00    +0.109 C 
ATOM     32  H   UNL     1     -11.710   7.763  17.537  0.00  0.00    +0.155 HD
ENDBRANCH  26   9
ENDBRANCH  15  17
ENDBRANCH   6  15
ENDBRANCH  10   6
BRANCH  12  14
ATOM     14  C   UNL     1     -17.887   4.202  26.134  0.00  0.00    +0.140 C 
BRANCH  14   7
ATOM      3  O   UNL     1     -15.037   1.090  30.969  0.00  0.00    -0.377 OA
ATOM      4  O   UNL     1     -16.472   5.071  28.404  0.00  0.00    -0.253 OA
ATOM      7  N   UNL     1     -17.172   3.351  27.057  0.00  0.00    -0.297 N 
ATOM      8  N   UNL     1     -15.842   2.909  28.960  0.00  0.00    -0.281 N 
ATOM     16  C   UNL     1     -16.495   3.860  28.160  0.00  0.00    +0.302 C 
ATOM     18  C   UNL     1     -15.098   3.358  30.140  0.00  0.00    +0.137 C 
ATOM     19  C   UNL     1     -15.692   1.478  28.660  0.00  0.00    +0.137 C 
ATOM     20  C   UNL     1     -15.346   2.439  31.325  0.00  0.00    +0.179 C 
ATOM     21  C   UNL     1     -15.889   0.637  29.916  0.00  0.00    +0.179 C 
ATOM     31  H   UNL     1     -17.177   2.364  26.846  0.00  0.00    +0.150 HD
ENDBRANCH  14   7
ENDBRANCH  12  14
TORSDOF 7
ENDMDL
MODEL 6
REMARK VINA RESULT:      -6.9     26.212     28.251
REMARK  Name = 75536754
REMARK  8 active torsions:
REMARK  status: ('A' for Active; 'I' for Inactive)
REMARK    1  A    between atoms: O_2  and  C_11
REMARK    2  A    between atoms: N_6  and  C_10
REMARK    3  A    between atoms: N_6  and  C_15
REMARK    4  A    between atoms: N_7  and  C_14
REMARK    5  A    between atoms: N_9  and  C_26
REMARK    6  A    between atoms: C_12  and  C_14
REMARK    7  A    between atoms: C_15  and  C_17
REMARK    8  A    between atoms: C_27  and  C_28
REMARK                            x       y       z     vdW  Elec       q    Type
REMARK                         _______ _______ _______ _____ _____    ______ ____
ROOT
ATOM      1  O   UNL     1      -1.315  -9.921  13.493  0.00  0.00    -0.371 OA
ATOM     10  C   UNL     1      -2.294 -11.719  14.695  0.00  0.00    +0.111 C 
ATOM     11  C   UNL     1      -2.937 -11.635  13.323  0.00  0.00    +0.164 C 
ATOM     12  C   UNL     1      -1.882 -10.850  12.554  0.00  0.00    +0.165 C 
ATOM     13  C   UNL     1      -1.670 -10.339  14.822  0.00  0.00    +0.181 C 
ENDROOT
BRANCH  11   2
ATOM      2  O   UNL     1      -3.171 -12.905  12.749  0.00  0.00    -0.388 OA
ATOM     30  H   UNL     1      -4.096 -13.149  12.914  0.00  0.00    +0.210 HD
ENDBRANCH  11   2
BRANCH  10   6
ATOM      6  N   UNL     1      -3.236 -12.015  15.763  0.00  0.00    -0.305 NA
ATOM     29  H   UNL     1      -2.959 -12.885  16.219  0.00  0.00    +0.123 HD
BRANCH   6  15
ATOM     15  C   UNL     1      -3.256 -10.948  16.756  0.00  0.00    +0.116 C 
BRANCH  15  17
ATOM     17  C   UNL     1      -4.660 -10.553  17.126  0.00  0.00    -0.033 A 
ATOM     22  C   UNL     1      -5.472  -9.910  16.191  0.00  0.00    +0.007 A 
ATOM     23  C   UNL     1      -5.151 -10.827  18.402  0.00  0.00    +0.007 A 
ATOM     24  C   UNL     1      -6.774  -9.543  16.533  0.00  0.00    +0.023 A 
ATOM     25  C   UNL     1      -6.452 -10.460  18.744  0.00  0.00    +0.023 A 
ATOM     26  C   UNL     1      -7.264  -9.818  17.810  0.00  0.00    +0.033 A 
BRANCH  26   9
ATOM      5  O   UNL     1      -9.895 -11.152  17.204  0.00  0.00    -0.276 OA
ATOM      9  N   UNL     1      -8.565  -9.450  18.153  0.00  0.00    -0.286 N 
ATOM     27  C   UNL     1      -9.761 -10.112  17.841  0.00  0.00    +0.214 C 
ATOM     28  C   UNL     1     -10.961  -9.389  18.400  0.00  0.00    +0.109 C 
ATOM     32  H   UNL     1      -8.646  -8.594  18.697  0.00  0.00    +0.155 HD
ENDBRANCH  26   9
ENDBRANCH  15  17
ENDBRANCH   6  15
ENDBRANCH  10   6
BRANCH  12  14
ATOM     14  C   UNL     1      -2.445 -10.097  11.361  0.00  0.00    +0.140 C 
BRANCH  14   7
ATOM      3  O   UNL     1      -8.803  -9.305  11.011  0.00  0.00    -0.377 OA
ATOM      4  O   UNL     1      -4.137  -9.008   9.394  0.00  0.00    -0.253 OA
ATOM      7  N   UNL     1      -3.862  -9.856  11.508  0.00  0.00    -0.297 N 
ATOM      8  N   UNL     1      -5.992  -9.133  10.781  0.00  0.00    -0.281 N 
ATOM     16  C   UNL     1      -4.631  -9.313  10.485  0.00  0.00    +0.302 C 
ATOM     18  C   UNL     1      -6.875  -8.560   9.762  0.00  0.00    +0.137 C 
ATOM     19  C   UNL     1      -6.627  -9.325  12.093  0.00  0.00    +0.137 C 
ATOM     20  C   UNL     1      -8.203  -9.297   9.714  0.00  0.00    +0.179 C 
ATOM     21  C   UNL     1      -7.982 -10.007  11.944  0.00  0.00    +0.179 C 
ATOM     31  H   UNL     1      -4.261 -10.089  12.406  0.00  0.00    +0.150 HD
ENDBRANCH  14   7
ENDBRANCH  12  14
TORSDOF 7
ENDMDL
MODEL 7
REMARK VINA RESULT:      -6.9     27.093     30.395
REMARK  Name = 75536754
REMARK  8 active torsions:
REMARK  status: ('A' for Active; 'I' for Inactive)
REMARK    1  A    between atoms: O_2  and  C_11
REMARK    2  A    between atoms: N_6  and  C_10
REMARK    3  A    between atoms: N_6  and  C_15
REMARK    4  A    between atoms: N_7  and  C_14
REMARK    5  A    between atoms: N_9  and  C_26
REMARK    6  A    between atoms: C_12  and  C_14
REMARK    7  A    between atoms: C_15  and  C_17
REMARK    8  A    between atoms: C_27  and  C_28
REMARK                            x       y       z     vdW  Elec       q    Type
REMARK                         _______ _______ _______ _____ _____    ______ ____
ROOT
ATOM      1  O   UNL     1     -10.398 -12.497  18.441  0.00  0.00    -0.371 OA
ATOM     10  C   UNL     1      -8.822 -11.390  19.830  0.00  0.00    +0.111 C 
ATOM     11  C   UNL     1     -10.069 -10.533  19.717  0.00  0.00    +0.164 C 
ATOM     12  C   UNL     1     -11.099 -11.569  19.286  0.00  0.00    +0.165 C 
ATOM     13  C   UNL     1      -8.985 -12.318  18.638  0.00  0.00    +0.181 C 
ENDROOT
BRANCH  11   2
ATOM      2  O   UNL     1     -10.422  -9.916  20.939  0.00  0.00    -0.388 OA
ATOM     30  H   UNL     1     -11.382 -10.004  21.059  0.00  0.00    +0.210 HD
ENDBRANCH  11   2
BRANCH  10   6
ATOM      6  N   UNL     1      -7.585 -10.627  19.789  0.00  0.00    -0.305 NA
ATOM     29  H   UNL     1      -7.510 -10.069  20.639  0.00  0.00    +0.123 HD
BRANCH   6  15
ATOM     15  C   UNL     1      -6.427 -11.509  19.699  0.00  0.00    +0.116 C 
BRANCH  15  17
ATOM     17  C   UNL     1      -5.558 -11.175  18.517  0.00  0.00    -0.033 A 
ATOM     22  C   UNL     1      -6.039 -10.331  17.515  0.00  0.00    +0.007 A 
ATOM     23  C   UNL     1      -4.273 -11.708  18.421  0.00  0.00    +0.007 A 
ATOM     24  C   UNL     1      -5.234 -10.021  16.418  0.00  0.00    +0.023 A 
ATOM     25  C   UNL     1      -3.468 -11.399  17.325  0.00  0.00    +0.023 A 
ATOM     26  C   UNL     1      -3.949 -10.555  16.323  0.00  0.00    +0.033 A 
BRANCH  26   9
ATOM      5  O   UNL     1      -3.277 -12.175  13.875  0.00  0.00    -0.276 OA
ATOM      9  N   UNL     1      -3.144 -10.247  15.226  0.00  0.00    -0.286 N 
ATOM     27  C   UNL     1      -2.863 -11.044  14.108  0.00  0.00    +0.214 C 
ATOM     28  C   UNL     1      -1.945 -10.343  13.138  0.00  0.00    +0.109 C 
ATOM     32  H   UNL     1      -2.711  -9.326  15.249  0.00  0.00    +0.155 HD
ENDBRANCH  26   9
ENDBRANCH  15  17
ENDBRANCH   6  15
ENDBRANCH  10   6
BRANCH  12  14
ATOM     14  C   UNL     1     -12.273 -10.972  18.530  0.00  0.00    +0.140 C 
BRANCH  14   7
ATOM      3  O   UNL     1     -11.388  -5.821  14.807  0.00  0.00    -0.377 OA
ATOM      4  O   UNL     1     -12.371 -10.578  15.746  0.00  0.00    -0.253 OA
ATOM      7  N   UNL     1     -11.896  -9.762  17.837  0.00  0.00    -0.297 N 
ATOM      8  N   UNL     1     -11.566  -8.410  15.926  0.00  0.00    -0.281 N 
ATOM     16  C   UNL     1     -11.973  -9.646  16.453  0.00  0.00    +0.302 C 
ATOM     18  C   UNL     1     -11.609  -8.203  14.476  0.00  0.00    +0.137 C 
ATOM     19  C   UNL     1     -10.942  -7.310  16.675  0.00  0.00    +0.137 C 
ATOM     20  C   UNL     1     -12.152  -6.825  14.137  0.00  0.00    +0.179 C 
ATOM     21  C   UNL     1     -11.495  -5.963  16.224  0.00  0.00    +0.179 C 
ATOM     31  H   UNL     1     -11.555  -9.007  18.414  0.00  0.00    +0.150 HD
ENDBRANCH  14   7
ENDBRANCH  12  14
TORSDOF 7
ENDMDL
MODEL 8
REMARK VINA RESULT:      -6.6     26.925     28.600
REMARK  Name = 75536754
REMARK  8 active torsions:
REMARK  status: ('A' for Active; 'I' for Inactive)
REMARK    1  A    between atoms: O_2  and  C_11
REMARK    2  A    between atoms: N_6  and  C_10
REMARK    3  A    between atoms: N_6  and  C_15
REMARK    4  A    between atoms: N_7  and  C_14
REMARK    5  A    between atoms: N_9  and  C_26
REMARK    6  A    between atoms: C_12  and  C_14
REMARK    7  A    between atoms: C_15  and  C_17
REMARK    8  A    between atoms: C_27  and  C_28
REMARK                            x       y       z     vdW  Elec       q    Type
REMARK                         _______ _______ _______ _____ _____    ______ ____
ROOT
ATOM      1  O   UNL     1      -1.839 -11.652  12.549  0.00  0.00    -0.371 OA
ATOM     10  C   UNL     1      -1.946 -11.928  14.905  0.00  0.00    +0.111 C 
ATOM     11  C   UNL     1      -2.743 -13.036  14.241  0.00  0.00    +0.164 C 
ATOM     12  C   UNL     1      -2.147 -13.026  12.840  0.00  0.00    +0.165 C 
ATOM     13  C   UNL     1      -1.850 -10.910  13.780  0.00  0.00    +0.181 C 
ENDROOT
BRANCH  11   2
ATOM      2  O   UNL     1      -2.574 -14.288  14.876  0.00  0.00    -0.388 OA
ATOM     30  H   UNL     1      -3.118 -14.298  15.681  0.00  0.00    +0.210 HD
ENDBRANCH  11   2
BRANCH  10   6
ATOM      6  N   UNL     1      -2.576 -11.393  16.101  0.00  0.00    -0.305 NA
ATOM     29  H   UNL     1      -1.853 -11.045  16.730  0.00  0.00    +0.123 HD
BRANCH   6  15
ATOM     15  C   UNL     1      -3.483 -10.300  15.773  0.00  0.00    +0.116 C 
BRANCH  15  17
ATOM     17  C   UNL     1      -4.698 -10.294  16.661  0.00  0.00    -0.033 A 
ATOM     22  C   UNL     1      -4.666 -10.951  17.890  0.00  0.00    +0.007 A 
ATOM     23  C   UNL     1      -5.856  -9.631  16.255  0.00  0.00    +0.007 A 
ATOM     24  C   UNL     1      -5.792 -10.947  18.714  0.00  0.00    +0.023 A 
ATOM     25  C   UNL     1      -6.982  -9.626  17.078  0.00  0.00    +0.023 A 
ATOM     26  C   UNL     1      -6.950 -10.284  18.308  0.00  0.00    +0.033 A 
BRANCH  26   9
ATOM      5  O   UNL     1      -9.509 -11.861  18.126  0.00  0.00    -0.276 OA
ATOM      9  N   UNL     1      -8.077 -10.279  19.130  0.00  0.00    -0.286 N 
ATOM     27  C   UNL     1      -9.248 -11.038  18.997  0.00  0.00    +0.214 C 
ATOM     28  C   UNL     1     -10.234 -10.741  20.099  0.00  0.00    +0.109 C 
ATOM     32  H   UNL     1      -8.034  -9.642  19.923  0.00  0.00    +0.155 HD
ENDBRANCH  26   9
ENDBRANCH  15  17
ENDBRANCH   6  15
ENDBRANCH  10   6
BRANCH  12  14
ATOM     14  C   UNL     1      -3.087 -13.577  11.782  0.00  0.00    +0.140 C 
BRANCH  14   7
ATOM      3  O   UNL     1      -5.980  -8.613   8.924  0.00  0.00    -0.377 OA
ATOM      4  O   UNL     1      -5.710 -12.564  11.889  0.00  0.00    -0.253 OA
ATOM      7  N   UNL     1      -3.619 -12.524  10.947  0.00  0.00    -0.297 N 
ATOM      8  N   UNL     1      -5.301 -11.053  10.177  0.00  0.00    -0.281 N 
ATOM     16  C   UNL     1      -4.931 -12.078  11.062  0.00  0.00    +0.302 C 
ATOM     18  C   UNL     1      -6.668 -10.528  10.225  0.00  0.00    +0.137 C 
ATOM     19  C   UNL     1      -4.490 -10.527   9.070  0.00  0.00    +0.137 C 
ATOM     20  C   UNL     1      -6.675  -9.012  10.106  0.00  0.00    +0.179 C 
ATOM     21  C   UNL     1      -4.610  -9.010   8.983  0.00  0.00    +0.179 C 
ATOM     31  H   UNL     1      -2.986 -12.140  10.260  0.00  0.00    +0.150 HD
ENDBRANCH  14   7
ENDBRANCH  12  14
TORSDOF 7
ENDMDL
MODEL 9
REMARK VINA RESULT:      -6.6     25.901     29.659
REMARK  Name = 75536754
REMARK  8 active torsions:
REMARK  status: ('A' for Active; 'I' for Inactive)
REMARK    1  A    between atoms: O_2  and  C_11
REMARK    2  A    between atoms: N_6  and  C_10
REMARK    3  A    between atoms: N_6  and  C_15
REMARK    4  A    between atoms: N_7  and  C_14
REMARK    5  A    between atoms: N_9  and  C_26
REMARK    6  A    between atoms: C_12  and  C_14
REMARK    7  A    between atoms: C_15  and  C_17
REMARK    8  A    between atoms: C_27  and  C_28
REMARK                            x       y       z     vdW  Elec       q    Type
REMARK                         _______ _______ _______ _____ _____    ______ ____
ROOT
ATOM      1  O   UNL     1     -13.700  10.543  33.259  0.00  0.00    -0.371 OA
ATOM     10  C   UNL     1     -13.885   8.242  32.703  0.00  0.00    +0.111 C 
ATOM     11  C   UNL     1     -12.705   8.837  31.957  0.00  0.00    +0.164 C 
ATOM     12  C   UNL     1     -12.422  10.075  32.797  0.00  0.00    +0.165 C 
ATOM     13  C   UNL     1     -14.664   9.491  33.082  0.00  0.00    +0.181 C 
ENDROOT
BRANCH  11   2
ATOM      2  O   UNL     1     -11.592   7.966  31.909  0.00  0.00    -0.388 OA
ATOM     30  H   UNL     1     -11.685   7.312  32.622  0.00  0.00    +0.210 HD
ENDBRANCH  11   2
BRANCH  10   6
ATOM      6  N   UNL     1     -14.665   7.306  31.909  0.00  0.00    -0.305 NA
ATOM     29  H   UNL     1     -14.121   7.030  31.091  0.00  0.00    +0.123 HD
BRANCH   6  15
ATOM     15  C   UNL     1     -15.000   6.115  32.679  0.00  0.00    +0.116 C 
BRANCH  15  17
ATOM     17  C   UNL     1     -14.571   4.855  31.976  0.00  0.00    -0.033 A 
ATOM     22  C   UNL     1     -13.515   4.099  32.484  0.00  0.00    +0.007 A 
ATOM     23  C   UNL     1     -15.229   4.443  30.817  0.00  0.00    +0.007 A 
ATOM     24  C   UNL     1     -13.116   2.931  31.832  0.00  0.00    +0.023 A 
ATOM     25  C   UNL     1     -14.831   3.275  30.166  0.00  0.00    +0.023 A 
ATOM     26  C   UNL     1     -13.775   2.519  30.674  0.00  0.00    +0.033 A 
BRANCH  26   9
ATOM      5  O   UNL     1     -14.755  -0.313  30.965  0.00  0.00    -0.276 OA
ATOM      9  N   UNL     1     -13.377   1.352  30.021  0.00  0.00    -0.286 N 
ATOM     27  C   UNL     1     -13.870   0.051  30.198  0.00  0.00    +0.214 C 
ATOM     28  C   UNL     1     -13.173  -0.937  29.297  0.00  0.00    +0.109 C 
ATOM     32  H   UNL     1     -12.636   1.469  29.333  0.00  0.00    +0.155 HD
ENDBRANCH  26   9
ENDBRANCH  15  17
ENDBRANCH   6  15
ENDBRANCH  10   6
BRANCH  12  14
ATOM     14  C   UNL     1     -11.718  11.178  32.026  0.00  0.00    +0.140 C 
BRANCH  14   7
ATOM      3  O   UNL     1     -11.338  10.656  25.641  0.00  0.00    -0.377 OA
ATOM      4  O   UNL     1     -13.303  12.168  29.922  0.00  0.00    -0.253 OA
ATOM      7  N   UNL     1     -11.574  10.836  30.629  0.00  0.00    -0.297 N 
ATOM      8  N   UNL     1     -12.140  10.938  28.336  0.00  0.00    -0.281 N 
ATOM     16  C   UNL     1     -12.400  11.371  29.647  0.00  0.00    +0.302 C 
ATOM     18  C   UNL     1     -12.967  11.446  27.239  0.00  0.00    +0.137 C 
ATOM     19  C   UNL     1     -11.192   9.886  27.942  0.00  0.00    +0.137 C 
ATOM     20  C   UNL     1     -12.116  11.790  26.027  0.00  0.00    +0.179 C 
ATOM     21  C   UNL     1     -10.433  10.284  26.682  0.00  0.00    +0.179 C 
ATOM     31  H   UNL     1     -10.847  10.172  30.407  0.00  0.00    +0.150 HD
ENDBRANCH  14   7
ENDBRANCH  12  14
TORSDOF 7
ENDMDL
MODEL 10
REMARK VINA RESULT:      -6.6     24.397     26.475
REMARK  Name = 75536754
REMARK  8 active torsions:
REMARK  status: ('A' for Active; 'I' for Inactive)
REMARK    1  A    between atoms: O_2  and  C_11
REMARK    2  A    between atoms: N_6  and  C_10
REMARK    3  A    between atoms: N_6  and  C_15
REMARK    4  A    between atoms: N_7  and  C_14
REMARK    5  A    between atoms: N_9  and  C_26
REMARK    6  A    between atoms: C_12  and  C_14
REMARK    7  A    between atoms: C_15  and  C_17
REMARK    8  A    between atoms: C_27  and  C_28
REMARK                            x       y       z     vdW  Elec       q    Type
REMARK                         _______ _______ _______ _____ _____    ______ ____
ROOT
ATOM      1  O   UNL     1      -9.839   9.838  18.591  0.00  0.00    -0.371 OA
ATOM     10  C   UNL     1     -11.230   7.915  18.542  0.00  0.00    +0.111 C 
ATOM     11  C   UNL     1     -11.362   8.654  17.223  0.00  0.00    +0.164 C 
ATOM     12  C   UNL     1     -10.082   9.479  17.221  0.00  0.00    +0.165 C 
ATOM     13  C   UNL     1     -10.641   8.994  19.435  0.00  0.00    +0.181 C 
ENDROOT
BRANCH  11   2
ATOM      2  O   UNL     1     -11.428   7.782  16.112  0.00  0.00    -0.388 OA
ATOM     30  H   UNL     1     -10.702   7.141  16.183  0.00  0.00    +0.210 HD
ENDBRANCH  11   2
BRANCH  10   6
ATOM      6  N   UNL     1     -12.489   7.389  19.044  0.00  0.00    -0.305 NA
ATOM     29  H   UNL     1     -12.366   6.406  19.287  0.00  0.00    +0.123 HD
BRANCH   6  15
ATOM     15  C   UNL     1     -12.926   8.116  20.230  0.00  0.00    +0.116 C 
BRANCH  15  17
ATOM     17  C   UNL     1     -13.464   7.191  21.288  0.00  0.00    -0.033 A 
ATOM     22  C   UNL     1     -12.815   5.986  21.556  0.00  0.00    +0.007 A 
ATOM     23  C   UNL     1     -14.612   7.537  22.001  0.00  0.00    +0.007 A 
ATOM     24  C   UNL     1     -13.313   5.127  22.536  0.00  0.00    +0.023 A 
ATOM     25  C   UNL     1     -15.110   6.679  22.981  0.00  0.00    +0.023 A 
ATOM     26  C   UNL     1     -14.461   5.474  23.249  0.00  0.00    +0.033 A 
BRANCH  26   9
ATOM      5  O   UNL     1     -16.160   3.001  22.998  0.00  0.00    -0.276 OA
ATOM      9  N   UNL     1     -14.961   4.616  24.229  0.00  0.00    -0.286 N 
ATOM     27  C   UNL     1     -15.753   3.473  24.055  0.00  0.00    +0.214 C 
ATOM     28  C   UNL     1     -16.084   2.817  25.372  0.00  0.00    +0.109 C 
ATOM     32  H   UNL     1     -14.713   4.858  25.186  0.00  0.00    +0.155 HD
ENDBRANCH  26   9
ENDBRANCH  15  17
ENDBRANCH   6  15
ENDBRANCH  10   6
BRANCH  12  14
ATOM     14  C   UNL     1     -10.177  10.734  16.370  0.00  0.00    +0.140 C 
BRANCH  14   7
ATOM      3  O   UNL     1     -13.184  10.505  10.705  0.00  0.00    -0.377 OA
ATOM      4  O   UNL     1     -12.620  11.784  15.451  0.00  0.00    -0.253 OA
ATOM      7  N   UNL     1     -10.784  10.458  15.088  0.00  0.00    -0.297 N 
ATOM      8  N   UNL     1     -12.461  10.651  13.434  0.00  0.00    -0.281 N 
ATOM     16  C   UNL     1     -11.998  11.019  14.707  0.00  0.00    +0.302 C 
ATOM     18  C   UNL     1     -13.737  11.190  12.955  0.00  0.00    +0.137 C 
ATOM     19  C   UNL     1     -11.865   9.636  12.553  0.00  0.00    +0.137 C 
ATOM     20  C   UNL     1     -13.640  11.604  11.495  0.00  0.00    +0.179 C 
ATOM     21  C   UNL     1     -11.872  10.106  11.103  0.00  0.00    +0.179 C 
ATOM     31  H   UNL     1     -10.283   9.819  14.488  0.00  0.00    +0.150 HD
ENDBRANCH  14   7
ENDBRANCH  12  14
TORSDOF 7
ENDMDL
