MODEL 1
REMARK VINA RESULT:      -7.5      0.000      0.000
REMARK  Name = 51136895
REMARK  9 active torsions:
REMARK  status: ('A' for Active; 'I' for Inactive)
REMARK    1  A    between atoms: O_3  and  C_27
REMARK    2  A    between atoms: O_3  and  C_30
REMARK    3  A    between atoms: N_4  and  C_13
REMARK    4  A    between atoms: N_8  and  C_22
REMARK    5  A    between atoms: C_9  and  C_14
REMARK    6  A    between atoms: C_13  and  C_15
REMARK    7  A    between atoms: C_13  and  C_16
REMARK    8  A    between atoms: C_17  and  C_18
REMARK    9  A    between atoms: C_23  and  C_24
REMARK                            x       y       z     vdW  Elec       q    Type
REMARK                         _______ _______ _______ _____ _____    ______ ____
ROOT
ATOM      7  N   UNL     1      19.264   5.191  19.747  0.00  0.00    -0.239 NA
ATOM     18  C   UNL     1      17.463   6.675  20.376  0.00  0.00    +0.041 A 
ATOM     19  C   UNL     1      18.250   7.214  21.388  0.00  0.00    +0.016 A 
ATOM     20  C   UNL     1      18.012   5.675  19.590  0.00  0.00    +0.124 A 
ATOM     21  C   UNL     1      19.543   6.742  21.580  0.00  0.00    +0.044 A 
ATOM     22  C   UNL     1      19.999   5.738  20.740  0.00  0.00    +0.125 A 
ENDROOT
BRANCH  18  17
ATOM      1  O   UNL     1      14.382   8.376  20.095  0.00  0.00    -0.336 OA
ATOM      5  N   UNL     1      15.175   6.344  19.583  0.00  0.00    -0.190 NA
ATOM      6  N   UNL     1      15.727   8.372  20.487  0.00  0.00    -0.056 NA
ATOM     14  C   UNL     1      14.139   7.145  19.573  0.00  0.00    +0.245 A 
ATOM     17  C   UNL     1      16.125   7.140  20.153  0.00  0.00    +0.204 A 
BRANCH  14   9
ATOM      4  N   UNL     1      11.623   7.259  19.970  0.00  0.00    -0.289 NA
ATOM      9  C   UNL     1      12.726   6.891  19.065  0.00  0.00    +0.146 C 
ATOM     10  C   UNL     1      12.355   7.674  17.799  0.00  0.00    +0.030 C 
ATOM     11  C   UNL     1      11.340   8.674  19.770  0.00  0.00    +0.085 C 
ATOM     12  C   UNL     1      11.525   8.868  18.272  0.00  0.00    +0.017 C 
BRANCH   4  13
ATOM     13  C   UNL     1      11.771   6.883  21.364  0.00  0.00    +0.051 C 
ATOM     15  C   UNL     1      11.096   5.539  21.624  0.00  0.00    +0.024 C 
ATOM     16  C   UNL     1      11.177   7.975  22.248  0.00  0.00    +0.024 C 
ENDBRANCH   4  13
ENDBRANCH  14   9
ENDBRANCH  18  17
BRANCH  22   8
ATOM      2  O   UNL     1      21.037   2.937  21.000  0.00  0.00    -0.270 OA
ATOM      8  N   UNL     1      21.303   5.271  20.943  0.00  0.00    -0.266 N 
ATOM     23  C   UNL     1      21.733   3.946  21.056  0.00  0.00    +0.249 C 
ATOM     31  H   UNL     1      21.990   6.019  20.964  0.00  0.00    +0.157 HD
BRANCH  23  24
ATOM     24  C   UNL     1      23.197   3.767  21.240  0.00  0.00    +0.037 A 
ATOM     25  C   UNL     1      23.936   4.728  21.930  0.00  0.00    +0.016 A 
ATOM     26  C   UNL     1      23.833   2.638  20.723  0.00  0.00    +0.016 A 
ATOM     27  C   UNL     1      25.945   3.432  21.586  0.00  0.00    +0.120 A 
ATOM     28  C   UNL     1      25.310   4.561  22.103  0.00  0.00    +0.046 A 
ATOM     29  C   UNL     1      25.207   2.470  20.896  0.00  0.00    +0.046 A 
BRANCH  27   3
ATOM      3  O   UNL     1      27.286   3.268  21.753  0.00  0.00    -0.495 OA
ATOM     30  C   UNL     1      27.709   2.456  22.847  0.00  0.00    +0.277 C 
ENDBRANCH  27   3
ENDBRANCH  23  24
ENDBRANCH  22   8
TORSDOF 6
ENDMDL
MODEL 2
REMARK VINA RESULT:      -7.3      2.059     11.243
REMARK  Name = 51136895
REMARK  9 active torsions:
REMARK  status: ('A' for Active; 'I' for Inactive)
REMARK    1  A    between atoms: O_3  and  C_27
REMARK    2  A    between atoms: O_3  and  C_30
REMARK    3  A    between atoms: N_4  and  C_13
REMARK    4  A    between atoms: N_8  and  C_22
REMARK    5  A    between atoms: C_9  and  C_14
REMARK    6  A    between atoms: C_13  and  C_15
REMARK    7  A    between atoms: C_13  and  C_16
REMARK    8  A    between atoms: C_17  and  C_18
REMARK    9  A    between atoms: C_23  and  C_24
REMARK                            x       y       z     vdW  Elec       q    Type
REMARK                         _______ _______ _______ _____ _____    ______ ____
ROOT
ATOM      7  N   UNL     1      18.142   7.323  21.100  0.00  0.00    -0.239 NA
ATOM     18  C   UNL     1      20.039   5.824  21.115  0.00  0.00    +0.041 A 
ATOM     19  C   UNL     1      19.492   5.109  20.056  0.00  0.00    +0.016 A 
ATOM     20  C   UNL     1      19.331   6.913  21.597  0.00  0.00    +0.124 A 
ATOM     21  C   UNL     1      18.271   5.500  19.518  0.00  0.00    +0.044 A 
ATOM     22  C   UNL     1      17.642   6.604  20.071  0.00  0.00    +0.125 A 
ENDROOT
BRANCH  18  17
ATOM      1  O   UNL     1      22.813   4.918  23.102  0.00  0.00    -0.336 OA
ATOM      5  N   UNL     1      22.405   5.241  20.923  0.00  0.00    -0.190 NA
ATOM      6  N   UNL     1      21.461   5.272  23.007  0.00  0.00    -0.056 NA
ATOM     14  C   UNL     1      23.294   4.924  21.831  0.00  0.00    +0.245 A 
ATOM     17  C   UNL     1      21.296   5.445  21.692  0.00  0.00    +0.204 A 
BRANCH  14   9
ATOM      4  N   UNL     1      25.072   3.154  21.380  0.00  0.00    -0.289 NA
ATOM      9  C   UNL     1      24.764   4.567  21.659  0.00  0.00    +0.146 C 
ATOM     10  C   UNL     1      25.455   5.267  20.482  0.00  0.00    +0.030 C 
ATOM     11  C   UNL     1      24.951   2.950  19.943  0.00  0.00    +0.085 C 
ATOM     12  C   UNL     1      25.501   4.240  19.351  0.00  0.00    +0.017 C 
BRANCH   4  13
ATOM     13  C   UNL     1      24.365   2.164  22.172  0.00  0.00    +0.051 C 
ATOM     15  C   UNL     1      24.965   2.082  23.574  0.00  0.00    +0.024 C 
ATOM     16  C   UNL     1      24.429   0.812  21.469  0.00  0.00    +0.024 C 
ENDBRANCH   4  13
ENDBRANCH  14   9
ENDBRANCH  18  17
BRANCH  22   8
ATOM      2  O   UNL     1      14.867   6.397  21.189  0.00  0.00    -0.270 OA
ATOM      8  N   UNL     1      16.413   6.988  19.521  0.00  0.00    -0.266 N 
ATOM     23  C   UNL     1      15.143   6.868  20.091  0.00  0.00    +0.249 C 
ATOM     31  H   UNL     1      16.512   7.439  18.616  0.00  0.00    +0.157 HD
BRANCH  23  24
ATOM     24  C   UNL     1      14.025   7.398  19.266  0.00  0.00    +0.037 A 
ATOM     25  C   UNL     1      14.240   7.723  17.926  0.00  0.00    +0.016 A 
ATOM     26  C   UNL     1      12.761   7.570  19.831  0.00  0.00    +0.016 A 
ATOM     27  C   UNL     1      11.928   8.392  17.717  0.00  0.00    +0.120 A 
ATOM     28  C   UNL     1      13.192   8.220  17.152  0.00  0.00    +0.046 A 
ATOM     29  C   UNL     1      11.713   8.068  19.056  0.00  0.00    +0.046 A 
BRANCH  27   3
ATOM      3  O   UNL     1      10.905   8.878  16.962  0.00  0.00    -0.495 OA
ATOM     30  C   UNL     1      11.214   9.269  15.625  0.00  0.00    +0.277 C 
ENDBRANCH  27   3
ENDBRANCH  23  24
ENDBRANCH  22   8
TORSDOF 6
ENDMDL
MODEL 3
REMARK VINA RESULT:      -7.2      1.670      2.598
REMARK  Name = 51136895
REMARK  9 active torsions:
REMARK  status: ('A' for Active; 'I' for Inactive)
REMARK    1  A    between atoms: O_3  and  C_27
REMARK    2  A    between atoms: O_3  and  C_30
REMARK    3  A    between atoms: N_4  and  C_13
REMARK    4  A    between atoms: N_8  and  C_22
REMARK    5  A    between atoms: C_9  and  C_14
REMARK    6  A    between atoms: C_13  and  C_15
REMARK    7  A    between atoms: C_13  and  C_16
REMARK    8  A    between atoms: C_17  and  C_18
REMARK    9  A    between atoms: C_23  and  C_24
REMARK                            x       y       z     vdW  Elec       q    Type
REMARK                         _______ _______ _______ _____ _____    ______ ____
ROOT
ATOM      7  N   UNL     1      18.808   5.664  19.894  0.00  0.00    -0.239 NA
ATOM     18  C   UNL     1      17.334   7.276  20.930  0.00  0.00    +0.041 A 
ATOM     19  C   UNL     1      18.405   7.812  21.638  0.00  0.00    +0.016 A 
ATOM     20  C   UNL     1      17.586   6.213  20.079  0.00  0.00    +0.124 A 
ATOM     21  C   UNL     1      19.677   7.275  21.474  0.00  0.00    +0.044 A 
ATOM     22  C   UNL     1      19.824   6.211  20.598  0.00  0.00    +0.125 A 
ENDROOT
BRANCH  18  17
ATOM      1  O   UNL     1      14.014   8.138  21.766  0.00  0.00    -0.336 OA
ATOM      5  N   UNL     1      15.558   8.831  20.297  0.00  0.00    -0.190 NA
ATOM      6  N   UNL     1      15.144   7.339  21.982  0.00  0.00    -0.056 NA
ATOM     14  C   UNL     1      14.343   8.989  20.758  0.00  0.00    +0.245 A 
ATOM     17  C   UNL     1      16.011   7.808  21.078  0.00  0.00    +0.204 A 
BRANCH  14   9
ATOM      4  N   UNL     1      12.298   9.504  19.324  0.00  0.00    -0.289 NA
ATOM      9  C   UNL     1      13.268   9.978  20.327  0.00  0.00    +0.146 C 
ATOM     10  C   UNL     1      12.336  10.437  21.457  0.00  0.00    +0.030 C 
ATOM     11  C   UNL     1      11.236   8.801  20.033  0.00  0.00    +0.085 C 
ATOM     12  C   UNL     1      11.057   9.614  21.306  0.00  0.00    +0.017 C 
BRANCH   4  13
ATOM     13  C   UNL     1      12.835   8.766  18.196  0.00  0.00    +0.051 C 
ATOM     15  C   UNL     1      12.170   9.223  16.900  0.00  0.00    +0.024 C 
ATOM     16  C   UNL     1      12.627   7.272  18.422  0.00  0.00    +0.024 C 
ENDBRANCH   4  13
ENDBRANCH  14   9
ENDBRANCH  18  17
BRANCH  22   8
ATOM      2  O   UNL     1      21.437   4.465  22.427  0.00  0.00    -0.270 OA
ATOM      8  N   UNL     1      21.109   5.679  20.440  0.00  0.00    -0.266 N 
ATOM     23  C   UNL     1      21.816   4.865  21.331  0.00  0.00    +0.249 C 
ATOM     31  H   UNL     1      21.521   5.905  19.540  0.00  0.00    +0.157 HD
BRANCH  23  24
ATOM     24  C   UNL     1      23.160   4.433  20.864  0.00  0.00    +0.037 A 
ATOM     25  C   UNL     1      23.469   3.075  20.791  0.00  0.00    +0.016 A 
ATOM     26  C   UNL     1      24.112   5.386  20.501  0.00  0.00    +0.016 A 
ATOM     27  C   UNL     1      25.682   3.621  19.990  0.00  0.00    +0.120 A 
ATOM     28  C   UNL     1      24.730   2.669  20.354  0.00  0.00    +0.046 A 
ATOM     29  C   UNL     1      25.373   4.980  20.064  0.00  0.00    +0.046 A 
BRANCH  27   3
ATOM      3  O   UNL     1      26.913   3.226  19.564  0.00  0.00    -0.495 OA
ATOM     30  C   UNL     1      27.307   3.630  18.254  0.00  0.00    +0.277 C 
ENDBRANCH  27   3
ENDBRANCH  23  24
ENDBRANCH  22   8
TORSDOF 6
ENDMDL
MODEL 4
REMARK VINA RESULT:      -7.1      7.651     10.289
REMARK  Name = 51136895
REMARK  9 active torsions:
REMARK  status: ('A' for Active; 'I' for Inactive)
REMARK    1  A    between atoms: O_3  and  C_27
REMARK    2  A    between atoms: O_3  and  C_30
REMARK    3  A    between atoms: N_4  and  C_13
REMARK    4  A    between atoms: N_8  and  C_22
REMARK    5  A    between atoms: C_9  and  C_14
REMARK    6  A    between atoms: C_13  and  C_15
REMARK    7  A    between atoms: C_13  and  C_16
REMARK    8  A    between atoms: C_17  and  C_18
REMARK    9  A    between atoms: C_23  and  C_24
REMARK                            x       y       z     vdW  Elec       q    Type
REMARK                         _______ _______ _______ _____ _____    ______ ____
ROOT
ATOM      7  N   UNL     1      15.007   9.058  14.580  0.00  0.00    -0.239 NA
ATOM     18  C   UNL     1      13.962   9.109  16.760  0.00  0.00    +0.041 A 
ATOM     19  C   UNL     1      14.309  10.448  16.903  0.00  0.00    +0.016 A 
ATOM     20  C   UNL     1      14.331   8.465  15.589  0.00  0.00    +0.124 A 
ATOM     21  C   UNL     1      15.004  11.093  15.887  0.00  0.00    +0.044 A 
ATOM     22  C   UNL     1      15.327  10.360  14.755  0.00  0.00    +0.125 A 
ENDROOT
BRANCH  18  17
ATOM      1  O   UNL     1      11.768   7.269  18.824  0.00  0.00    -0.336 OA
ATOM      5  N   UNL     1      13.704   8.368  19.074  0.00  0.00    -0.190 NA
ATOM      6  N   UNL     1      12.090   7.782  17.561  0.00  0.00    -0.056 NA
ATOM     14  C   UNL     1      12.769   7.659  19.656  0.00  0.00    +0.245 A 
ATOM     17  C   UNL     1      13.244   8.416  17.790  0.00  0.00    +0.204 A 
BRANCH  14   9
ATOM      4  N   UNL     1      12.463   8.288  22.108  0.00  0.00    -0.289 NA
ATOM      9  C   UNL     1      12.653   7.221  21.110  0.00  0.00    +0.146 C 
ATOM     10  C   UNL     1      11.453   6.311  21.406  0.00  0.00    +0.030 C 
ATOM     11  C   UNL     1      11.037   8.579  22.179  0.00  0.00    +0.085 C 
ATOM     12  C   UNL     1      10.385   7.213  22.024  0.00  0.00    +0.017 C 
BRANCH   4  13
ATOM     13  C   UNL     1      13.294   9.470  21.965  0.00  0.00    +0.051 C 
ATOM     15  C   UNL     1      14.721   9.169  22.414  0.00  0.00    +0.024 C 
ATOM     16  C   UNL     1      12.693  10.613  22.777  0.00  0.00    +0.024 C 
ENDBRANCH   4  13
ENDBRANCH  14   9
ENDBRANCH  18  17
BRANCH  22   8
ATOM      2  O   UNL     1      14.315  11.900  12.389  0.00  0.00    -0.270 OA
ATOM      8  N   UNL     1      16.027  11.019  13.738  0.00  0.00    -0.266 N 
ATOM     23  C   UNL     1      15.501  11.727  12.653  0.00  0.00    +0.249 C 
ATOM     31  H   UNL     1      17.034  10.987  13.869  0.00  0.00    +0.157 HD
BRANCH  23  24
ATOM     24  C   UNL     1      16.507  12.346  11.751  0.00  0.00    +0.037 A 
ATOM     25  C   UNL     1      16.164  12.663  10.437  0.00  0.00    +0.016 A 
ATOM     26  C   UNL     1      17.795  12.610  12.219  0.00  0.00    +0.016 A 
ATOM     27  C   UNL     1      18.396  13.507  10.058  0.00  0.00    +0.120 A 
ATOM     28  C   UNL     1      17.109  13.243   9.590  0.00  0.00    +0.046 A 
ATOM     29  C   UNL     1      18.739  13.190  11.372  0.00  0.00    +0.046 A 
BRANCH  27   3
ATOM      3  O   UNL     1      19.317  14.073   9.232  0.00  0.00    -0.495 OA
ATOM     30  C   UNL     1      20.365  13.231   8.753  0.00  0.00    +0.277 C 
ENDBRANCH  27   3
ENDBRANCH  23  24
ENDBRANCH  22   8
TORSDOF 6
ENDMDL
MODEL 5
REMARK VINA RESULT:      -7.0      2.252      2.676
REMARK  Name = 51136895
REMARK  9 active torsions:
REMARK  status: ('A' for Active; 'I' for Inactive)
REMARK    1  A    between atoms: O_3  and  C_27
REMARK    2  A    between atoms: O_3  and  C_30
REMARK    3  A    between atoms: N_4  and  C_13
REMARK    4  A    between atoms: N_8  and  C_22
REMARK    5  A    between atoms: C_9  and  C_14
REMARK    6  A    between atoms: C_13  and  C_15
REMARK    7  A    between atoms: C_13  and  C_16
REMARK    8  A    between atoms: C_17  and  C_18
REMARK    9  A    between atoms: C_23  and  C_24
REMARK                            x       y       z     vdW  Elec       q    Type
REMARK                         _______ _______ _______ _____ _____    ______ ____
ROOT
ATOM      7  N   UNL     1      18.055   5.421  19.120  0.00  0.00    -0.239 NA
ATOM     18  C   UNL     1      16.407   6.959  19.996  0.00  0.00    +0.041 A 
ATOM     19  C   UNL     1      17.220   7.216  21.095  0.00  0.00    +0.016 A 
ATOM     20  C   UNL     1      16.866   6.061  19.045  0.00  0.00    +0.124 A 
ATOM     21  C   UNL     1      18.450   6.576  21.207  0.00  0.00    +0.044 A 
ATOM     22  C   UNL     1      18.817   5.696  20.202  0.00  0.00    +0.125 A 
ENDROOT
BRANCH  18  17
ATOM      1  O   UNL     1      13.040   7.936  19.585  0.00  0.00    -0.336 OA
ATOM      5  N   UNL     1      15.009   8.960  19.890  0.00  0.00    -0.190 NA
ATOM      6  N   UNL     1      13.999   6.918  19.673  0.00  0.00    -0.056 NA
ATOM     14  C   UNL     1      13.718   9.105  19.723  0.00  0.00    +0.245 A 
ATOM     17  C   UNL     1      15.134   7.602  19.852  0.00  0.00    +0.204 A 
BRANCH  14   9
ATOM      4  N   UNL     1      12.774  11.153  20.913  0.00  0.00    -0.289 NA
ATOM      9  C   UNL     1      12.889  10.381  19.664  0.00  0.00    +0.146 C 
ATOM     10  C   UNL     1      13.428  11.445  18.698  0.00  0.00    +0.030 C 
ATOM     11  C   UNL     1      13.939  12.024  21.004  0.00  0.00    +0.085 C 
ATOM     12  C   UNL     1      14.172  12.461  19.565  0.00  0.00    +0.017 C 
BRANCH   4  13
ATOM     13  C   UNL     1      12.515  10.396  22.124  0.00  0.00    +0.051 C 
ATOM     15  C   UNL     1      11.082   9.870  22.122  0.00  0.00    +0.024 C 
ATOM     16  C   UNL     1      12.772  11.282  23.339  0.00  0.00    +0.024 C 
ENDBRANCH   4  13
ENDBRANCH  14   9
ENDBRANCH  18  17
BRANCH  22   8
ATOM      2  O   UNL     1      21.580   6.848  20.383  0.00  0.00    -0.270 OA
ATOM      8  N   UNL     1      20.057   5.058  20.325  0.00  0.00    -0.266 N 
ATOM     23  C   UNL     1      21.322   5.649  20.407  0.00  0.00    +0.249 C 
ATOM     31  H   UNL     1      19.975   4.049  20.400  0.00  0.00    +0.157 HD
BRANCH  23  24
ATOM     24  C   UNL     1      22.456   4.701  20.562  0.00  0.00    +0.037 A 
ATOM     25  C   UNL     1      23.756   5.115  20.271  0.00  0.00    +0.016 A 
ATOM     26  C   UNL     1      22.221   3.397  20.999  0.00  0.00    +0.016 A 
ATOM     27  C   UNL     1      24.586   2.922  20.854  0.00  0.00    +0.120 A 
ATOM     28  C   UNL     1      24.821   4.225  20.416  0.00  0.00    +0.046 A 
ATOM     29  C   UNL     1      23.286   2.507  21.145  0.00  0.00    +0.046 A 
BRANCH  27   3
ATOM      3  O   UNL     1      25.624   2.053  20.995  0.00  0.00    -0.495 OA
ATOM     30  C   UNL     1      25.549   1.122  22.073  0.00  0.00    +0.277 C 
ENDBRANCH  27   3
ENDBRANCH  23  24
ENDBRANCH  22   8
TORSDOF 6
ENDMDL
MODEL 6
REMARK VINA RESULT:      -6.7     26.669     32.260
REMARK  Name = 51136895
REMARK  9 active torsions:
REMARK  status: ('A' for Active; 'I' for Inactive)
REMARK    1  A    between atoms: O_3  and  C_27
REMARK    2  A    between atoms: O_3  and  C_30
REMARK    3  A    between atoms: N_4  and  C_13
REMARK    4  A    between atoms: N_8  and  C_22
REMARK    5  A    between atoms: C_9  and  C_14
REMARK    6  A    between atoms: C_13  and  C_15
REMARK    7  A    between atoms: C_13  and  C_16
REMARK    8  A    between atoms: C_17  and  C_18
REMARK    9  A    between atoms: C_23  and  C_24
REMARK                            x       y       z     vdW  Elec       q    Type
REMARK                         _______ _______ _______ _____ _____    ______ ____
ROOT
ATOM      7  N   UNL     1      -5.771  -8.279   9.206  0.00  0.00    -0.239 NA
ATOM     18  C   UNL     1      -4.091  -9.877   9.894  0.00  0.00    +0.041 A 
ATOM     19  C   UNL     1      -4.304 -10.612   8.733  0.00  0.00    +0.016 A 
ATOM     20  C   UNL     1      -4.844  -8.729  10.082  0.00  0.00    +0.124 A 
ATOM     21  C   UNL     1      -5.249 -10.182   7.808  0.00  0.00    +0.044 A 
ATOM     22  C   UNL     1      -5.950  -9.020   8.090  0.00  0.00    +0.125 A 
ENDROOT
BRANCH  18  17
ATOM      1  O   UNL     1      -1.369 -10.388  12.083  0.00  0.00    -0.336 OA
ATOM      5  N   UNL     1      -3.320 -11.400  11.643  0.00  0.00    -0.190 NA
ATOM      6  N   UNL     1      -1.979  -9.636  11.071  0.00  0.00    -0.056 NA
ATOM     14  C   UNL     1      -2.224 -11.407  12.361  0.00  0.00    +0.245 A 
ATOM     17  C   UNL     1      -3.124 -10.295  10.866  0.00  0.00    +0.204 A 
BRANCH  14   9
ATOM      4  N   UNL     1      -2.375 -12.193  14.781  0.00  0.00    -0.289 NA
ATOM      9  C   UNL     1      -1.787 -12.383  13.444  0.00  0.00    +0.146 C 
ATOM     10  C   UNL     1      -2.143 -13.849  13.162  0.00  0.00    +0.030 C 
ATOM     11  C   UNL     1      -3.657 -12.887  14.804  0.00  0.00    +0.085 C 
ATOM     12  C   UNL     1      -3.398 -14.142  13.984  0.00  0.00    +0.017 C 
BRANCH   4  13
ATOM     13  C   UNL     1      -2.440 -10.830  15.277  0.00  0.00    +0.051 C 
ATOM     15  C   UNL     1      -1.061 -10.372  15.744  0.00  0.00    +0.024 C 
ATOM     16  C   UNL     1      -3.457 -10.751  16.411  0.00  0.00    +0.024 C 
ENDBRANCH   4  13
ENDBRANCH  14   9
ENDBRANCH  18  17
BRANCH  22   8
ATOM      2  O   UNL     1      -8.942  -9.225   8.129  0.00  0.00    -0.270 OA
ATOM      8  N   UNL     1      -6.899  -8.596   7.151  0.00  0.00    -0.266 N 
ATOM     23  C   UNL     1      -8.290  -8.717   7.223  0.00  0.00    +0.249 C 
ATOM     31  H   UNL     1      -6.482  -8.113   6.361  0.00  0.00    +0.157 HD
BRANCH  23  24
ATOM     24  C   UNL     1      -9.036  -8.140   6.074  0.00  0.00    +0.037 A 
ATOM     25  C   UNL     1     -10.308  -7.601   6.269  0.00  0.00    +0.016 A 
ATOM     26  C   UNL     1      -8.465  -8.136   4.801  0.00  0.00    +0.016 A 
ATOM     27  C   UNL     1     -10.438  -7.056   3.919  0.00  0.00    +0.120 A 
ATOM     28  C   UNL     1     -11.009  -7.060   5.191  0.00  0.00    +0.046 A 
ATOM     29  C   UNL     1      -9.166  -7.595   3.724  0.00  0.00    +0.046 A 
BRANCH  27   3
ATOM      3  O   UNL     1     -11.122  -6.529   2.867  0.00  0.00    -0.495 OA
ATOM     30  C   UNL     1     -10.353  -5.901   1.842  0.00  0.00    +0.277 C 
ENDBRANCH  27   3
ENDBRANCH  23  24
ENDBRANCH  22   8
TORSDOF 6
ENDMDL
MODEL 7
REMARK VINA RESULT:      -6.6     27.839     32.393
REMARK  Name = 51136895
REMARK  9 active torsions:
REMARK  status: ('A' for Active; 'I' for Inactive)
REMARK    1  A    between atoms: O_3  and  C_27
REMARK    2  A    between atoms: O_3  and  C_30
REMARK    3  A    between atoms: N_4  and  C_13
REMARK    4  A    between atoms: N_8  and  C_22
REMARK    5  A    between atoms: C_9  and  C_14
REMARK    6  A    between atoms: C_13  and  C_15
REMARK    7  A    between atoms: C_13  and  C_16
REMARK    8  A    between atoms: C_17  and  C_18
REMARK    9  A    between atoms: C_23  and  C_24
REMARK                            x       y       z     vdW  Elec       q    Type
REMARK                         _______ _______ _______ _____ _____    ______ ____
ROOT
ATOM      7  N   UNL     1      -7.307 -11.515  18.066  0.00  0.00    -0.239 NA
ATOM     18  C   UNL     1      -5.491 -10.642  16.729  0.00  0.00    +0.041 A 
ATOM     19  C   UNL     1      -6.199  -9.463  16.523  0.00  0.00    +0.016 A 
ATOM     20  C   UNL     1      -6.084 -11.629  17.501  0.00  0.00    +0.124 A 
ATOM     21  C   UNL     1      -7.459  -9.309  17.089  0.00  0.00    +0.044 A 
ATOM     22  C   UNL     1      -7.964 -10.355  17.844  0.00  0.00    +0.125 A 
ENDROOT
BRANCH  18  17
ATOM      1  O   UNL     1      -2.073 -11.047  15.940  0.00  0.00    -0.336 OA
ATOM      5  N   UNL     1      -4.013 -11.019  14.819  0.00  0.00    -0.190 NA
ATOM      6  N   UNL     1      -3.074 -10.835  16.898  0.00  0.00    -0.056 NA
ATOM     14  C   UNL     1      -2.712 -11.144  14.744  0.00  0.00    +0.245 A 
ATOM     17  C   UNL     1      -4.189 -10.832  16.159  0.00  0.00    +0.204 A 
BRANCH  14   9
ATOM      4  N   UNL     1      -1.976 -12.679  12.846  0.00  0.00    -0.289 NA
ATOM      9  C   UNL     1      -1.832 -11.378  13.524  0.00  0.00    +0.146 C 
ATOM     10  C   UNL     1      -2.080 -10.403  12.364  0.00  0.00    +0.030 C 
ATOM     11  C   UNL     1      -3.087 -12.570  11.910  0.00  0.00    +0.085 C 
ATOM     12  C   UNL     1      -2.956 -11.155  11.363  0.00  0.00    +0.017 C 
BRANCH   4  13
ATOM     13  C   UNL     1      -2.043 -13.853  13.697  0.00  0.00    +0.051 C 
ATOM     15  C   UNL     1      -0.926 -14.829  13.339  0.00  0.00    +0.024 C 
ATOM     16  C   UNL     1      -3.412 -14.508  13.550  0.00  0.00    +0.024 C 
ENDBRANCH   4  13
ENDBRANCH  14   9
ENDBRANCH  18  17
BRANCH  22   8
ATOM      2  O   UNL     1     -10.648 -10.086  16.534  0.00  0.00    -0.270 OA
ATOM      8  N   UNL     1      -9.234 -10.188  18.409  0.00  0.00    -0.266 N 
ATOM     23  C   UNL     1     -10.459 -10.068  17.746  0.00  0.00    +0.249 C 
ATOM     31  H   UNL     1      -9.218 -10.201  19.424  0.00  0.00    +0.157 HD
BRANCH  23  24
ATOM     24  C   UNL     1     -11.648  -9.930  18.628  0.00  0.00    +0.037 A 
ATOM     25  C   UNL     1     -12.902  -9.677  18.074  0.00  0.00    +0.016 A 
ATOM     26  C   UNL     1     -11.508 -10.053  20.011  0.00  0.00    +0.016 A 
ATOM     27  C   UNL     1     -13.878  -9.669  20.284  0.00  0.00    +0.120 A 
ATOM     28  C   UNL     1     -14.018  -9.547  18.902  0.00  0.00    +0.046 A 
ATOM     29  C   UNL     1     -12.623  -9.922  20.839  0.00  0.00    +0.046 A 
BRANCH  27   3
ATOM      3  O   UNL     1     -14.965  -9.542  21.092  0.00  0.00    -0.495 OA
ATOM     30  C   UNL     1     -15.721  -8.336  20.979  0.00  0.00    +0.277 C 
ENDBRANCH  27   3
ENDBRANCH  23  24
ENDBRANCH  22   8
TORSDOF 6
ENDMDL
MODEL 8
REMARK VINA RESULT:      -6.3     30.278     34.281
REMARK  Name = 51136895
REMARK  9 active torsions:
REMARK  status: ('A' for Active; 'I' for Inactive)
REMARK    1  A    between atoms: O_3  and  C_27
REMARK    2  A    between atoms: O_3  and  C_30
REMARK    3  A    between atoms: N_4  and  C_13
REMARK    4  A    between atoms: N_8  and  C_22
REMARK    5  A    between atoms: C_9  and  C_14
REMARK    6  A    between atoms: C_13  and  C_15
REMARK    7  A    between atoms: C_13  and  C_16
REMARK    8  A    between atoms: C_17  and  C_18
REMARK    9  A    between atoms: C_23  and  C_24
REMARK                            x       y       z     vdW  Elec       q    Type
REMARK                         _______ _______ _______ _____ _____    ______ ____
ROOT
ATOM      7  N   UNL     1     -10.520  -6.744  15.710  0.00  0.00    -0.239 NA
ATOM     18  C   UNL     1     -10.723  -8.584  17.264  0.00  0.00    +0.041 A 
ATOM     19  C   UNL     1     -12.087  -8.663  17.005  0.00  0.00    +0.016 A 
ATOM     20  C   UNL     1      -9.991  -7.616  16.597  0.00  0.00    +0.124 A 
ATOM     21  C   UNL     1     -12.668  -7.783  16.099  0.00  0.00    +0.044 A 
ATOM     22  C   UNL     1     -11.848  -6.850  15.484  0.00  0.00    +0.125 A 
ENDROOT
BRANCH  18  17
ATOM      1  O   UNL     1      -9.735 -10.733  19.885  0.00  0.00    -0.336 OA
ATOM      5  N   UNL     1      -8.830  -9.946  17.993  0.00  0.00    -0.190 NA
ATOM      6  N   UNL     1     -10.703  -9.903  19.305  0.00  0.00    -0.056 NA
ATOM     14  C   UNL     1      -8.664 -10.702  19.049  0.00  0.00    +0.245 A 
ATOM     17  C   UNL     1     -10.095  -9.478  18.193  0.00  0.00    +0.204 A 
BRANCH  14   9
ATOM      4  N   UNL     1      -6.963 -12.513  18.476  0.00  0.00    -0.289 NA
ATOM      9  C   UNL     1      -7.458 -11.536  19.461  0.00  0.00    +0.146 C 
ATOM     10  C   UNL     1      -6.189 -10.721  19.746  0.00  0.00    +0.030 C 
ATOM     11  C   UNL     1      -6.055 -11.813  17.576  0.00  0.00    +0.085 C 
ATOM     12  C   UNL     1      -5.323 -10.842  18.491  0.00  0.00    +0.017 C 
BRANCH   4  13
ATOM     13  C   UNL     1      -7.963 -13.312  17.791  0.00  0.00    +0.051 C 
ATOM     15  C   UNL     1      -8.746 -14.152  18.797  0.00  0.00    +0.024 C 
ATOM     16  C   UNL     1      -7.281 -14.195  16.751  0.00  0.00    +0.024 C 
ENDBRANCH   4  13
ENDBRANCH  14   9
ENDBRANCH  18  17
BRANCH  22   8
ATOM      2  O   UNL     1     -12.295  -7.123  12.531  0.00  0.00    -0.270 OA
ATOM      8  N   UNL     1     -12.444  -5.969  14.573  0.00  0.00    -0.266 N 
ATOM     23  C   UNL     1     -12.628  -6.149  13.199  0.00  0.00    +0.249 C 
ATOM     31  H   UNL     1     -12.807  -5.131  15.017  0.00  0.00    +0.157 HD
BRANCH  23  24
ATOM     24  C   UNL     1     -13.325  -5.037  12.501  0.00  0.00    +0.037 A 
ATOM     25  C   UNL     1     -14.231  -4.237  13.197  0.00  0.00    +0.016 A 
ATOM     26  C   UNL     1     -13.073  -4.794  11.151  0.00  0.00    +0.016 A 
ATOM     27  C   UNL     1     -14.634  -2.950  11.192  0.00  0.00    +0.120 A 
ATOM     28  C   UNL     1     -14.886  -3.194  12.542  0.00  0.00    +0.046 A 
ATOM     29  C   UNL     1     -13.728  -3.750  10.496  0.00  0.00    +0.046 A 
BRANCH  27   3
ATOM      3  O   UNL     1     -15.273  -1.933  10.553  0.00  0.00    -0.495 OA
ATOM     30  C   UNL     1     -16.305  -2.289   9.633  0.00  0.00    +0.277 C 
ENDBRANCH  27   3
ENDBRANCH  23  24
ENDBRANCH  22   8
TORSDOF 6
ENDMDL
MODEL 9
REMARK VINA RESULT:      -6.2     30.005     34.327
REMARK  Name = 51136895
REMARK  9 active torsions:
REMARK  status: ('A' for Active; 'I' for Inactive)
REMARK    1  A    between atoms: O_3  and  C_27
REMARK    2  A    between atoms: O_3  and  C_30
REMARK    3  A    between atoms: N_4  and  C_13
REMARK    4  A    between atoms: N_8  and  C_22
REMARK    5  A    between atoms: C_9  and  C_14
REMARK    6  A    between atoms: C_13  and  C_15
REMARK    7  A    between atoms: C_13  and  C_16
REMARK    8  A    between atoms: C_17  and  C_18
REMARK    9  A    between atoms: C_23  and  C_24
REMARK                            x       y       z     vdW  Elec       q    Type
REMARK                         _______ _______ _______ _____ _____    ______ ____
ROOT
ATOM      7  N   UNL     1      -6.889  -8.757   5.385  0.00  0.00    -0.239 NA
ATOM     18  C   UNL     1      -7.813  -9.710   3.364  0.00  0.00    +0.041 A 
ATOM     19  C   UNL     1      -7.165 -10.912   3.626  0.00  0.00    +0.016 A 
ATOM     20  C   UNL     1      -7.644  -8.672   4.267  0.00  0.00    +0.124 A 
ATOM     21  C   UNL     1      -6.380 -11.038   4.766  0.00  0.00    +0.044 A 
ATOM     22  C   UNL     1      -6.275  -9.941   5.606  0.00  0.00    +0.125 A 
ENDROOT
BRANCH  18  17
ATOM      1  O   UNL     1     -10.277  -9.628   0.838  0.00  0.00    -0.336 OA
ATOM      5  N   UNL     1      -8.164  -8.922   1.078  0.00  0.00    -0.190 NA
ATOM      6  N   UNL     1      -9.886 -10.000   2.130  0.00  0.00    -0.056 NA
ATOM     14  C   UNL     1      -9.205  -8.999   0.287  0.00  0.00    +0.245 A 
ATOM     17  C   UNL     1      -8.629  -9.549   2.196  0.00  0.00    +0.204 A 
BRANCH  14   9
ATOM      4  N   UNL     1      -8.771  -9.303  -2.207  0.00  0.00    -0.289 NA
ATOM      9  C   UNL     1      -9.376  -8.490  -1.138  0.00  0.00    +0.146 C 
ATOM     10  C   UNL     1     -10.834  -8.402  -1.611  0.00  0.00    +0.030 C 
ATOM     11  C   UNL     1      -9.724 -10.345  -2.564  0.00  0.00    +0.085 C 
ATOM     12  C   UNL     1     -11.072  -9.645  -2.468  0.00  0.00    +0.017 C 
BRANCH   4  13
ATOM     13  C   UNL     1      -7.427  -9.797  -1.968  0.00  0.00    +0.051 C 
ATOM     15  C   UNL     1      -6.396  -8.779  -2.450  0.00  0.00    +0.024 C 
ATOM     16  C   UNL     1      -7.247 -11.137  -2.674  0.00  0.00    +0.024 C 
ENDBRANCH   4  13
ENDBRANCH  14   9
ENDBRANCH  18  17
BRANCH  22   8
ATOM      2  O   UNL     1      -6.814  -9.143   8.446  0.00  0.00    -0.270 OA
ATOM      8  N   UNL     1      -5.482 -10.080   6.751  0.00  0.00    -0.266 N 
ATOM     23  C   UNL     1      -5.785  -9.688   8.058  0.00  0.00    +0.249 C 
ATOM     31  H   UNL     1      -4.608 -10.564   6.568  0.00  0.00    +0.157 HD
BRANCH  23  24
ATOM     24  C   UNL     1      -4.743  -9.998   9.072  0.00  0.00    +0.037 A 
ATOM     25  C   UNL     1      -4.639 -11.288   9.593  0.00  0.00    +0.016 A 
ATOM     26  C   UNL     1      -3.868  -9.000   9.502  0.00  0.00    +0.016 A 
ATOM     27  C   UNL     1      -2.787 -10.582  10.974  0.00  0.00    +0.120 A 
ATOM     28  C   UNL     1      -3.661 -11.580  10.544  0.00  0.00    +0.046 A 
ATOM     29  C   UNL     1      -2.891  -9.292  10.453  0.00  0.00    +0.046 A 
BRANCH  27   3
ATOM      3  O   UNL     1      -1.834 -10.866  11.902  0.00  0.00    -0.495 OA
ATOM     30  C   UNL     1      -2.090 -10.454  13.244  0.00  0.00    +0.277 C 
ENDBRANCH  27   3
ENDBRANCH  23  24
ENDBRANCH  22   8
TORSDOF 6
ENDMDL
MODEL 10
REMARK VINA RESULT:      -6.1     18.693     22.416
REMARK  Name = 51136895
REMARK  9 active torsions:
REMARK  status: ('A' for Active; 'I' for Inactive)
REMARK    1  A    between atoms: O_3  and  C_27
REMARK    2  A    between atoms: O_3  and  C_30
REMARK    3  A    between atoms: N_4  and  C_13
REMARK    4  A    between atoms: N_8  and  C_22
REMARK    5  A    between atoms: C_9  and  C_14
REMARK    6  A    between atoms: C_13  and  C_15
REMARK    7  A    between atoms: C_13  and  C_16
REMARK    8  A    between atoms: C_17  and  C_18
REMARK    9  A    between atoms: C_23  and  C_24
REMARK                            x       y       z     vdW  Elec       q    Type
REMARK                         _______ _______ _______ _____ _____    ______ ____
ROOT
ATOM      7  N   UNL     1      12.390   3.694   0.413  0.00  0.00    -0.239 NA
ATOM     18  C   UNL     1      11.035   4.679   2.156  0.00  0.00    +0.041 A 
ATOM     19  C   UNL     1      10.175   5.207   1.199  0.00  0.00    +0.016 A 
ATOM     20  C   UNL     1      12.118   3.936   1.715  0.00  0.00    +0.124 A 
ATOM     21  C   UNL     1      10.421   4.980  -0.150  0.00  0.00    +0.044 A 
ATOM     22  C   UNL     1      11.533   4.224  -0.488  0.00  0.00    +0.125 A 
ENDROOT
BRANCH  18  17
ATOM      1  O   UNL     1      10.181   4.631   5.581  0.00  0.00    -0.336 OA
ATOM      5  N   UNL     1      11.230   6.032   4.182  0.00  0.00    -0.190 NA
ATOM      6  N   UNL     1      10.170   4.009   4.326  0.00  0.00    -0.056 NA
ATOM     14  C   UNL     1      10.824   5.816   5.408  0.00  0.00    +0.245 A 
ATOM     17  C   UNL     1      10.807   4.896   3.555  0.00  0.00    +0.204 A 
BRANCH  14   9
ATOM      4  N   UNL     1       9.988   7.781   6.801  0.00  0.00    -0.289 NA
ATOM      9  C   UNL     1      10.971   6.695   6.643  0.00  0.00    +0.146 C 
ATOM     10  C   UNL     1      10.818   5.950   7.976  0.00  0.00    +0.030 C 
ATOM     11  C   UNL     1       8.812   7.222   7.454  0.00  0.00    +0.085 C 
ATOM     12  C   UNL     1       9.393   6.232   8.453  0.00  0.00    +0.017 C 
BRANCH   4  13
ATOM     13  C   UNL     1       9.683   8.562   5.616  0.00  0.00    +0.051 C 
ATOM     15  C   UNL     1      10.631   9.755   5.511  0.00  0.00    +0.024 C 
ATOM     16  C   UNL     1       8.229   9.020   5.671  0.00  0.00    +0.024 C 
ENDBRANCH   4  13
ENDBRANCH  14   9
ENDBRANCH  18  17
BRANCH  22   8
ATOM      2  O   UNL     1      10.131   2.421  -2.432  0.00  0.00    -0.270 OA
ATOM      8  N   UNL     1      11.771   4.001  -1.849  0.00  0.00    -0.266 N 
ATOM     23  C   UNL     1      11.081   3.144  -2.712  0.00  0.00    +0.249 C 
ATOM     31  H   UNL     1      12.517   4.582  -2.218  0.00  0.00    +0.157 HD
BRANCH  23  24
ATOM     24  C   UNL     1      11.555   3.147  -4.122  0.00  0.00    +0.037 A 
ATOM     25  C   UNL     1      12.907   3.347  -4.402  0.00  0.00    +0.016 A 
ATOM     26  C   UNL     1      10.649   2.949  -5.163  0.00  0.00    +0.016 A 
ATOM     27  C   UNL     1      12.446   3.153  -6.765  0.00  0.00    +0.120 A 
ATOM     28  C   UNL     1      13.353   3.351  -5.724  0.00  0.00    +0.046 A 
ATOM     29  C   UNL     1      11.095   2.953  -6.485  0.00  0.00    +0.046 A 
BRANCH  27   3
ATOM      3  O   UNL     1      12.880   3.156  -8.055  0.00  0.00    -0.495 OA
ATOM     30  C   UNL     1      14.122   3.808  -8.321  0.00  0.00    +0.277 C 
ENDBRANCH  27   3
ENDBRANCH  23  24
ENDBRANCH  22   8
TORSDOF 6
ENDMDL
