MODEL 1
REMARK VINA RESULT:      -7.9      0.000      0.000
REMARK  Name = 26745072
REMARK  6 active torsions:
REMARK  status: ('A' for Active; 'I' for Inactive)
REMARK    1  A    between atoms: O_3  and  C_27
REMARK    2  A    between atoms: C_10  and  C_15
REMARK    3  A    between atoms: C_16  and  C_18
REMARK    4  A    between atoms: C_19  and  C_22
REMARK    5  A    between atoms: C_20  and  C_27
REMARK    6  A    between atoms: C_29  and  C_32
REMARK                            x       y       z     vdW  Elec       q    Type
REMARK                         _______ _______ _______ _____ _____    ______ ____
ROOT
ATOM      2  O   UNL     1      -2.592 -10.543  16.645  0.00  0.00    -0.270 OA
ATOM      5  N   UNL     1      -3.734 -12.089  15.304  0.00  0.00    -0.280 N 
ATOM      6  N   UNL     1      -5.546 -15.201  14.331  0.00  0.00    -0.347 N 
ATOM      7  N   UNL     1      -3.502 -15.991  13.893  0.00  0.00    -0.240 NA
ATOM     10  C   UNL     1      -2.539 -12.354  14.433  0.00  0.00    +0.171 C 
ATOM     11  C   UNL     1      -2.199 -13.874  14.385  0.00  0.00    +0.089 C 
ATOM     12  C   UNL     1      -5.004 -12.796  14.976  0.00  0.00    +0.163 C 
ATOM     13  C   UNL     1      -3.436 -14.680  14.272  0.00  0.00    +0.066 A 
ATOM     14  C   UNL     1      -4.680 -14.171  14.550  0.00  0.00    +0.056 A 
ATOM     16  C   UNL     1      -3.618 -11.150  16.340  0.00  0.00    +0.248 C 
ATOM     17  C   UNL     1      -4.788 -16.276  13.937  0.00  0.00    +0.197 A 
ATOM     33  H   UNL     1      -6.552 -15.182  14.435  0.00  0.00    +0.167 HD
ENDROOT
BRANCH  16  18
ATOM     18  C   UNL     1      -4.817 -10.834  17.130  0.00  0.00    +0.051 A 
ATOM     20  C   UNL     1      -5.040 -11.424  18.375  0.00  0.00    +0.071 A 
ATOM     21  C   UNL     1      -5.740  -9.924  16.614  0.00  0.00    +0.014 A 
ATOM     23  C   UNL     1      -6.188 -11.104  19.102  0.00  0.00    +0.016 A 
ATOM     24  C   UNL     1      -6.886  -9.605  17.340  0.00  0.00    +0.001 A 
ATOM     25  C   UNL     1      -7.111 -10.195  18.585  0.00  0.00    +0.001 A 
BRANCH  20  27
ATOM      4  O   UNL     1      -3.212 -12.105  19.759  0.00  0.00    -0.245 OA
ATOM     27  C   UNL     1      -4.095 -12.376  18.942  0.00  0.00    +0.338 C 
BRANCH  27   3
ATOM      3  O   UNL     1      -4.285 -13.637  18.469  0.00  0.00    -0.477 OA
ATOM     34  H   UNL     1      -4.950 -13.660  17.748  0.00  0.00    +0.295 HD
ENDBRANCH  27   3
ENDBRANCH  20  27
ENDBRANCH  16  18
BRANCH  10  15
ATOM      1  O   UNL     1      -1.825 -10.621  12.848  0.00  0.00    -0.336 OA
ATOM      8  N   UNL     1      -3.538 -11.866  12.122  0.00  0.00    -0.190 NA
ATOM      9  N   UNL     1      -2.152 -10.130  11.577  0.00  0.00    -0.056 NA
ATOM     15  C   UNL     1      -2.689 -11.642  13.091  0.00  0.00    +0.249 A 
ATOM     19  C   UNL     1      -3.171 -10.915  11.216  0.00  0.00    +0.202 A 
BRANCH  19  22
ATOM     22  C   UNL     1      -3.842 -10.777   9.955  0.00  0.00    +0.023 A 
ATOM     26  C   UNL     1      -4.114 -11.905   9.181  0.00  0.00    +0.015 A 
ATOM     28  C   UNL     1      -4.224  -9.513   9.504  0.00  0.00    +0.012 A 
ATOM     29  C   UNL     1      -4.768 -11.771   7.956  0.00  0.00    -0.050 A 
ATOM     30  C   UNL     1      -4.877  -9.378   8.279  0.00  0.00    +0.001 A 
ATOM     31  C   UNL     1      -5.149 -10.507   7.505  0.00  0.00    +0.003 A 
ATOM     32  C   UNL     1      -5.058 -12.976   7.128  0.00  0.00    +0.044 C 
ENDBRANCH  19  22
ENDBRANCH  10  15
TORSDOF 5
ENDMDL
MODEL 2
REMARK VINA RESULT:      -7.4      3.681      5.670
REMARK  Name = 26745072
REMARK  6 active torsions:
REMARK  status: ('A' for Active; 'I' for Inactive)
REMARK    1  A    between atoms: O_3  and  C_27
REMARK    2  A    between atoms: C_10  and  C_15
REMARK    3  A    between atoms: C_16  and  C_18
REMARK    4  A    between atoms: C_19  and  C_22
REMARK    5  A    between atoms: C_20  and  C_27
REMARK    6  A    between atoms: C_29  and  C_32
REMARK                            x       y       z     vdW  Elec       q    Type
REMARK                         _______ _______ _______ _____ _____    ______ ____
ROOT
ATOM      2  O   UNL     1      -7.762 -12.891  15.770  0.00  0.00    -0.270 OA
ATOM      5  N   UNL     1      -8.246 -10.600  15.672  0.00  0.00    -0.280 N 
ATOM      6  N   UNL     1      -9.707  -7.296  16.600  0.00  0.00    -0.347 N 
ATOM      7  N   UNL     1     -11.421  -7.942  15.320  0.00  0.00    -0.240 NA
ATOM     10  C   UNL     1      -9.005 -10.723  14.382  0.00  0.00    +0.171 C 
ATOM     11  C   UNL     1     -10.443 -10.136  14.514  0.00  0.00    +0.089 C 
ATOM     12  C   UNL     1      -8.095  -9.241  16.264  0.00  0.00    +0.163 C 
ATOM     13  C   UNL     1     -10.421  -8.872  15.284  0.00  0.00    +0.066 A 
ATOM     14  C   UNL     1      -9.355  -8.500  16.066  0.00  0.00    +0.056 A 
ATOM     16  C   UNL     1      -7.664 -11.752  16.224  0.00  0.00    +0.248 C 
ATOM     17  C   UNL     1     -10.960  -7.003  16.123  0.00  0.00    +0.197 A 
ATOM     33  H   UNL     1      -9.155  -6.725  17.227  0.00  0.00    +0.167 HD
ENDROOT
BRANCH  16  18
ATOM     18  C   UNL     1      -6.849 -11.605  17.439  0.00  0.00    +0.051 A 
ATOM     20  C   UNL     1      -5.481 -11.342  17.366  0.00  0.00    +0.071 A 
ATOM     21  C   UNL     1      -7.469 -11.734  18.682  0.00  0.00    +0.014 A 
ATOM     23  C   UNL     1      -4.733 -11.208  18.536  0.00  0.00    +0.016 A 
ATOM     24  C   UNL     1      -6.722 -11.601  19.851  0.00  0.00    +0.001 A 
ATOM     25  C   UNL     1      -5.354 -11.337  19.779  0.00  0.00    +0.001 A 
BRANCH  20  27
ATOM      4  O   UNL     1      -4.259 -12.115  15.460  0.00  0.00    -0.245 OA
ATOM     27  C   UNL     1      -4.804 -11.201  16.083  0.00  0.00    +0.338 C 
BRANCH  27   3
ATOM      3  O   UNL     1      -4.831  -9.922  15.622  0.00  0.00    -0.477 OA
ATOM     34  H   UNL     1      -5.375  -9.839  14.810  0.00  0.00    +0.295 HD
ENDBRANCH  27   3
ENDBRANCH  20  27
ENDBRANCH  16  18
BRANCH  10  15
ATOM      1  O   UNL     1      -8.828  -9.572  12.221  0.00  0.00    -0.336 OA
ATOM      8  N   UNL     1      -6.871 -10.308  13.022  0.00  0.00    -0.190 NA
ATOM      9  N   UNL     1      -7.859  -9.206  11.278  0.00  0.00    -0.056 NA
ATOM     15  C   UNL     1      -8.162 -10.215  13.216  0.00  0.00    +0.249 A 
ATOM     19  C   UNL     1      -6.733  -9.675  11.821  0.00  0.00    +0.202 A 
BRANCH  19  22
ATOM     22  C   UNL     1      -5.452  -9.526  11.191  0.00  0.00    +0.023 A 
ATOM     26  C   UNL     1      -4.299  -9.969  11.839  0.00  0.00    +0.015 A 
ATOM     28  C   UNL     1      -5.361  -8.941   9.928  0.00  0.00    +0.012 A 
ATOM     29  C   UNL     1      -3.054  -9.826  11.226  0.00  0.00    -0.050 A 
ATOM     30  C   UNL     1      -4.117  -8.797   9.315  0.00  0.00    +0.001 A 
ATOM     31  C   UNL     1      -2.963  -9.240   9.963  0.00  0.00    +0.003 A 
ATOM     32  C   UNL     1      -1.821 -10.298  11.919  0.00  0.00    +0.044 C 
ENDBRANCH  19  22
ENDBRANCH  10  15
TORSDOF 5
ENDMDL
MODEL 3
REMARK VINA RESULT:      -7.4      1.510      2.209
REMARK  Name = 26745072
REMARK  6 active torsions:
REMARK  status: ('A' for Active; 'I' for Inactive)
REMARK    1  A    between atoms: O_3  and  C_27
REMARK    2  A    between atoms: C_10  and  C_15
REMARK    3  A    between atoms: C_16  and  C_18
REMARK    4  A    between atoms: C_19  and  C_22
REMARK    5  A    between atoms: C_20  and  C_27
REMARK    6  A    between atoms: C_29  and  C_32
REMARK                            x       y       z     vdW  Elec       q    Type
REMARK                         _______ _______ _______ _____ _____    ______ ____
ROOT
ATOM      2  O   UNL     1      -2.618  -9.973  16.285  0.00  0.00    -0.270 OA
ATOM      5  N   UNL     1      -3.278 -11.959  15.229  0.00  0.00    -0.280 N 
ATOM      6  N   UNL     1      -3.717 -15.613  14.622  0.00  0.00    -0.347 N 
ATOM      7  N   UNL     1      -1.744 -15.454  13.586  0.00  0.00    -0.240 NA
ATOM     10  C   UNL     1      -2.381 -11.734  14.045  0.00  0.00    +0.171 C 
ATOM     11  C   UNL     1      -1.432 -12.950  13.817  0.00  0.00    +0.089 C 
ATOM     12  C   UNL     1      -4.140 -13.174  15.229  0.00  0.00    +0.163 C 
ATOM     13  C   UNL     1      -2.163 -14.223  14.006  0.00  0.00    +0.066 A 
ATOM     14  C   UNL     1      -3.374 -14.294  14.650  0.00  0.00    +0.056 A 
ATOM     16  C   UNL     1      -3.310 -10.990  16.244  0.00  0.00    +0.248 C 
ATOM     17  C   UNL     1      -2.704 -16.271  13.971  0.00  0.00    +0.197 A 
ATOM     33  H   UNL     1      -4.556 -16.030  15.004  0.00  0.00    +0.167 HD
ENDROOT
BRANCH  16  18
ATOM     18  C   UNL     1      -4.255 -11.176  17.354  0.00  0.00    +0.051 A 
ATOM     20  C   UNL     1      -5.579 -10.745  17.258  0.00  0.00    +0.071 A 
ATOM     21  C   UNL     1      -3.808 -11.797  18.520  0.00  0.00    +0.014 A 
ATOM     23  C   UNL     1      -6.454 -10.935  18.328  0.00  0.00    +0.016 A 
ATOM     24  C   UNL     1      -4.682 -11.987  19.589  0.00  0.00    +0.001 A 
ATOM     25  C   UNL     1      -6.005 -11.557  19.494  0.00  0.00    +0.001 A 
BRANCH  20  27
ATOM      4  O   UNL     1      -6.785 -10.627  15.195  0.00  0.00    -0.245 OA
ATOM     27  C   UNL     1      -6.078 -10.093  16.054  0.00  0.00    +0.338 C 
BRANCH  27   3
ATOM      3  O   UNL     1      -5.677  -8.797  15.963  0.00  0.00    -0.477 OA
ATOM     34  H   UNL     1      -5.157  -8.633  15.148  0.00  0.00    +0.295 HD
ENDBRANCH  27   3
ENDBRANCH  20  27
ENDBRANCH  16  18
BRANCH  10  15
ATOM      1  O   UNL     1      -4.121 -10.297  13.079  0.00  0.00    -0.336 OA
ATOM      8  N   UNL     1      -3.134 -11.653  11.595  0.00  0.00    -0.190 NA
ATOM      9  N   UNL     1      -4.730 -10.033  11.846  0.00  0.00    -0.056 NA
ATOM     15  C   UNL     1      -3.194 -11.262  12.842  0.00  0.00    +0.249 A 
ATOM     19  C   UNL     1      -4.094 -10.871  11.022  0.00  0.00    +0.202 A 
BRANCH  19  22
ATOM     22  C   UNL     1      -4.393 -10.951   9.621  0.00  0.00    +0.023 A 
ATOM     26  C   UNL     1      -4.165 -12.138   8.924  0.00  0.00    +0.015 A 
ATOM     28  C   UNL     1      -4.915  -9.842   8.955  0.00  0.00    +0.012 A 
ATOM     29  C   UNL     1      -4.458 -12.216   7.563  0.00  0.00    -0.050 A 
ATOM     30  C   UNL     1      -5.207  -9.919   7.594  0.00  0.00    +0.001 A 
ATOM     31  C   UNL     1      -4.979 -11.107   6.897  0.00  0.00    +0.003 A 
ATOM     32  C   UNL     1      -4.213 -13.485   6.818  0.00  0.00    +0.044 C 
ENDBRANCH  19  22
ENDBRANCH  10  15
TORSDOF 5
ENDMDL
MODEL 4
REMARK VINA RESULT:      -7.1      3.931      5.864
REMARK  Name = 26745072
REMARK  6 active torsions:
REMARK  status: ('A' for Active; 'I' for Inactive)
REMARK    1  A    between atoms: O_3  and  C_27
REMARK    2  A    between atoms: C_10  and  C_15
REMARK    3  A    between atoms: C_16  and  C_18
REMARK    4  A    between atoms: C_19  and  C_22
REMARK    5  A    between atoms: C_20  and  C_27
REMARK    6  A    between atoms: C_29  and  C_32
REMARK                            x       y       z     vdW  Elec       q    Type
REMARK                         _______ _______ _______ _____ _____    ______ ____
ROOT
ATOM      2  O   UNL     1      -7.809 -12.968  16.165  0.00  0.00    -0.270 OA
ATOM      5  N   UNL     1      -8.302 -10.678  16.082  0.00  0.00    -0.280 N 
ATOM      6  N   UNL     1      -9.671  -7.361  17.100  0.00  0.00    -0.347 N 
ATOM      7  N   UNL     1     -11.497  -8.023  15.995  0.00  0.00    -0.240 NA
ATOM     10  C   UNL     1      -9.178 -10.817  14.871  0.00  0.00    +0.171 C 
ATOM     11  C   UNL     1     -10.598 -10.228  15.129  0.00  0.00    +0.089 C 
ATOM     12  C   UNL     1      -8.097  -9.311  16.640  0.00  0.00    +0.163 C 
ATOM     13  C   UNL     1     -10.504  -8.953  15.877  0.00  0.00    +0.066 A 
ATOM     14  C   UNL     1      -9.370  -8.572  16.551  0.00  0.00    +0.056 A 
ATOM     16  C   UNL     1      -7.670 -11.823  16.593  0.00  0.00    +0.248 C 
ATOM     17  C   UNL     1     -10.964  -7.073  16.738  0.00  0.00    +0.197 A 
ATOM     33  H   UNL     1      -9.064  -6.782  17.665  0.00  0.00    +0.167 HD
ENDROOT
BRANCH  16  18
ATOM     18  C   UNL     1      -6.745 -11.661  17.724  0.00  0.00    +0.051 A 
ATOM     20  C   UNL     1      -7.212 -11.602  19.038  0.00  0.00    +0.071 A 
ATOM     21  C   UNL     1      -5.378 -11.568  17.465  0.00  0.00    +0.014 A 
ATOM     23  C   UNL     1      -6.310 -11.448  20.092  0.00  0.00    +0.016 A 
ATOM     24  C   UNL     1      -4.477 -11.414  18.518  0.00  0.00    +0.001 A 
ATOM     25  C   UNL     1      -4.942 -11.355  19.831  0.00  0.00    +0.001 A 
BRANCH  20  27
ATOM      4  O   UNL     1      -9.334 -12.698  19.169  0.00  0.00    -0.245 OA
ATOM     27  C   UNL     1      -8.633 -11.697  19.342  0.00  0.00    +0.338 C 
BRANCH  27   3
ATOM      3  O   UNL     1      -9.133 -10.539  19.852  0.00  0.00    -0.477 OA
ATOM     34  H   UNL     1      -8.419  -9.916  20.107  0.00  0.00    +0.295 HD
ENDBRANCH  27   3
ENDBRANCH  20  27
ENDBRANCH  16  18
BRANCH  10  15
ATOM      1  O   UNL     1      -9.224  -9.840  12.620  0.00  0.00    -0.336 OA
ATOM      8  N   UNL     1      -7.165 -10.301  13.369  0.00  0.00    -0.190 NA
ATOM      9  N   UNL     1      -8.344  -9.457  11.600  0.00  0.00    -0.056 NA
ATOM     15  C   UNL     1      -8.448 -10.326  13.624  0.00  0.00    +0.249 A 
ATOM     19  C   UNL     1      -7.150  -9.761  12.116  0.00  0.00    +0.202 A 
BRANCH  19  22
ATOM     22  C   UNL     1      -5.923  -9.535  11.407  0.00  0.00    +0.023 A 
ATOM     26  C   UNL     1      -4.725 -10.051  11.903  0.00  0.00    +0.015 A 
ATOM     28  C   UNL     1      -5.928  -8.801  10.221  0.00  0.00    +0.012 A 
ATOM     29  C   UNL     1      -3.532  -9.833  11.214  0.00  0.00    -0.050 A 
ATOM     30  C   UNL     1      -4.735  -8.582   9.532  0.00  0.00    +0.001 A 
ATOM     31  C   UNL     1      -3.537  -9.098  10.028  0.00  0.00    +0.003 A 
ATOM     32  C   UNL     1      -2.252 -10.383  11.743  0.00  0.00    +0.044 C 
ENDBRANCH  19  22
ENDBRANCH  10  15
TORSDOF 5
ENDMDL
MODEL 5
REMARK VINA RESULT:      -7.1     24.351     27.673
REMARK  Name = 26745072
REMARK  6 active torsions:
REMARK  status: ('A' for Active; 'I' for Inactive)
REMARK    1  A    between atoms: O_3  and  C_27
REMARK    2  A    between atoms: C_10  and  C_15
REMARK    3  A    between atoms: C_16  and  C_18
REMARK    4  A    between atoms: C_19  and  C_22
REMARK    5  A    between atoms: C_20  and  C_27
REMARK    6  A    between atoms: C_29  and  C_32
REMARK                            x       y       z     vdW  Elec       q    Type
REMARK                         _______ _______ _______ _____ _____    ______ ____
ROOT
ATOM      2  O   UNL     1       9.891   7.927   3.317  0.00  0.00    -0.270 OA
ATOM      5  N   UNL     1      10.481   6.967   5.373  0.00  0.00    -0.280 N 
ATOM      6  N   UNL     1      10.519   4.558   8.219  0.00  0.00    -0.347 N 
ATOM      7  N   UNL     1       8.873   5.831   9.032  0.00  0.00    -0.240 NA
ATOM     10  C   UNL     1       9.915   8.107   6.170  0.00  0.00    +0.171 C 
ATOM     11  C   UNL     1       8.878   7.602   7.219  0.00  0.00    +0.089 C 
ATOM     12  C   UNL     1      11.139   5.856   6.116  0.00  0.00    +0.163 C 
ATOM     13  C   UNL     1       9.358   6.362   7.870  0.00  0.00    +0.066 A 
ATOM     14  C   UNL     1      10.370   5.595   7.348  0.00  0.00    +0.056 A 
ATOM     16  C   UNL     1      10.422   7.030   3.972  0.00  0.00    +0.248 C 
ATOM     17  C   UNL     1       9.595   4.744   9.217  0.00  0.00    +0.197 A 
ATOM     33  H   UNL     1      11.182   3.797   8.150  0.00  0.00    +0.167 HD
ENDROOT
BRANCH  16  18
ATOM     18  C   UNL     1      11.057   5.953   3.199  0.00  0.00    +0.051 A 
ATOM     20  C   UNL     1      12.398   6.029   2.818  0.00  0.00    +0.071 A 
ATOM     21  C   UNL     1      10.294   4.840   2.848  0.00  0.00    +0.014 A 
ATOM     23  C   UNL     1      12.974   4.990   2.085  0.00  0.00    +0.016 A 
ATOM     24  C   UNL     1      10.870   3.802   2.115  0.00  0.00    +0.001 A 
ATOM     25  C   UNL     1      12.210   3.877   1.734  0.00  0.00    +0.001 A 
BRANCH  20  27
ATOM      4  O   UNL     1      13.355   8.196   2.486  0.00  0.00    -0.245 OA
ATOM     27  C   UNL     1      13.221   7.178   3.170  0.00  0.00    +0.338 C 
BRANCH  27   3
ATOM      3  O   UNL     1      13.852   7.017   4.364  0.00  0.00    -0.477 OA
ATOM     34  H   UNL     1      13.388   6.368   4.936  0.00  0.00    +0.295 HD
ENDBRANCH  27   3
ENDBRANCH  20  27
ENDBRANCH  16  18
BRANCH  10  15
ATOM      1  O   UNL     1      10.767   9.716   7.816  0.00  0.00    -0.336 OA
ATOM      8  N   UNL     1      12.236   9.196   6.208  0.00  0.00    -0.190 NA
ATOM      9  N   UNL     1      11.926  10.452   8.094  0.00  0.00    -0.056 NA
ATOM     15  C   UNL     1      11.035   9.003   6.690  0.00  0.00    +0.249 A 
ATOM     19  C   UNL     1      12.745  10.092   7.102  0.00  0.00    +0.202 A 
BRANCH  19  22
ATOM     22  C   UNL     1      14.078  10.608   6.976  0.00  0.00    +0.023 A 
ATOM     26  C   UNL     1      15.073   9.833   6.380  0.00  0.00    +0.015 A 
ATOM     28  C   UNL     1      14.378  11.886   7.448  0.00  0.00    +0.012 A 
ATOM     29  C   UNL     1      16.369  10.334   6.257  0.00  0.00    -0.050 A 
ATOM     30  C   UNL     1      15.674  12.387   7.325  0.00  0.00    +0.001 A 
ATOM     31  C   UNL     1      16.669  11.612   6.729  0.00  0.00    +0.003 A 
ATOM     32  C   UNL     1      17.433   9.506   5.621  0.00  0.00    +0.044 C 
ENDBRANCH  19  22
ENDBRANCH  10  15
TORSDOF 5
ENDMDL
MODEL 6
REMARK VINA RESULT:      -7.0     29.845     31.804
REMARK  Name = 26745072
REMARK  6 active torsions:
REMARK  status: ('A' for Active; 'I' for Inactive)
REMARK    1  A    between atoms: O_3  and  C_27
REMARK    2  A    between atoms: C_10  and  C_15
REMARK    3  A    between atoms: C_16  and  C_18
REMARK    4  A    between atoms: C_19  and  C_22
REMARK    5  A    between atoms: C_20  and  C_27
REMARK    6  A    between atoms: C_29  and  C_32
REMARK                            x       y       z     vdW  Elec       q    Type
REMARK                         _______ _______ _______ _____ _____    ______ ____
ROOT
ATOM      2  O   UNL     1      21.033   5.799  23.551  0.00  0.00    -0.270 OA
ATOM      5  N   UNL     1      20.887   7.488  21.933  0.00  0.00    -0.280 N 
ATOM      6  N   UNL     1      21.679  10.628  20.081  0.00  0.00    -0.347 N 
ATOM      7  N   UNL     1      20.259  11.575  21.522  0.00  0.00    -0.240 NA
ATOM     10  C   UNL     1      19.538   7.949  22.404  0.00  0.00    +0.171 C 
ATOM     11  C   UNL     1      19.545   9.471  22.739  0.00  0.00    +0.089 C 
ATOM     12  C   UNL     1      21.487   8.178  20.755  0.00  0.00    +0.163 C 
ATOM     13  C   UNL     1      20.310  10.225  21.720  0.00  0.00    +0.066 A 
ATOM     14  C   UNL     1      21.180   9.618  20.848  0.00  0.00    +0.056 A 
ATOM     16  C   UNL     1      21.491   6.398  22.578  0.00  0.00    +0.248 C 
ATOM     17  C   UNL     1      21.095  11.788  20.525  0.00  0.00    +0.197 A 
ATOM     33  H   UNL     1      22.349  10.544  19.327  0.00  0.00    +0.167 HD
ENDROOT
BRANCH  16  18
ATOM     18  C   UNL     1      22.770   5.899  22.054  0.00  0.00    +0.051 A 
ATOM     20  C   UNL     1      22.817   4.848  21.137  0.00  0.00    +0.071 A 
ATOM     21  C   UNL     1      23.953   6.498  22.489  0.00  0.00    +0.014 A 
ATOM     23  C   UNL     1      24.047   4.397  20.656  0.00  0.00    +0.016 A 
ATOM     24  C   UNL     1      25.181   6.047  22.009  0.00  0.00    +0.001 A 
ATOM     25  C   UNL     1      25.229   4.997  21.092  0.00  0.00    +0.001 A 
BRANCH  20  27
ATOM      4  O   UNL     1      21.135   3.148  21.101  0.00  0.00    -0.245 OA
ATOM     27  C   UNL     1      21.601   4.203  20.662  0.00  0.00    +0.338 C 
BRANCH  27   3
ATOM      3  O   UNL     1      21.006   4.896  19.654  0.00  0.00    -0.477 OA
ATOM     34  H   UNL     1      20.126   4.527  19.429  0.00  0.00    +0.295 HD
ENDBRANCH  27   3
ENDBRANCH  20  27
ENDBRANCH  16  18
BRANCH  10  15
ATOM      1  O   UNL     1      18.801   6.487  20.575  0.00  0.00    -0.336 OA
ATOM      8  N   UNL     1      17.200   7.843  21.356  0.00  0.00    -0.190 NA
ATOM      9  N   UNL     1      17.653   6.209  19.822  0.00  0.00    -0.056 NA
ATOM     15  C   UNL     1      18.446   7.460  21.455  0.00  0.00    +0.249 A 
ATOM     19  C   UNL     1      16.753   7.048  20.341  0.00  0.00    +0.202 A 
BRANCH  19  22
ATOM     22  C   UNL     1      15.399   7.116  19.871  0.00  0.00    +0.023 A 
ATOM     26  C   UNL     1      14.345   6.806  20.730  0.00  0.00    +0.015 A 
ATOM     28  C   UNL     1      15.137   7.494  18.554  0.00  0.00    +0.012 A 
ATOM     29  C   UNL     1      13.028   6.873  20.273  0.00  0.00    -0.050 A 
ATOM     30  C   UNL     1      13.821   7.560  18.096  0.00  0.00    +0.001 A 
ATOM     31  C   UNL     1      12.767   7.251  18.956  0.00  0.00    +0.003 A 
ATOM     32  C   UNL     1      11.901   6.542  21.191  0.00  0.00    +0.044 C 
ENDBRANCH  19  22
ENDBRANCH  10  15
TORSDOF 5
ENDMDL
MODEL 7
REMARK VINA RESULT:      -6.9     21.887     25.562
REMARK  Name = 26745072
REMARK  6 active torsions:
REMARK  status: ('A' for Active; 'I' for Inactive)
REMARK    1  A    between atoms: O_3  and  C_27
REMARK    2  A    between atoms: C_10  and  C_15
REMARK    3  A    between atoms: C_16  and  C_18
REMARK    4  A    between atoms: C_19  and  C_22
REMARK    5  A    between atoms: C_20  and  C_27
REMARK    6  A    between atoms: C_29  and  C_32
REMARK                            x       y       z     vdW  Elec       q    Type
REMARK                         _______ _______ _______ _____ _____    ______ ____
ROOT
ATOM      2  O   UNL     1     -14.316  10.694  19.008  0.00  0.00    -0.270 OA
ATOM      5  N   UNL     1     -13.441   8.973  20.337  0.00  0.00    -0.280 N 
ATOM      6  N   UNL     1     -12.716   5.520  21.547  0.00  0.00    -0.347 N 
ATOM      7  N   UNL     1     -14.601   5.772  22.720  0.00  0.00    -0.240 NA
ATOM     10  C   UNL     1     -14.248   9.369  21.540  0.00  0.00    +0.171 C 
ATOM     11  C   UNL     1     -15.093   8.172  22.073  0.00  0.00    +0.089 C 
ATOM     12  C   UNL     1     -12.505   7.822  20.475  0.00  0.00    +0.163 C 
ATOM     13  C   UNL     1     -14.300   6.922  22.047  0.00  0.00    +0.066 A 
ATOM     14  C   UNL     1     -13.146   6.793  21.315  0.00  0.00    +0.056 A 
ATOM     16  C   UNL     1     -13.558   9.738  19.166  0.00  0.00    +0.248 C 
ATOM     17  C   UNL     1     -13.626   4.945  22.399  0.00  0.00    +0.197 A 
ATOM     33  H   UNL     1     -11.887   5.081  21.169  0.00  0.00    +0.167 HD
ENDROOT
BRANCH  16  18
ATOM     18  C   UNL     1     -12.699   9.396  18.023  0.00  0.00    +0.051 A 
ATOM     20  C   UNL     1     -11.419   9.936  17.891  0.00  0.00    +0.071 A 
ATOM     21  C   UNL     1     -13.185   8.512  17.059  0.00  0.00    +0.014 A 
ATOM     23  C   UNL     1     -10.626   9.592  16.795  0.00  0.00    +0.016 A 
ATOM     24  C   UNL     1     -12.393   8.170  15.964  0.00  0.00    +0.001 A 
ATOM     25  C   UNL     1     -11.114   8.709  15.832  0.00  0.00    +0.001 A 
BRANCH  20  27
ATOM      4  O   UNL     1     -10.991  12.089  18.843  0.00  0.00    -0.245 OA
ATOM     27  C   UNL     1     -10.882  10.860  18.881  0.00  0.00    +0.338 C 
BRANCH  27   3
ATOM      3  O   UNL     1     -10.227  10.220  19.886  0.00  0.00    -0.477 OA
ATOM     34  H   UNL     1     -10.514  10.536  20.768  0.00  0.00    +0.295 HD
ENDBRANCH  27   3
ENDBRANCH  20  27
ENDBRANCH  16  18
BRANCH  10  15
ATOM      1  O   UNL     1     -12.440  10.948  22.052  0.00  0.00    -0.336 OA
ATOM      8  N   UNL     1     -13.375  10.018  23.862  0.00  0.00    -0.190 NA
ATOM      9  N   UNL     1     -11.767  11.485  23.157  0.00  0.00    -0.056 NA
ATOM     15  C   UNL     1     -13.370  10.094  22.556  0.00  0.00    +0.249 A 
ATOM     19  C   UNL     1     -12.375  10.888  24.187  0.00  0.00    +0.202 A 
BRANCH  19  22
ATOM     22  C   UNL     1     -12.008  11.140  25.551  0.00  0.00    +0.023 A 
ATOM     26  C   UNL     1     -12.381  12.337  26.164  0.00  0.00    +0.015 A 
ATOM     28  C   UNL     1     -11.282  10.188  26.265  0.00  0.00    +0.012 A 
ATOM     29  C   UNL     1     -12.026  12.582  27.491  0.00  0.00    -0.050 A 
ATOM     30  C   UNL     1     -10.926  10.432  27.591  0.00  0.00    +0.001 A 
ATOM     31  C   UNL     1     -11.298  11.629  28.204  0.00  0.00    +0.003 A 
ATOM     32  C   UNL     1     -12.422  13.861  28.146  0.00  0.00    +0.044 C 
ENDBRANCH  19  22
ENDBRANCH  10  15
TORSDOF 5
ENDMDL
MODEL 8
REMARK VINA RESULT:      -6.9      6.022      9.166
REMARK  Name = 26745072
REMARK  6 active torsions:
REMARK  status: ('A' for Active; 'I' for Inactive)
REMARK    1  A    between atoms: O_3  and  C_27
REMARK    2  A    between atoms: C_10  and  C_15
REMARK    3  A    between atoms: C_16  and  C_18
REMARK    4  A    between atoms: C_19  and  C_22
REMARK    5  A    between atoms: C_20  and  C_27
REMARK    6  A    between atoms: C_29  and  C_32
REMARK                            x       y       z     vdW  Elec       q    Type
REMARK                         _______ _______ _______ _____ _____    ______ ____
ROOT
ATOM      2  O   UNL     1     -12.710 -11.595  16.840  0.00  0.00    -0.270 OA
ATOM      5  N   UNL     1     -12.033  -9.413  16.316  0.00  0.00    -0.280 N 
ATOM      6  N   UNL     1     -12.278  -5.797  15.438  0.00  0.00    -0.347 N 
ATOM      7  N   UNL     1     -12.298  -6.536  13.330  0.00  0.00    -0.240 NA
ATOM     10  C   UNL     1     -11.403  -9.824  15.016  0.00  0.00    +0.171 C 
ATOM     11  C   UNL     1     -11.980  -9.001  13.824  0.00  0.00    +0.089 C 
ATOM     12  C   UNL     1     -11.945  -7.979  16.711  0.00  0.00    +0.163 C 
ATOM     13  C   UNL     1     -12.129  -7.577  14.199  0.00  0.00    +0.066 A 
ATOM     14  C   UNL     1     -12.117  -7.149  15.504  0.00  0.00    +0.056 A 
ATOM     16  C   UNL     1     -12.616 -10.402  17.124  0.00  0.00    +0.248 C 
ATOM     17  C   UNL     1     -12.384  -5.475  14.108  0.00  0.00    +0.197 A 
ATOM     33  H   UNL     1     -12.313  -5.151  16.216  0.00  0.00    +0.167 HD
ENDROOT
BRANCH  16  18
ATOM     18  C   UNL     1     -13.151 -10.004  18.434  0.00  0.00    +0.051 A 
ATOM     20  C   UNL     1     -12.367 -10.067  19.587  0.00  0.00    +0.071 A 
ATOM     21  C   UNL     1     -14.470  -9.556  18.512  0.00  0.00    +0.014 A 
ATOM     23  C   UNL     1     -12.903  -9.682  20.817  0.00  0.00    +0.016 A 
ATOM     24  C   UNL     1     -15.005  -9.172  19.741  0.00  0.00    +0.001 A 
ATOM     25  C   UNL     1     -14.222  -9.234  20.893  0.00  0.00    +0.001 A 
BRANCH  20  27
ATOM      4  O   UNL     1     -10.608 -11.674  19.802  0.00  0.00    -0.245 OA
ATOM     27  C   UNL     1     -10.986 -10.529  19.539  0.00  0.00    +0.338 C 
BRANCH  27   3
ATOM      3  O   UNL     1     -10.124  -9.547  19.164  0.00  0.00    -0.477 OA
ATOM     34  H   UNL     1      -9.416  -9.888  18.577  0.00  0.00    +0.295 HD
ENDBRANCH  27   3
ENDBRANCH  20  27
ENDBRANCH  16  18
BRANCH  10  15
ATOM      1  O   UNL     1      -9.169  -9.532  14.042  0.00  0.00    -0.336 OA
ATOM      8  N   UNL     1      -9.148 -10.178  16.186  0.00  0.00    -0.190 NA
ATOM      9  N   UNL     1      -7.820  -9.643  14.403  0.00  0.00    -0.056 NA
ATOM     15  C   UNL     1      -9.883  -9.865  15.150  0.00  0.00    +0.249 A 
ATOM     19  C   UNL     1      -7.890 -10.028  15.680  0.00  0.00    +0.202 A 
BRANCH  19  22
ATOM     22  C   UNL     1      -6.723 -10.268  16.478  0.00  0.00    +0.023 A 
ATOM     26  C   UNL     1      -6.856 -10.712  17.795  0.00  0.00    +0.015 A 
ATOM     28  C   UNL     1      -5.454 -10.062  15.938  0.00  0.00    +0.012 A 
ATOM     29  C   UNL     1      -5.721 -10.948  18.571  0.00  0.00    -0.050 A 
ATOM     30  C   UNL     1      -4.319 -10.297  16.714  0.00  0.00    +0.001 A 
ATOM     31  C   UNL     1      -4.452 -10.740  18.030  0.00  0.00    +0.003 A 
ATOM     32  C   UNL     1      -5.864 -11.420  19.978  0.00  0.00    +0.044 C 
ENDBRANCH  19  22
ENDBRANCH  10  15
TORSDOF 5
ENDMDL
MODEL 9
REMARK VINA RESULT:      -6.9     25.625     28.565
REMARK  Name = 26745072
REMARK  6 active torsions:
REMARK  status: ('A' for Active; 'I' for Inactive)
REMARK    1  A    between atoms: O_3  and  C_27
REMARK    2  A    between atoms: C_10  and  C_15
REMARK    3  A    between atoms: C_16  and  C_18
REMARK    4  A    between atoms: C_19  and  C_22
REMARK    5  A    between atoms: C_20  and  C_27
REMARK    6  A    between atoms: C_29  and  C_32
REMARK                            x       y       z     vdW  Elec       q    Type
REMARK                         _______ _______ _______ _____ _____    ______ ____
ROOT
ATOM      2  O   UNL     1      -8.928  -4.274  42.764  0.00  0.00    -0.270 OA
ATOM      5  N   UNL     1      -7.572  -5.399  41.218  0.00  0.00    -0.280 N 
ATOM      6  N   UNL     1      -6.605  -7.689  38.438  0.00  0.00    -0.347 N 
ATOM      7  N   UNL     1      -6.410  -9.216  40.058  0.00  0.00    -0.240 NA
ATOM     10  C   UNL     1      -6.836  -6.162  42.281  0.00  0.00    +0.171 C 
ATOM     11  C   UNL     1      -6.906  -7.699  42.025  0.00  0.00    +0.089 C 
ATOM     12  C   UNL     1      -7.164  -5.610  39.800  0.00  0.00    +0.163 C 
ATOM     13  C   UNL     1      -6.720  -7.995  40.587  0.00  0.00    +0.066 A 
ATOM     14  C   UNL     1      -6.849  -7.039  39.610  0.00  0.00    +0.056 A 
ATOM     16  C   UNL     1      -8.560  -4.481  41.609  0.00  0.00    +0.248 C 
ATOM     17  C   UNL     1      -6.347  -8.999  38.759  0.00  0.00    +0.197 A 
ATOM     33  H   UNL     1      -6.611  -7.290  37.508  0.00  0.00    +0.167 HD
ENDROOT
BRANCH  16  18
ATOM     18  C   UNL     1      -9.212  -3.675  40.566  0.00  0.00    +0.051 A 
ATOM     20  C   UNL     1     -10.282  -4.179  39.825  0.00  0.00    +0.071 A 
ATOM     21  C   UNL     1      -8.743  -2.384  40.325  0.00  0.00    +0.014 A 
ATOM     23  C   UNL     1     -10.882  -3.390  38.842  0.00  0.00    +0.016 A 
ATOM     24  C   UNL     1      -9.342  -1.597  39.343  0.00  0.00    +0.001 A 
ATOM     25  C   UNL     1     -10.412  -2.099  38.602  0.00  0.00    +0.001 A 
BRANCH  20  27
ATOM      4  O   UNL     1     -10.379  -6.548  39.509  0.00  0.00    -0.245 OA
ATOM     27  C   UNL     1     -10.796  -5.523  40.054  0.00  0.00    +0.338 C 
BRANCH  27   3
ATOM      3  O   UNL     1     -11.814  -5.541  40.955  0.00  0.00    -0.477 OA
ATOM     34  H   UNL     1     -11.771  -6.329  41.538  0.00  0.00    +0.295 HD
ENDBRANCH  27   3
ENDBRANCH  20  27
ENDBRANCH  16  18
BRANCH  10  15
ATOM      1  O   UNL     1      -5.330  -4.665  43.512  0.00  0.00    -0.336 OA
ATOM      8  N   UNL     1      -4.334  -5.794  41.855  0.00  0.00    -0.190 NA
ATOM      9  N   UNL     1      -3.988  -4.264  43.520  0.00  0.00    -0.056 NA
ATOM     15  C   UNL     1      -5.448  -5.567  42.502  0.00  0.00    +0.249 A 
ATOM     19  C   UNL     1      -3.467  -4.973  42.515  0.00  0.00    +0.202 A 
BRANCH  19  22
ATOM     22  C   UNL     1      -2.083  -4.885  42.146  0.00  0.00    +0.023 A 
ATOM     26  C   UNL     1      -1.335  -3.763  42.504  0.00  0.00    +0.015 A 
ATOM     28  C   UNL     1      -1.486  -5.922  41.430  0.00  0.00    +0.012 A 
ATOM     29  C   UNL     1       0.011  -3.678  42.146  0.00  0.00    -0.050 A 
ATOM     30  C   UNL     1      -0.141  -5.837  41.071  0.00  0.00    +0.001 A 
ATOM     31  C   UNL     1       0.608  -4.716  41.429  0.00  0.00    +0.003 A 
ATOM     32  C   UNL     1       0.811  -2.479  42.527  0.00  0.00    +0.044 C 
ENDBRANCH  19  22
ENDBRANCH  10  15
TORSDOF 5
ENDMDL
MODEL 10
REMARK VINA RESULT:      -6.9     24.592     27.743
REMARK  Name = 26745072
REMARK  6 active torsions:
REMARK  status: ('A' for Active; 'I' for Inactive)
REMARK    1  A    between atoms: O_3  and  C_27
REMARK    2  A    between atoms: C_10  and  C_15
REMARK    3  A    between atoms: C_16  and  C_18
REMARK    4  A    between atoms: C_19  and  C_22
REMARK    5  A    between atoms: C_20  and  C_27
REMARK    6  A    between atoms: C_29  and  C_32
REMARK                            x       y       z     vdW  Elec       q    Type
REMARK                         _______ _______ _______ _____ _____    ______ ____
ROOT
ATOM      2  O   UNL     1      -6.568  -9.408  42.044  0.00  0.00    -0.270 OA
ATOM      5  N   UNL     1      -5.574  -7.628  40.888  0.00  0.00    -0.280 N 
ATOM      6  N   UNL     1      -3.034  -5.715  38.939  0.00  0.00    -0.347 N 
ATOM      7  N   UNL     1      -2.243  -5.144  40.949  0.00  0.00    -0.240 NA
ATOM     10  C   UNL     1      -5.478  -6.766  42.114  0.00  0.00    +0.171 C 
ATOM     11  C   UNL     1      -4.014  -6.287  42.355  0.00  0.00    +0.089 C 
ATOM     12  C   UNL     1      -5.097  -7.058  39.596  0.00  0.00    +0.163 C 
ATOM     13  C   UNL     1      -3.378  -5.894  41.078  0.00  0.00    +0.066 A 
ATOM     14  C   UNL     1      -3.883  -6.260  39.855  0.00  0.00    +0.056 A 
ATOM     16  C   UNL     1      -6.161  -8.898  41.001  0.00  0.00    +0.248 C 
ATOM     17  C   UNL     1      -2.061  -5.053  39.647  0.00  0.00    +0.197 A 
ATOM     33  H   UNL     1      -3.103  -5.780  37.932  0.00  0.00    +0.167 HD
ENDROOT
BRANCH  16  18
ATOM     18  C   UNL     1      -6.330  -9.698  39.779  0.00  0.00    +0.051 A 
ATOM     20  C   UNL     1      -7.467  -9.570  38.981  0.00  0.00    +0.071 A 
ATOM     21  C   UNL     1      -5.325 -10.598  39.423  0.00  0.00    +0.014 A 
ATOM     23  C   UNL     1      -7.600 -10.343  37.827  0.00  0.00    +0.016 A 
ATOM     24  C   UNL     1      -5.458 -11.371  38.269  0.00  0.00    +0.001 A 
ATOM     25  C   UNL     1      -6.595 -11.243  37.471  0.00  0.00    +0.001 A 
BRANCH  20  27
ATOM      4  O   UNL     1      -9.483  -8.887  40.073  0.00  0.00    -0.245 OA
ATOM     27  C   UNL     1      -8.533  -8.639  39.326  0.00  0.00    +0.338 C 
BRANCH  27   3
ATOM      3  O   UNL     1      -8.377  -7.428  38.725  0.00  0.00    -0.477 OA
ATOM     34  H   UNL     1      -8.967  -6.749  39.116  0.00  0.00    +0.295 HD
ENDBRANCH  27   3
ENDBRANCH  20  27
ENDBRANCH  16  18
BRANCH  10  15
ATOM      1  O   UNL     1      -6.663  -4.915  43.206  0.00  0.00    -0.336 OA
ATOM      8  N   UNL     1      -7.415  -5.389  41.151  0.00  0.00    -0.190 NA
ATOM      9  N   UNL     1      -7.705  -4.013  42.955  0.00  0.00    -0.056 NA
ATOM     15  C   UNL     1      -6.558  -5.688  42.093  0.00  0.00    +0.249 A 
ATOM     19  C   UNL     1      -8.097  -4.356  41.725  0.00  0.00    +0.202 A 
BRANCH  19  22
ATOM     22  C   UNL     1      -9.166  -3.686  41.042  0.00  0.00    +0.023 A 
ATOM     26  C   UNL     1      -8.881  -2.712  40.084  0.00  0.00    +0.015 A 
ATOM     28  C   UNL     1     -10.491  -4.011  41.332  0.00  0.00    +0.012 A 
ATOM     29  C   UNL     1      -9.920  -2.062  39.418  0.00  0.00    -0.050 A 
ATOM     30  C   UNL     1     -11.530  -3.361  40.667  0.00  0.00    +0.001 A 
ATOM     31  C   UNL     1     -11.245  -2.386  39.710  0.00  0.00    +0.003 A 
ATOM     32  C   UNL     1      -9.616  -1.020  38.396  0.00  0.00    +0.044 C 
ENDBRANCH  19  22
ENDBRANCH  10  15
TORSDOF 5
ENDMDL
