MODEL 1
REMARK VINA RESULT:      -8.2      0.000      0.000
REMARK  Name = 24039275
REMARK  13 active torsions:
REMARK  status: ('A' for Active; 'I' for Inactive)
REMARK    1  A    between atoms: O_2  and  C_14
REMARK    2  A    between atoms: N_7  and  C_28
REMARK    3  A    between atoms: N_9  and  C_29
REMARK    4  A    between atoms: N_10  and  C_41
REMARK    5  A    between atoms: N_11  and  C_46
REMARK    6  A    between atoms: C_12  and  C_20
REMARK    7  A    between atoms: C_15  and  C_21
REMARK    8  A    between atoms: C_17  and  C_24
REMARK    9  A    between atoms: C_21  and  C_25
REMARK   10  A    between atoms: C_21  and  C_26
REMARK   11  A    between atoms: C_28  and  C_29
REMARK   12  A    between atoms: C_30  and  C_31
REMARK   13  A    between atoms: C_38  and  C_41
REMARK                            x       y       z     vdW  Elec       q    Type
REMARK                         _______ _______ _______ _____ _____    ______ ____
ROOT
ATOM      1  S   UNL     1     -15.564   8.725  20.795  0.00  0.00    -0.057 S 
ATOM      4  O   UNL     1     -11.128   7.854  19.687  0.00  0.00    -0.270 OA
ATOM      6  N   UNL     1     -13.647   6.999  20.978  0.00  0.00    -0.229 NA
ATOM      8  N   UNL     1     -13.156   9.049  19.809  0.00  0.00    -0.261 N 
ATOM     12  C   UNL     1     -17.301   5.367  22.415  0.00  0.00    -0.022 C 
ATOM     13  C   UNL     1     -15.995   4.837  23.130  0.00  0.00    +0.033 C 
ATOM     14  C   UNL     1     -16.155   3.356  23.577  0.00  0.00    +0.123 C 
ATOM     15  C   UNL     1     -17.434   3.116  24.407  0.00  0.00    +0.029 C 
ATOM     16  C   UNL     1     -18.529   5.110  23.319  0.00  0.00    +0.008 C 
ATOM     17  C   UNL     1     -14.697   5.097  22.261  0.00  0.00    +0.042 C 
ATOM     18  C   UNL     1     -18.688   3.648  23.713  0.00  0.00    +0.007 C 
ATOM     19  C   UNL     1     -17.195   6.908  22.196  0.00  0.00    +0.051 C 
ATOM     20  C   UNL     1     -17.532   4.680  21.045  0.00  0.00    +0.012 C 
ATOM     22  C   UNL     1     -14.746   6.470  21.634  0.00  0.00    +0.057 A 
ATOM     23  C   UNL     1     -15.876   7.261  21.607  0.00  0.00    +0.015 A 
ATOM     24  C   UNL     1     -13.393   4.929  23.052  0.00  0.00    +0.014 C 
ATOM     27  C   UNL     1     -13.959   8.187  20.508  0.00  0.00    +0.165 A 
ATOM     30  C   UNL     1     -11.816   8.840  19.445  0.00  0.00    +0.250 C 
ATOM     49  H   UNL     1     -13.632   9.894  19.512  0.00  0.00    +0.157 HD
ENDROOT
BRANCH  30  31
ATOM     31  C   UNL     1     -11.193   9.936  18.658  0.00  0.00    +0.037 A 
ATOM     36  C   UNL     1     -11.387  11.265  19.036  0.00  0.00    +0.013 A 
ATOM     37  C   UNL     1     -10.413   9.636  17.541  0.00  0.00    +0.013 A 
ATOM     38  C   UNL     1     -10.022  11.993  17.180  0.00  0.00    -0.033 A 
ATOM     39  C   UNL     1     -10.802  12.293  18.296  0.00  0.00    +0.005 A 
ATOM     40  C   UNL     1      -9.827  10.665  16.802  0.00  0.00    +0.005 A 
BRANCH  38  41
ATOM     41  C   UNL     1      -9.397  13.092  16.389  0.00  0.00    +0.119 C 
BRANCH  41  10
ATOM     10  N   UNL     1      -8.048  13.412  16.849  0.00  0.00    -0.296 NA
ATOM     11  N   UNL     1      -5.698  15.092  16.972  0.00  0.00    -0.303 NA
ATOM     42  C   UNL     1      -7.119  13.507  15.717  0.00  0.00    +0.100 C 
ATOM     43  C   UNL     1      -8.043  14.660  17.622  0.00  0.00    +0.100 C 
ATOM     44  C   UNL     1      -5.704  13.845  16.198  0.00  0.00    +0.099 C 
ATOM     45  C   UNL     1      -6.628  14.997  18.105  0.00  0.00    +0.099 C 
ATOM     46  C   UNL     1      -4.349  15.410  17.434  0.00  0.00    +0.105 C 
ENDBRANCH  41  10
ENDBRANCH  38  41
ENDBRANCH  30  31
BRANCH  14   2
ATOM      2  O   UNL     1     -15.044   2.987  24.395  0.00  0.00    -0.391 OA
ATOM     47  H   UNL     1     -15.002   3.608  25.143  0.00  0.00    +0.210 HD
ENDBRANCH  14   2
BRANCH  15  21
ATOM     21  C   UNL     1     -17.625   1.633  24.744  0.00  0.00    +0.077 C 
ATOM     25  C   UNL     1     -19.007   1.165  24.299  0.00  0.00    +0.017 C 
BRANCH  21  26
ATOM      3  O   UNL     1     -17.595   0.285  26.760  0.00  0.00    -0.276 OA
ATOM      7  N   UNL     1     -17.064   2.537  26.916  0.00  0.00    -0.314 N 
ATOM     26  C   UNL     1     -17.436   1.387  26.238  0.00  0.00    +0.216 C 
ATOM     48  H   UNL     1     -16.899   3.397  26.403  0.00  0.00    +0.149 HD
BRANCH   7  28
ATOM     28  C   UNL     1     -16.819   2.561  28.340  0.00  0.00    +0.119 C 
BRANCH  28  29
ATOM     29  C   UNL     1     -15.397   3.006  28.648  0.00  0.00    +0.103 C 
BRANCH  29   9
ATOM      5  O   UNL     1     -14.948   0.081  31.622  0.00  0.00    -0.377 OA
ATOM      9  N   UNL     1     -14.802   2.139  29.662  0.00  0.00    -0.297 NA
ATOM     32  C   UNL     1     -14.935   0.726  29.283  0.00  0.00    +0.112 C 
ATOM     33  C   UNL     1     -15.424   2.369  30.974  0.00  0.00    +0.112 C 
ATOM     34  C   UNL     1     -14.319  -0.160  30.363  0.00  0.00    +0.175 C 
ATOM     35  C   UNL     1     -14.796   1.445  32.014  0.00  0.00    +0.175 C 
ENDBRANCH  29   9
ENDBRANCH  28  29
ENDBRANCH   7  28
ENDBRANCH  21  26
ENDBRANCH  15  21
TORSDOF 9
ENDMDL
MODEL 2
REMARK VINA RESULT:      -7.9     21.177     22.706
REMARK  Name = 24039275
REMARK  13 active torsions:
REMARK  status: ('A' for Active; 'I' for Inactive)
REMARK    1  A    between atoms: O_2  and  C_14
REMARK    2  A    between atoms: N_7  and  C_28
REMARK    3  A    between atoms: N_9  and  C_29
REMARK    4  A    between atoms: N_10  and  C_41
REMARK    5  A    between atoms: N_11  and  C_46
REMARK    6  A    between atoms: C_12  and  C_20
REMARK    7  A    between atoms: C_15  and  C_21
REMARK    8  A    between atoms: C_17  and  C_24
REMARK    9  A    between atoms: C_21  and  C_25
REMARK   10  A    between atoms: C_21  and  C_26
REMARK   11  A    between atoms: C_28  and  C_29
REMARK   12  A    between atoms: C_30  and  C_31
REMARK   13  A    between atoms: C_38  and  C_41
REMARK                            x       y       z     vdW  Elec       q    Type
REMARK                         _______ _______ _______ _____ _____    ______ ____
ROOT
ATOM      1  S   UNL     1      -5.610 -10.306   6.789  0.00  0.00    -0.057 S 
ATOM      4  O   UNL     1      -9.120  -7.250   6.894  0.00  0.00    -0.270 OA
ATOM      6  N   UNL     1      -7.070  -8.827   8.328  0.00  0.00    -0.229 NA
ATOM      8  N   UNL     1      -7.550  -8.745   5.967  0.00  0.00    -0.261 N 
ATOM     12  C   UNL     1      -3.868 -10.584  10.504  0.00  0.00    -0.022 C 
ATOM     13  C   UNL     1      -5.197 -10.353  11.325  0.00  0.00    +0.033 C 
ATOM     14  C   UNL     1      -4.894 -10.028  12.816  0.00  0.00    +0.123 C 
ATOM     15  C   UNL     1      -3.953 -11.059  13.473  0.00  0.00    +0.029 C 
ATOM     16  C   UNL     1      -2.995 -11.644  11.216  0.00  0.00    +0.008 C 
ATOM     17  C   UNL     1      -6.146  -9.293  10.629  0.00  0.00    +0.042 C 
ATOM     18  C   UNL     1      -2.678 -11.287  12.661  0.00  0.00    +0.007 C 
ATOM     19  C   UNL     1      -4.212 -11.137   9.086  0.00  0.00    +0.051 C 
ATOM     20  C   UNL     1      -3.046  -9.279  10.348  0.00  0.00    +0.012 C 
ATOM     22  C   UNL     1      -6.175  -9.509   9.135  0.00  0.00    +0.057 A 
ATOM     23  C   UNL     1      -5.295 -10.331   8.462  0.00  0.00    +0.015 A 
ATOM     24  C   UNL     1      -7.577  -9.300  11.186  0.00  0.00    +0.014 C 
ATOM     27  C   UNL     1      -6.872  -9.177   7.076  0.00  0.00    +0.165 A 
ATOM     30  C   UNL     1      -8.612  -7.826   5.937  0.00  0.00    +0.250 C 
ATOM     49  H   UNL     1      -7.190  -9.125   5.098  0.00  0.00    +0.157 HD
ENDROOT
BRANCH  30  31
ATOM     31  C   UNL     1      -9.145  -7.514   4.585  0.00  0.00    +0.037 A 
ATOM     36  C   UNL     1      -8.357  -7.736   3.456  0.00  0.00    +0.013 A 
ATOM     37  C   UNL     1     -10.433  -6.997   4.446  0.00  0.00    +0.013 A 
ATOM     38  C   UNL     1     -10.146  -6.926   2.048  0.00  0.00    -0.033 A 
ATOM     39  C   UNL     1      -8.858  -7.441   2.187  0.00  0.00    +0.005 A 
ATOM     40  C   UNL     1     -10.934  -6.703   3.178  0.00  0.00    +0.005 A 
BRANCH  38  41
ATOM     41  C   UNL     1     -10.681  -6.610   0.693  0.00  0.00    +0.119 C 
BRANCH  41  10
ATOM     10  N   UNL     1     -11.683  -5.546   0.724  0.00  0.00    -0.296 NA
ATOM     11  N   UNL     1     -13.477  -3.658  -0.531  0.00  0.00    -0.303 NA
ATOM     42  C   UNL     1     -11.177  -4.334   0.070  0.00  0.00    +0.100 C 
ATOM     43  C   UNL     1     -12.931  -5.988   0.091  0.00  0.00    +0.100 C 
ATOM     44  C   UNL     1     -12.227  -3.218   0.100  0.00  0.00    +0.099 C 
ATOM     45  C   UNL     1     -13.982  -4.872   0.123  0.00  0.00    +0.099 C 
ATOM     46  C   UNL     1     -14.479  -2.595  -0.497  0.00  0.00    +0.105 C 
ENDBRANCH  41  10
ENDBRANCH  38  41
ENDBRANCH  30  31
BRANCH  14   2
ATOM      2  O   UNL     1      -6.114 -10.033  13.558  0.00  0.00    -0.391 OA
ATOM     47  H   UNL     1      -6.607  -9.225  13.332  0.00  0.00    +0.210 HD
ENDBRANCH  14   2
BRANCH  15  21
ATOM     21  C   UNL     1      -3.583 -10.660  14.907  0.00  0.00    +0.077 C 
ATOM     25  C   UNL     1      -2.073 -10.749  15.105  0.00  0.00    +0.017 C 
BRANCH  21  26
ATOM      3  O   UNL     1      -5.274 -12.241  15.627  0.00  0.00    -0.276 OA
ATOM      7  N   UNL     1      -3.741 -11.462  17.183  0.00  0.00    -0.314 N 
ATOM     26  C   UNL     1      -4.306 -11.543  15.920  0.00  0.00    +0.216 C 
ATOM     48  H   UNL     1      -2.907 -10.904  17.332  0.00  0.00    +0.149 HD
BRANCH   7  28
ATOM     28  C   UNL     1      -4.245 -12.209  18.313  0.00  0.00    +0.119 C 
BRANCH  28  29
ATOM     29  C   UNL     1      -5.175 -11.358  19.166  0.00  0.00    +0.103 C 
BRANCH  29   9
ATOM      5  O   UNL     1      -9.346 -10.976  18.907  0.00  0.00    -0.377 OA
ATOM      9  N   UNL     1      -6.556 -11.505  18.712  0.00  0.00    -0.297 NA
ATOM     32  C   UNL     1      -7.120 -10.205  18.326  0.00  0.00    +0.112 C 
ATOM     33  C   UNL     1      -7.385 -12.122  19.757  0.00  0.00    +0.112 C 
ATOM     34  C   UNL     1      -8.566 -10.382  17.869  0.00  0.00    +0.175 C 
ATOM     35  C   UNL     1      -8.824 -12.255  19.266  0.00  0.00    +0.175 C 
ENDBRANCH  29   9
ENDBRANCH  28  29
ENDBRANCH   7  28
ENDBRANCH  21  26
ENDBRANCH  15  21
TORSDOF 9
ENDMDL
MODEL 3
REMARK VINA RESULT:      -7.7     21.914     23.608
REMARK  Name = 24039275
REMARK  13 active torsions:
REMARK  status: ('A' for Active; 'I' for Inactive)
REMARK    1  A    between atoms: O_2  and  C_14
REMARK    2  A    between atoms: N_7  and  C_28
REMARK    3  A    between atoms: N_9  and  C_29
REMARK    4  A    between atoms: N_10  and  C_41
REMARK    5  A    between atoms: N_11  and  C_46
REMARK    6  A    between atoms: C_12  and  C_20
REMARK    7  A    between atoms: C_15  and  C_21
REMARK    8  A    between atoms: C_17  and  C_24
REMARK    9  A    between atoms: C_21  and  C_25
REMARK   10  A    between atoms: C_21  and  C_26
REMARK   11  A    between atoms: C_28  and  C_29
REMARK   12  A    between atoms: C_30  and  C_31
REMARK   13  A    between atoms: C_38  and  C_41
REMARK                            x       y       z     vdW  Elec       q    Type
REMARK                         _______ _______ _______ _____ _____    ______ ____
ROOT
ATOM      1  S   UNL     1      -5.052 -10.842   7.694  0.00  0.00    -0.057 S 
ATOM      4  O   UNL     1      -8.218  -7.435   7.517  0.00  0.00    -0.270 OA
ATOM      6  N   UNL     1      -6.336  -9.086   9.092  0.00  0.00    -0.229 NA
ATOM      8  N   UNL     1      -6.822  -9.165   6.731  0.00  0.00    -0.261 N 
ATOM     12  C   UNL     1      -3.322 -10.970  11.424  0.00  0.00    -0.022 C 
ATOM     13  C   UNL     1      -4.614 -10.527  12.218  0.00  0.00    +0.033 C 
ATOM     14  C   UNL     1      -4.268 -10.104  13.674  0.00  0.00    +0.123 C 
ATOM     15  C   UNL     1      -3.436 -11.167  14.423  0.00  0.00    +0.029 C 
ATOM     16  C   UNL     1      -2.562 -12.050  12.230  0.00  0.00    +0.008 C 
ATOM     17  C   UNL     1      -5.451  -9.440  11.427  0.00  0.00    +0.042 C 
ATOM     18  C   UNL     1      -2.199 -11.600  13.638  0.00  0.00    +0.007 C 
ATOM     19  C   UNL     1      -3.734 -11.608  10.060  0.00  0.00    +0.051 C 
ATOM     20  C   UNL     1      -2.369  -9.779  11.154  0.00  0.00    +0.012 C 
ATOM     22  C   UNL     1      -5.513  -9.784   9.958  0.00  0.00    +0.057 A 
ATOM     23  C   UNL     1      -4.729 -10.752   9.364  0.00  0.00    +0.015 A 
ATOM     24  C   UNL     1      -6.870  -9.245  11.979  0.00  0.00    +0.014 C 
ATOM     27  C   UNL     1      -6.185  -9.566   7.876  0.00  0.00    +0.165 A 
ATOM     30  C   UNL     1      -7.781  -8.145   6.617  0.00  0.00    +0.250 C 
ATOM     49  H   UNL     1      -6.510  -9.656   5.901  0.00  0.00    +0.157 HD
ENDROOT
BRANCH  30  31
ATOM     31  C   UNL     1      -8.287  -7.900   5.241  0.00  0.00    +0.037 A 
ATOM     36  C   UNL     1      -9.530  -7.295   5.053  0.00  0.00    +0.013 A 
ATOM     37  C   UNL     1      -7.520  -8.274   4.138  0.00  0.00    +0.013 A 
ATOM     38  C   UNL     1      -9.238  -7.439   2.659  0.00  0.00    -0.033 A 
ATOM     39  C   UNL     1     -10.006  -7.066   3.761  0.00  0.00    +0.005 A 
ATOM     40  C   UNL     1      -7.995  -8.043   2.847  0.00  0.00    +0.005 A 
BRANCH  38  41
ATOM     41  C   UNL     1      -9.746  -7.195   1.278  0.00  0.00    +0.119 C 
BRANCH  41  10
ATOM     10  N   UNL     1     -10.104  -8.433   0.590  0.00  0.00    -0.296 NA
ATOM     11  N   UNL     1     -11.156  -9.922  -1.654  0.00  0.00    -0.303 NA
ATOM     42  C   UNL     1     -11.544  -8.477   0.312  0.00  0.00    +0.100 C 
ATOM     43  C   UNL     1      -9.338  -8.579  -0.653  0.00  0.00    +0.100 C 
ATOM     44  C   UNL     1     -11.923  -9.774  -0.411  0.00  0.00    +0.099 C 
ATOM     45  C   UNL     1      -9.715  -9.878  -1.376  0.00  0.00    +0.099 C 
ATOM     46  C   UNL     1     -11.514 -11.162  -2.340  0.00  0.00    +0.105 C 
ENDBRANCH  41  10
ENDBRANCH  38  41
ENDBRANCH  30  31
BRANCH  14   2
ATOM      2  O   UNL     1      -5.476  -9.914  14.411  0.00  0.00    -0.391 OA
ATOM     47  H   UNL     1      -5.652  -8.959  14.457  0.00  0.00    +0.210 HD
ENDBRANCH  14   2
BRANCH  15  21
ATOM     21  C   UNL     1      -3.016 -10.683  15.817  0.00  0.00    +0.077 C 
ATOM     25  C   UNL     1      -1.500 -10.763  15.967  0.00  0.00    +0.017 C 
BRANCH  21  26
ATOM      3  O   UNL     1      -3.394 -11.427  18.093  0.00  0.00    -0.276 OA
ATOM      7  N   UNL     1      -4.701 -12.318  16.397  0.00  0.00    -0.314 N 
ATOM     26  C   UNL     1      -3.703 -11.501  16.906  0.00  0.00    +0.216 C 
ATOM     48  H   UNL     1      -4.932 -12.282  15.410  0.00  0.00    +0.149 HD
BRANCH   7  28
ATOM     28  C   UNL     1      -5.500 -13.187  17.231  0.00  0.00    +0.119 C 
BRANCH  28  29
ATOM     29  C   UNL     1      -6.987 -12.937  17.021  0.00  0.00    +0.103 C 
BRANCH  29   9
ATOM      5  O   UNL     1      -8.764  -9.174  16.484  0.00  0.00    -0.377 OA
ATOM      9  N   UNL     1      -7.214 -11.558  16.593  0.00  0.00    -0.297 NA
ATOM     32  C   UNL     1      -7.333 -10.665  17.754  0.00  0.00    +0.112 C 
ATOM     33  C   UNL     1      -8.421 -11.463  15.760  0.00  0.00    +0.112 C 
ATOM     34  C   UNL     1      -7.583  -9.235  17.284  0.00  0.00    +0.175 C 
ATOM     35  C   UNL     1      -8.645 -10.014  15.336  0.00  0.00    +0.175 C 
ENDBRANCH  29   9
ENDBRANCH  28  29
ENDBRANCH   7  28
ENDBRANCH  21  26
ENDBRANCH  15  21
TORSDOF 9
ENDMDL
MODEL 4
REMARK VINA RESULT:      -7.5     22.332     23.857
REMARK  Name = 24039275
REMARK  13 active torsions:
REMARK  status: ('A' for Active; 'I' for Inactive)
REMARK    1  A    between atoms: O_2  and  C_14
REMARK    2  A    between atoms: N_7  and  C_28
REMARK    3  A    between atoms: N_9  and  C_29
REMARK    4  A    between atoms: N_10  and  C_41
REMARK    5  A    between atoms: N_11  and  C_46
REMARK    6  A    between atoms: C_12  and  C_20
REMARK    7  A    between atoms: C_15  and  C_21
REMARK    8  A    between atoms: C_17  and  C_24
REMARK    9  A    between atoms: C_21  and  C_25
REMARK   10  A    between atoms: C_21  and  C_26
REMARK   11  A    between atoms: C_28  and  C_29
REMARK   12  A    between atoms: C_30  and  C_31
REMARK   13  A    between atoms: C_38  and  C_41
REMARK                            x       y       z     vdW  Elec       q    Type
REMARK                         _______ _______ _______ _____ _____    ______ ____
ROOT
ATOM      1  S   UNL     1      -4.850 -11.752   7.818  0.00  0.00    -0.057 S 
ATOM      4  O   UNL     1      -7.920  -8.357   6.974  0.00  0.00    -0.270 OA
ATOM      6  N   UNL     1      -6.174  -9.799   8.877  0.00  0.00    -0.229 NA
ATOM      8  N   UNL     1      -6.520 -10.199   6.525  0.00  0.00    -0.261 N 
ATOM     12  C   UNL     1      -3.349 -11.383  11.630  0.00  0.00    -0.022 C 
ATOM     13  C   UNL     1      -4.675 -10.814  12.273  0.00  0.00    +0.033 C 
ATOM     14  C   UNL     1      -4.406 -10.197  13.675  0.00  0.00    +0.123 C 
ATOM     15  C   UNL     1      -3.645 -11.157  14.615  0.00  0.00    +0.029 C 
ATOM     16  C   UNL     1      -2.663 -12.350  12.624  0.00  0.00    +0.008 C 
ATOM     17  C   UNL     1      -5.438  -9.836  11.289  0.00  0.00    +0.042 C 
ATOM     18  C   UNL     1      -2.374 -11.714  13.976  0.00  0.00    +0.007 C 
ATOM     19  C   UNL     1      -3.693 -12.199  10.345  0.00  0.00    +0.051 C 
ATOM     20  C   UNL     1      -2.354 -10.255  11.257  0.00  0.00    +0.012 C 
ATOM     22  C   UNL     1      -5.420 -10.381   9.881  0.00  0.00    +0.057 A 
ATOM     23  C   UNL     1      -4.625 -11.433   9.476  0.00  0.00    +0.015 A 
ATOM     24  C   UNL     1      -6.882  -9.545  11.720  0.00  0.00    +0.014 C 
ATOM     27  C   UNL     1      -5.962 -10.446   7.751  0.00  0.00    +0.165 A 
ATOM     30  C   UNL     1      -7.446  -9.192   6.210  0.00  0.00    +0.250 C 
ATOM     49  H   UNL     1      -6.171 -10.807   5.791  0.00  0.00    +0.157 HD
ENDROOT
BRANCH  30  31
ATOM     31  C   UNL     1      -7.864  -9.133   4.785  0.00  0.00    +0.037 A 
ATOM     36  C   UNL     1      -7.443  -8.077   3.977  0.00  0.00    +0.013 A 
ATOM     37  C   UNL     1      -8.678 -10.135   4.255  0.00  0.00    +0.013 A 
ATOM     38  C   UNL     1      -8.649  -9.024   2.110  0.00  0.00    -0.033 A 
ATOM     39  C   UNL     1      -7.837  -8.022   2.640  0.00  0.00    +0.005 A 
ATOM     40  C   UNL     1      -9.070 -10.080   2.918  0.00  0.00    +0.005 A 
BRANCH  38  41
ATOM     41  C   UNL     1      -9.071  -8.965   0.681  0.00  0.00    +0.119 C 
BRANCH  41  10
ATOM     10  N   UNL     1      -8.095  -9.585  -0.214  0.00  0.00    -0.296 NA
ATOM     11  N   UNL     1      -7.306 -10.827  -2.702  0.00  0.00    -0.303 NA
ATOM     42  C   UNL     1      -8.485 -10.963  -0.536  0.00  0.00    +0.100 C 
ATOM     43  C   UNL     1      -7.939  -8.797  -1.441  0.00  0.00    +0.100 C 
ATOM     44  C   UNL     1      -7.465 -11.615  -1.474  0.00  0.00    +0.099 C 
ATOM     45  C   UNL     1      -6.916  -9.448  -2.380  0.00  0.00    +0.099 C 
ATOM     46  C   UNL     1      -6.329 -11.446  -3.595  0.00  0.00    +0.105 C 
ENDBRANCH  41  10
ENDBRANCH  38  41
ENDBRANCH  30  31
BRANCH  14   2
ATOM      2  O   UNL     1      -5.651  -9.888  14.302  0.00  0.00    -0.391 OA
ATOM     47  H   UNL     1      -6.053  -9.144  13.822  0.00  0.00    +0.210 HD
ENDBRANCH  14   2
BRANCH  15  21
ATOM     21  C   UNL     1      -3.298 -10.489  15.951  0.00  0.00    +0.077 C 
ATOM     25  C   UNL     1      -1.815 -10.671  16.261  0.00  0.00    +0.017 C 
BRANCH  21  26
ATOM      3  O   UNL     1      -3.703 -11.808  17.945  0.00  0.00    -0.276 OA
ATOM      7  N   UNL     1      -5.467 -10.626  17.012  0.00  0.00    -0.314 N 
ATOM     26  C   UNL     1      -4.151 -11.058  17.080  0.00  0.00    +0.216 C 
ATOM     48  H   UNL     1      -5.746  -9.962  16.298  0.00  0.00    +0.149 HD
BRANCH   7  28
ATOM     28  C   UNL     1      -6.471 -11.023  17.973  0.00  0.00    +0.119 C 
BRANCH  28  29
ATOM     29  C   UNL     1      -7.624 -11.750  17.296  0.00  0.00    +0.103 C 
BRANCH  29   9
ATOM      5  O   UNL     1     -10.422 -10.086  19.945  0.00  0.00    -0.377 OA
ATOM      9  N   UNL     1      -8.884 -11.442  17.971  0.00  0.00    -0.297 NA
ATOM     32  C   UNL     1      -9.207 -10.014  17.846  0.00  0.00    +0.112 C 
ATOM     33  C   UNL     1      -8.820 -11.821  19.389  0.00  0.00    +0.112 C 
ATOM     34  C   UNL     1     -10.517  -9.714  18.569  0.00  0.00    +0.175 C 
ATOM     35  C   UNL     1     -10.140 -11.479  20.076  0.00  0.00    +0.175 C 
ENDBRANCH  29   9
ENDBRANCH  28  29
ENDBRANCH   7  28
ENDBRANCH  21  26
ENDBRANCH  15  21
TORSDOF 9
ENDMDL
MODEL 5
REMARK VINA RESULT:      -6.9     15.278     17.067
REMARK  Name = 24039275
REMARK  13 active torsions:
REMARK  status: ('A' for Active; 'I' for Inactive)
REMARK    1  A    between atoms: O_2  and  C_14
REMARK    2  A    between atoms: N_7  and  C_28
REMARK    3  A    between atoms: N_9  and  C_29
REMARK    4  A    between atoms: N_10  and  C_41
REMARK    5  A    between atoms: N_11  and  C_46
REMARK    6  A    between atoms: C_12  and  C_20
REMARK    7  A    between atoms: C_15  and  C_21
REMARK    8  A    between atoms: C_17  and  C_24
REMARK    9  A    between atoms: C_21  and  C_25
REMARK   10  A    between atoms: C_21  and  C_26
REMARK   11  A    between atoms: C_28  and  C_29
REMARK   12  A    between atoms: C_30  and  C_31
REMARK   13  A    between atoms: C_38  and  C_41
REMARK                            x       y       z     vdW  Elec       q    Type
REMARK                         _______ _______ _______ _____ _____    ______ ____
ROOT
ATOM      1  S   UNL     1     -13.017  -7.902  12.242  0.00  0.00    -0.057 S 
ATOM      4  O   UNL     1     -12.915  -3.295  12.902  0.00  0.00    -0.270 OA
ATOM      6  N   UNL     1     -12.084  -6.008  13.736  0.00  0.00    -0.229 NA
ATOM      8  N   UNL     1     -13.489  -5.347  11.891  0.00  0.00    -0.261 N 
ATOM     12  C   UNL     1     -10.353  -9.750  14.773  0.00  0.00    -0.022 C 
ATOM     13  C   UNL     1     -10.530  -8.732  15.968  0.00  0.00    +0.033 C 
ATOM     14  C   UNL     1      -9.396  -8.888  17.020  0.00  0.00    +0.123 C 
ATOM     15  C   UNL     1      -9.216 -10.346  17.494  0.00  0.00    +0.029 C 
ATOM     16  C   UNL     1     -10.204 -11.185  15.331  0.00  0.00    +0.008 C 
ATOM     17  C   UNL     1     -10.714  -7.244  15.456  0.00  0.00    +0.042 C 
ATOM     18  C   UNL     1      -9.063 -11.324  16.329  0.00  0.00    +0.007 C 
ATOM     19  C   UNL     1     -11.624  -9.729  13.869  0.00  0.00    +0.051 C 
ATOM     20  C   UNL     1      -9.113  -9.416  13.905  0.00  0.00    +0.012 C 
ATOM     22  C   UNL     1     -11.626  -7.208  14.253  0.00  0.00    +0.057 A 
ATOM     23  C   UNL     1     -12.014  -8.330  13.550  0.00  0.00    +0.015 A 
ATOM     24  C   UNL     1     -11.238  -6.290  16.538  0.00  0.00    +0.014 C 
ATOM     27  C   UNL     1     -12.835  -6.253  12.684  0.00  0.00    +0.165 A 
ATOM     30  C   UNL     1     -13.493  -3.951  12.039  0.00  0.00    +0.250 C 
ATOM     49  H   UNL     1     -13.975  -5.770  11.108  0.00  0.00    +0.157 HD
ENDROOT
BRANCH  30  31
ATOM     31  C   UNL     1     -14.266  -3.204  11.013  0.00  0.00    +0.037 A 
ATOM     36  C   UNL     1     -13.866  -3.237   9.677  0.00  0.00    +0.013 A 
ATOM     37  C   UNL     1     -15.392  -2.470  11.385  0.00  0.00    +0.013 A 
ATOM     38  C   UNL     1     -15.718  -1.802   9.086  0.00  0.00    -0.033 A 
ATOM     39  C   UNL     1     -14.592  -2.535   8.714  0.00  0.00    +0.005 A 
ATOM     40  C   UNL     1     -16.118  -1.769  10.422  0.00  0.00    +0.005 A 
BRANCH  38  41
ATOM     41  C   UNL     1     -16.494  -1.051   8.058  0.00  0.00    +0.119 C 
BRANCH  41  10
ATOM     10  N   UNL     1     -15.710   0.015   7.437  0.00  0.00    -0.296 NA
ATOM     11  N   UNL     1     -15.299   2.743   6.573  0.00  0.00    -0.303 NA
ATOM     42  C   UNL     1     -16.401   0.553   6.261  0.00  0.00    +0.100 C 
ATOM     43  C   UNL     1     -15.430   1.085   8.402  0.00  0.00    +0.100 C 
ATOM     44  C   UNL     1     -15.581   1.672   5.609  0.00  0.00    +0.099 C 
ATOM     45  C   UNL     1     -14.608   2.204   7.751  0.00  0.00    +0.099 C 
ATOM     46  C   UNL     1     -14.513   3.807   5.952  0.00  0.00    +0.105 C 
ENDBRANCH  41  10
ENDBRANCH  38  41
ENDBRANCH  30  31
BRANCH  14   2
ATOM      2  O   UNL     1      -9.707  -8.104  18.171  0.00  0.00    -0.391 OA
ATOM     47  H   UNL     1     -10.617  -8.315  18.442  0.00  0.00    +0.210 HD
ENDBRANCH  14   2
BRANCH  15  21
ATOM     21  C   UNL     1      -8.024 -10.494  18.447  0.00  0.00    +0.077 C 
ATOM     25  C   UNL     1      -6.742 -10.730  17.655  0.00  0.00    +0.017 C 
BRANCH  21  26
ATOM      3  O   UNL     1      -7.347 -12.170  20.062  0.00  0.00    -0.276 OA
ATOM      7  N   UNL     1      -9.597 -11.972  19.539  0.00  0.00    -0.314 N 
ATOM     26  C   UNL     1      -8.257 -11.632  19.436  0.00  0.00    +0.216 C 
ATOM     48  H   UNL     1     -10.295 -11.442  19.028  0.00  0.00    +0.149 HD
BRANCH   7  28
ATOM     28  C   UNL     1     -10.073 -13.018  20.415  0.00  0.00    +0.119 C 
BRANCH  28  29
ATOM     29  C   UNL     1     -11.555 -13.288  20.196  0.00  0.00    +0.103 C 
BRANCH  29   9
ATOM      5  O   UNL     1     -14.826 -11.605  22.215  0.00  0.00    -0.377 OA
ATOM      9  N   UNL     1     -12.361 -12.410  21.041  0.00  0.00    -0.297 NA
ATOM     32  C   UNL     1     -12.967 -13.164  22.147  0.00  0.00    +0.112 C 
ATOM     33  C   UNL     1     -13.408 -11.745  20.252  0.00  0.00    +0.112 C 
ATOM     34  C   UNL     1     -13.815 -12.230  23.007  0.00  0.00    +0.175 C 
ATOM     35  C   UNL     1     -14.244 -10.844  21.157  0.00  0.00    +0.175 C 
ENDBRANCH  29   9
ENDBRANCH  28  29
ENDBRANCH   7  28
ENDBRANCH  21  26
ENDBRANCH  15  21
TORSDOF 9
ENDMDL
MODEL 6
REMARK VINA RESULT:      -6.9     25.562     30.602
REMARK  Name = 24039275
REMARK  13 active torsions:
REMARK  status: ('A' for Active; 'I' for Inactive)
REMARK    1  A    between atoms: O_2  and  C_14
REMARK    2  A    between atoms: N_7  and  C_28
REMARK    3  A    between atoms: N_9  and  C_29
REMARK    4  A    between atoms: N_10  and  C_41
REMARK    5  A    between atoms: N_11  and  C_46
REMARK    6  A    between atoms: C_12  and  C_20
REMARK    7  A    between atoms: C_15  and  C_21
REMARK    8  A    between atoms: C_17  and  C_24
REMARK    9  A    between atoms: C_21  and  C_25
REMARK   10  A    between atoms: C_21  and  C_26
REMARK   11  A    between atoms: C_28  and  C_29
REMARK   12  A    between atoms: C_30  and  C_31
REMARK   13  A    between atoms: C_38  and  C_41
REMARK                            x       y       z     vdW  Elec       q    Type
REMARK                         _______ _______ _______ _____ _____    ______ ____
ROOT
ATOM      1  S   UNL     1      17.345  13.039  16.418  0.00  0.00    -0.057 S 
ATOM      4  O   UNL     1      15.295  11.486  12.538  0.00  0.00    -0.270 OA
ATOM      6  N   UNL     1      15.212  11.934  15.460  0.00  0.00    -0.229 NA
ATOM      8  N   UNL     1      16.969  12.447  13.892  0.00  0.00    -0.261 N 
ATOM     12  C   UNL     1      14.677  12.972  19.548  0.00  0.00    -0.022 C 
ATOM     13  C   UNL     1      13.896  11.685  19.069  0.00  0.00    +0.033 C 
ATOM     14  C   UNL     1      12.545  11.528  19.823  0.00  0.00    +0.123 C 
ATOM     15  C   UNL     1      12.704  11.599  21.357  0.00  0.00    +0.029 C 
ATOM     16  C   UNL     1      14.814  12.953  21.089  0.00  0.00    +0.008 C 
ATOM     17  C   UNL     1      13.748  11.636  17.493  0.00  0.00    +0.042 C 
ATOM     18  C   UNL     1      13.477  12.838  21.807  0.00  0.00    +0.007 C 
ATOM     19  C   UNL     1      16.119  12.967  18.951  0.00  0.00    +0.051 C 
ATOM     20  C   UNL     1      13.962  14.279  19.122  0.00  0.00    +0.012 C 
ATOM     22  C   UNL     1      15.033  12.066  16.826  0.00  0.00    +0.057 A 
ATOM     23  C   UNL     1      16.079  12.669  17.495  0.00  0.00    +0.015 A 
ATOM     24  C   UNL     1      13.321  10.258  16.966  0.00  0.00    +0.014 C 
ATOM     27  C   UNL     1      16.398  12.402  15.136  0.00  0.00    +0.165 A 
ATOM     30  C   UNL     1      16.400  11.998  12.689  0.00  0.00    +0.250 C 
ATOM     49  H   UNL     1      17.880  12.894  13.880  0.00  0.00    +0.157 HD
ENDROOT
BRANCH  30  31
ATOM     31  C   UNL     1      17.235  12.199  11.476  0.00  0.00    +0.037 A 
ATOM     36  C   UNL     1      18.619  12.032  11.545  0.00  0.00    +0.013 A 
ATOM     37  C   UNL     1      16.636  12.554  10.268  0.00  0.00    +0.013 A 
ATOM     38  C   UNL     1      18.803  12.576   9.198  0.00  0.00    -0.033 A 
ATOM     39  C   UNL     1      19.402  12.222  10.407  0.00  0.00    +0.005 A 
ATOM     40  C   UNL     1      17.419  12.742   9.129  0.00  0.00    +0.005 A 
BRANCH  38  41
ATOM     41  C   UNL     1      19.639  12.779   7.981  0.00  0.00    +0.119 C 
BRANCH  41  10
ATOM     10  N   UNL     1      20.429  11.597   7.644  0.00  0.00    -0.296 NA
ATOM     11  N   UNL     1      21.326   9.527   5.836  0.00  0.00    -0.303 NA
ATOM     42  C   UNL     1      19.558  10.474   7.278  0.00  0.00    +0.100 C 
ATOM     43  C   UNL     1      21.370  11.891   6.557  0.00  0.00    +0.100 C 
ATOM     44  C   UNL     1      20.384   9.234   6.923  0.00  0.00    +0.099 C 
ATOM     45  C   UNL     1      22.198  10.650   6.203  0.00  0.00    +0.099 C 
ATOM     46  C   UNL     1      22.117   8.344   5.502  0.00  0.00    +0.105 C 
ENDBRANCH  41  10
ENDBRANCH  38  41
ENDBRANCH  30  31
BRANCH  14   2
ATOM      2  O   UNL     1      11.975  10.256  19.513  0.00  0.00    -0.391 OA
ATOM     47  H   UNL     1      12.702   9.618  19.414  0.00  0.00    +0.210 HD
ENDBRANCH  14   2
BRANCH  15  21
ATOM     21  C   UNL     1      11.349  11.550  22.073  0.00  0.00    +0.077 C 
ATOM     25  C   UNL     1      11.237  12.703  23.066  0.00  0.00    +0.017 C 
BRANCH  21  26
ATOM      3  O   UNL     1      11.294  10.078  23.999  0.00  0.00    -0.276 OA
ATOM      7  N   UNL     1      10.818   9.196  21.908  0.00  0.00    -0.314 N 
ATOM     26  C   UNL     1      11.159  10.214  22.785  0.00  0.00    +0.216 C 
ATOM     48  H   UNL     1      10.673   9.401  20.925  0.00  0.00    +0.149 HD
BRANCH   7  28
ATOM     28  C   UNL     1      10.580   7.838  22.341  0.00  0.00    +0.119 C 
BRANCH  28  29
ATOM     29  C   UNL     1      11.357   6.844  21.490  0.00  0.00    +0.103 C 
BRANCH  29   9
ATOM      5  O   UNL     1      15.173   7.553  19.896  0.00  0.00    -0.377 OA
ATOM      9  N   UNL     1      12.491   7.504  20.848  0.00  0.00    -0.297 NA
ATOM     32  C   UNL     1      12.886   6.789  19.626  0.00  0.00    +0.112 C 
ATOM     33  C   UNL     1      13.632   7.593  21.769  0.00  0.00    +0.112 C 
ATOM     34  C   UNL     1      14.080   7.488  18.980  0.00  0.00    +0.175 C 
ATOM     35  C   UNL     1      14.808   8.274  21.073  0.00  0.00    +0.175 C 
ENDBRANCH  29   9
ENDBRANCH  28  29
ENDBRANCH   7  28
ENDBRANCH  21  26
ENDBRANCH  15  21
TORSDOF 9
ENDMDL
MODEL 7
REMARK VINA RESULT:      -6.9     24.440     27.731
REMARK  Name = 24039275
REMARK  13 active torsions:
REMARK  status: ('A' for Active; 'I' for Inactive)
REMARK    1  A    between atoms: O_2  and  C_14
REMARK    2  A    between atoms: N_7  and  C_28
REMARK    3  A    between atoms: N_9  and  C_29
REMARK    4  A    between atoms: N_10  and  C_41
REMARK    5  A    between atoms: N_11  and  C_46
REMARK    6  A    between atoms: C_12  and  C_20
REMARK    7  A    between atoms: C_15  and  C_21
REMARK    8  A    between atoms: C_17  and  C_24
REMARK    9  A    between atoms: C_21  and  C_25
REMARK   10  A    between atoms: C_21  and  C_26
REMARK   11  A    between atoms: C_28  and  C_29
REMARK   12  A    between atoms: C_30  and  C_31
REMARK   13  A    between atoms: C_38  and  C_41
REMARK                            x       y       z     vdW  Elec       q    Type
REMARK                         _______ _______ _______ _____ _____    ______ ____
ROOT
ATOM      1  S   UNL     1      -8.624  -7.697   6.374  0.00  0.00    -0.057 S 
ATOM      4  O   UNL     1      -4.996 -10.599   6.077  0.00  0.00    -0.270 OA
ATOM      6  N   UNL     1      -7.261  -9.209   4.778  0.00  0.00    -0.229 NA
ATOM      8  N   UNL     1      -6.539  -9.123   7.077  0.00  0.00    -0.261 N 
ATOM     12  C   UNL     1     -10.112  -6.909   2.622  0.00  0.00    -0.022 C 
ATOM     13  C   UNL     1      -9.797  -8.334   2.018  0.00  0.00    +0.033 C 
ATOM     14  C   UNL     1      -9.895  -8.328   0.466  0.00  0.00    +0.123 C 
ATOM     15  C   UNL     1     -11.226  -7.739  -0.047  0.00  0.00    +0.029 C 
ATOM     16  C   UNL     1     -11.469  -6.403   2.078  0.00  0.00    +0.008 C 
ATOM     17  C   UNL     1      -8.428  -8.917   2.561  0.00  0.00    +0.042 C 
ATOM     18  C   UNL     1     -11.529  -6.368   0.557  0.00  0.00    +0.007 C 
ATOM     19  C   UNL     1     -10.239  -7.009   4.174  0.00  0.00    +0.051 C 
ATOM     20  C   UNL     1      -9.013  -5.874   2.273  0.00  0.00    +0.012 C 
ATOM     22  C   UNL     1      -8.284  -8.642   4.039  0.00  0.00    +0.057 A 
ATOM     23  C   UNL     1      -9.099  -7.777   4.741  0.00  0.00    +0.015 A 
ATOM     24  C   UNL     1      -8.257 -10.419   2.290  0.00  0.00    +0.014 C 
ATOM     27  C   UNL     1      -7.349  -8.792   6.023  0.00  0.00    +0.165 A 
ATOM     30  C   UNL     1      -5.432  -9.987   7.047  0.00  0.00    +0.250 C 
ATOM     49  H   UNL     1      -6.777  -8.641   7.938  0.00  0.00    +0.157 HD
ENDROOT
BRANCH  30  31
ATOM     31  C   UNL     1      -4.711 -10.143   8.338  0.00  0.00    +0.037 A 
ATOM     36  C   UNL     1      -4.532 -11.412   8.889  0.00  0.00    +0.013 A 
ATOM     37  C   UNL     1      -4.214  -9.020   8.998  0.00  0.00    +0.013 A 
ATOM     38  C   UNL     1      -3.358 -10.435  10.760  0.00  0.00    -0.033 A 
ATOM     39  C   UNL     1      -3.856 -11.558  10.100  0.00  0.00    +0.005 A 
ATOM     40  C   UNL     1      -3.537  -9.166  10.209  0.00  0.00    +0.005 A 
BRANCH  38  41
ATOM     41  C   UNL     1      -2.636 -10.590  12.056  0.00  0.00    +0.119 C 
BRANCH  41  10
ATOM     10  N   UNL     1      -3.472 -11.195  13.090  0.00  0.00    -0.296 NA
ATOM     11  N   UNL     1      -4.819 -11.183  15.648  0.00  0.00    -0.303 NA
ATOM     42  C   UNL     1      -2.725 -11.340  14.345  0.00  0.00    +0.100 C 
ATOM     43  C   UNL     1      -4.688 -10.403  13.306  0.00  0.00    +0.100 C 
ATOM     44  C   UNL     1      -3.601 -11.974  15.432  0.00  0.00    +0.099 C 
ATOM     45  C   UNL     1      -5.566 -11.037  14.392  0.00  0.00    +0.099 C 
ATOM     46  C   UNL     1      -5.655 -11.790  16.681  0.00  0.00    +0.105 C 
ENDBRANCH  41  10
ENDBRANCH  38  41
ENDBRANCH  30  31
BRANCH  14   2
ATOM      2  O   UNL     1      -9.809  -9.668  -0.019  0.00  0.00    -0.391 OA
ATOM     47  H   UNL     1     -10.547 -10.174   0.364  0.00  0.00    +0.210 HD
ENDBRANCH  14   2
BRANCH  15  21
ATOM     21  C   UNL     1     -11.256  -7.644  -1.577  0.00  0.00    +0.077 C 
ATOM     25  C   UNL     1     -12.026  -6.401  -2.012  0.00  0.00    +0.017 C 
BRANCH  21  26
ATOM      3  O   UNL     1     -13.069  -9.174  -2.076  0.00  0.00    -0.276 OA
ATOM      7  N   UNL     1     -10.946  -9.662  -2.872  0.00  0.00    -0.314 N 
ATOM     26  C   UNL     1     -11.877  -8.896  -2.187  0.00  0.00    +0.216 C 
ATOM     48  H   UNL     1      -9.990  -9.336  -2.965  0.00  0.00    +0.149 HD
BRANCH   7  28
ATOM     28  C   UNL     1     -11.291 -10.896  -3.543  0.00  0.00    +0.119 C 
BRANCH  28  29
ATOM     29  C   UNL     1     -10.428 -12.049  -3.051  0.00  0.00    +0.103 C 
BRANCH  29   9
ATOM      5  O   UNL     1      -6.320 -11.842  -2.219  0.00  0.00    -0.377 OA
ATOM      9  N   UNL     1      -9.125 -11.557  -2.610  0.00  0.00    -0.297 NA
ATOM     32  C   UNL     1      -8.183 -11.495  -3.736  0.00  0.00    +0.112 C 
ATOM     33  C   UNL     1      -8.581 -12.408  -1.543  0.00  0.00    +0.112 C 
ATOM     34  C   UNL     1      -6.827 -10.992  -3.249  0.00  0.00    +0.175 C 
ATOM     35  C   UNL     1      -7.215 -11.882  -1.108  0.00  0.00    +0.175 C 
ENDBRANCH  29   9
ENDBRANCH  28  29
ENDBRANCH   7  28
ENDBRANCH  21  26
ENDBRANCH  15  21
TORSDOF 9
ENDMDL
MODEL 8
REMARK VINA RESULT:      -6.7     23.547     25.081
REMARK  Name = 24039275
REMARK  13 active torsions:
REMARK  status: ('A' for Active; 'I' for Inactive)
REMARK    1  A    between atoms: O_2  and  C_14
REMARK    2  A    between atoms: N_7  and  C_28
REMARK    3  A    between atoms: N_9  and  C_29
REMARK    4  A    between atoms: N_10  and  C_41
REMARK    5  A    between atoms: N_11  and  C_46
REMARK    6  A    between atoms: C_12  and  C_20
REMARK    7  A    between atoms: C_15  and  C_21
REMARK    8  A    between atoms: C_17  and  C_24
REMARK    9  A    between atoms: C_21  and  C_25
REMARK   10  A    between atoms: C_21  and  C_26
REMARK   11  A    between atoms: C_28  and  C_29
REMARK   12  A    between atoms: C_30  and  C_31
REMARK   13  A    between atoms: C_38  and  C_41
REMARK                            x       y       z     vdW  Elec       q    Type
REMARK                         _______ _______ _______ _____ _____    ______ ____
ROOT
ATOM      1  S   UNL     1      -4.118 -14.608  10.207  0.00  0.00    -0.057 S 
ATOM      4  O   UNL     1      -4.287 -11.291   6.946  0.00  0.00    -0.270 OA
ATOM      6  N   UNL     1      -4.571 -12.099   9.777  0.00  0.00    -0.229 NA
ATOM      8  N   UNL     1      -3.991 -13.443   7.862  0.00  0.00    -0.261 N 
ATOM     12  C   UNL     1      -4.504 -12.935  13.945  0.00  0.00    -0.022 C 
ATOM     13  C   UNL     1      -5.479 -11.773  13.503  0.00  0.00    +0.033 C 
ATOM     14  C   UNL     1      -5.586 -10.675  14.599  0.00  0.00    +0.123 C 
ATOM     15  C   UNL     1      -5.926 -11.250  15.990  0.00  0.00    +0.029 C 
ATOM     16  C   UNL     1      -4.928 -13.469  15.333  0.00  0.00    +0.008 C 
ATOM     17  C   UNL     1      -5.110 -11.203  12.072  0.00  0.00    +0.042 C 
ATOM     18  C   UNL     1      -4.988 -12.384  16.399  0.00  0.00    +0.007 C 
ATOM     19  C   UNL     1      -4.607 -14.122  12.936  0.00  0.00    +0.051 C 
ATOM     20  C   UNL     1      -3.030 -12.462  14.016  0.00  0.00    +0.012 C 
ATOM     22  C   UNL     1      -4.753 -12.327  11.130  0.00  0.00    +0.057 A 
ATOM     23  C   UNL     1      -4.522 -13.625  11.537  0.00  0.00    +0.015 A 
ATOM     24  C   UNL     1      -6.220 -10.338  11.458  0.00  0.00    +0.014 C 
ATOM     27  C   UNL     1      -4.246 -13.230   9.191  0.00  0.00    +0.165 A 
ATOM     30  C   UNL     1      -4.024 -12.485   6.836  0.00  0.00    +0.250 C 
ATOM     49  H   UNL     1      -3.718 -14.397   7.649  0.00  0.00    +0.157 HD
ENDROOT
BRANCH  30  31
ATOM     31  C   UNL     1      -3.674 -12.989   5.482  0.00  0.00    +0.037 A 
ATOM     36  C   UNL     1      -3.318 -12.092   4.474  0.00  0.00    +0.013 A 
ATOM     37  C   UNL     1      -3.702 -14.358   5.219  0.00  0.00    +0.013 A 
ATOM     38  C   UNL     1      -3.017 -13.934   2.941  0.00  0.00    -0.033 A 
ATOM     39  C   UNL     1      -2.990 -12.565   3.204  0.00  0.00    +0.005 A 
ATOM     40  C   UNL     1      -3.373 -14.831   3.949  0.00  0.00    +0.005 A 
BRANCH  38  41
ATOM     41  C   UNL     1      -2.668 -14.441   1.582  0.00  0.00    +0.119 C 
BRANCH  41  10
ATOM     10  N   UNL     1      -1.336 -14.017   1.155  0.00  0.00    -0.296 NA
ATOM     11  N   UNL     1       1.282 -14.495   0.027  0.00  0.00    -0.303 NA
ATOM     42  C   UNL     1      -0.296 -14.720   1.915  0.00  0.00    +0.100 C 
ATOM     43  C   UNL     1      -1.156 -14.237  -0.285  0.00  0.00    +0.100 C 
ATOM     44  C   UNL     1       1.101 -14.277   1.468  0.00  0.00    +0.099 C 
ATOM     45  C   UNL     1       0.241 -13.792  -0.733  0.00  0.00    +0.099 C 
ATOM     46  C   UNL     1       2.613 -14.068  -0.399  0.00  0.00    +0.105 C 
ENDBRANCH  41  10
ENDBRANCH  38  41
ENDBRANCH  30  31
BRANCH  14   2
ATOM      2  O   UNL     1      -6.625  -9.760  14.252  0.00  0.00    -0.391 OA
ATOM     47  H   UNL     1      -6.274  -9.145  13.585  0.00  0.00    +0.210 HD
ENDBRANCH  14   2
BRANCH  15  21
ATOM     21  C   UNL     1      -5.920 -10.164  17.073  0.00  0.00    +0.077 C 
ATOM     25  C   UNL     1      -5.050 -10.597  18.249  0.00  0.00    +0.017 C 
BRANCH  21  26
ATOM      3  O   UNL     1      -7.857 -10.413  18.510  0.00  0.00    -0.276 OA
ATOM      7  N   UNL     1      -7.953  -8.891  16.763  0.00  0.00    -0.314 N 
ATOM     26  C   UNL     1      -7.338  -9.857  17.544  0.00  0.00    +0.216 C 
ATOM     48  H   UNL     1      -7.438  -8.440  16.014  0.00  0.00    +0.149 HD
BRANCH   7  28
ATOM     28  C   UNL     1      -9.299  -8.426  17.010  0.00  0.00    +0.119 C 
BRANCH  28  29
ATOM     29  C   UNL     1     -10.324  -9.308  16.313  0.00  0.00    +0.103 C 
BRANCH  29   9
ATOM      5  O   UNL     1     -12.301  -6.188  14.321  0.00  0.00    -0.377 OA
ATOM      9  N   UNL     1     -11.379  -8.489  15.720  0.00  0.00    -0.297 NA
ATOM     32  C   UNL     1     -11.167  -8.333  14.274  0.00  0.00    +0.112 C 
ATOM     33  C   UNL     1     -11.439  -7.170  16.365  0.00  0.00    +0.112 C 
ATOM     34  C   UNL     1     -12.272  -7.464  13.680  0.00  0.00    +0.175 C 
ATOM     35  C   UNL     1     -12.539  -6.329  15.721  0.00  0.00    +0.175 C 
ENDBRANCH  29   9
ENDBRANCH  28  29
ENDBRANCH   7  28
ENDBRANCH  21  26
ENDBRANCH  15  21
TORSDOF 9
ENDMDL
MODEL 9
REMARK VINA RESULT:      -6.7     28.197     30.184
REMARK  Name = 24039275
REMARK  13 active torsions:
REMARK  status: ('A' for Active; 'I' for Inactive)
REMARK    1  A    between atoms: O_2  and  C_14
REMARK    2  A    between atoms: N_7  and  C_28
REMARK    3  A    between atoms: N_9  and  C_29
REMARK    4  A    between atoms: N_10  and  C_41
REMARK    5  A    between atoms: N_11  and  C_46
REMARK    6  A    between atoms: C_12  and  C_20
REMARK    7  A    between atoms: C_15  and  C_21
REMARK    8  A    between atoms: C_17  and  C_24
REMARK    9  A    between atoms: C_21  and  C_25
REMARK   10  A    between atoms: C_21  and  C_26
REMARK   11  A    between atoms: C_28  and  C_29
REMARK   12  A    between atoms: C_30  and  C_31
REMARK   13  A    between atoms: C_38  and  C_41
REMARK                            x       y       z     vdW  Elec       q    Type
REMARK                         _______ _______ _______ _____ _____    ______ ____
ROOT
ATOM      1  S   UNL     1      13.159  -5.419  35.307  0.00  0.00    -0.057 S 
ATOM      4  O   UNL     1      12.046  -5.728  30.797  0.00  0.00    -0.270 OA
ATOM      6  N   UNL     1      11.198  -5.517  33.623  0.00  0.00    -0.229 NA
ATOM      8  N   UNL     1      13.426  -5.612  32.706  0.00  0.00    -0.261 N 
ATOM     12  C   UNL     1       9.789  -4.681  37.546  0.00  0.00    -0.022 C 
ATOM     13  C   UNL     1       8.802  -5.514  36.635  0.00  0.00    +0.033 C 
ATOM     14  C   UNL     1       7.317  -5.187  36.960  0.00  0.00    +0.123 C 
ATOM     15  C   UNL     1       6.993  -5.307  38.465  0.00  0.00    +0.029 C 
ATOM     16  C   UNL     1       9.411  -4.875  39.033  0.00  0.00    +0.008 C 
ATOM     17  C   UNL     1       9.157  -5.376  35.098  0.00  0.00    +0.042 C 
ATOM     18  C   UNL     1       7.964  -4.511  39.336  0.00  0.00    +0.007 C 
ATOM     19  C   UNL     1      11.247  -5.205  37.361  0.00  0.00    +0.051 C 
ATOM     20  C   UNL     1       9.752  -3.168  37.210  0.00  0.00    +0.012 C 
ATOM     22  C   UNL     1      10.652  -5.434  34.892  0.00  0.00    +0.057 A 
ATOM     23  C   UNL     1      11.571  -5.346  35.917  0.00  0.00    +0.015 A 
ATOM     24  C   UNL     1       8.467  -6.428  34.219  0.00  0.00    +0.014 C 
ATOM     27  C   UNL     1      12.510  -5.528  33.721  0.00  0.00    +0.165 A 
ATOM     30  C   UNL     1      13.150  -5.705  31.332  0.00  0.00    +0.250 C 
ATOM     49  H   UNL     1      14.388  -5.561  33.023  0.00  0.00    +0.157 HD
ENDROOT
BRANCH  30  31
ATOM     31  C   UNL     1      14.343  -5.753  30.445  0.00  0.00    +0.037 A 
ATOM     36  C   UNL     1      15.410  -4.880  30.663  0.00  0.00    +0.013 A 
ATOM     37  C   UNL     1      14.395  -6.670  29.396  0.00  0.00    +0.013 A 
ATOM     38  C   UNL     1      16.581  -5.843  28.781  0.00  0.00    -0.033 A 
ATOM     39  C   UNL     1      16.528  -4.925  29.830  0.00  0.00    +0.005 A 
ATOM     40  C   UNL     1      15.514  -6.715  28.564  0.00  0.00    +0.005 A 
BRANCH  38  41
ATOM     41  C   UNL     1      17.775  -5.890  27.890  0.00  0.00    +0.119 C 
BRANCH  41  10
ATOM     10  N   UNL     1      17.577  -5.139  26.652  0.00  0.00    -0.296 NA
ATOM     11  N   UNL     1      18.475  -4.037  24.135  0.00  0.00    -0.303 NA
ATOM     42  C   UNL     1      18.462  -3.970  26.605  0.00  0.00    +0.100 C 
ATOM     43  C   UNL     1      17.796  -5.996  25.482  0.00  0.00    +0.100 C 
ATOM     44  C   UNL     1      18.257  -3.181  25.307  0.00  0.00    +0.099 C 
ATOM     45  C   UNL     1      17.589  -5.208  24.183  0.00  0.00    +0.099 C 
ATOM     46  C   UNL     1      18.274  -3.286  22.898  0.00  0.00    +0.105 C 
ENDBRANCH  41  10
ENDBRANCH  38  41
ENDBRANCH  30  31
BRANCH  14   2
ATOM      2  O   UNL     1       6.469  -6.104  36.269  0.00  0.00    -0.391 OA
ATOM     47  H   UNL     1       6.406  -6.915  36.802  0.00  0.00    +0.210 HD
ENDBRANCH  14   2
BRANCH  15  21
ATOM     21  C   UNL     1       5.555  -4.876  38.775  0.00  0.00    +0.077 C 
ATOM     25  C   UNL     1       5.547  -3.820  39.876  0.00  0.00    +0.017 C 
BRANCH  21  26
ATOM      3  O   UNL     1       4.560  -6.428  40.350  0.00  0.00    -0.276 OA
ATOM      7  N   UNL     1       4.124  -6.702  38.089  0.00  0.00    -0.314 N 
ATOM     26  C   UNL     1       4.704  -6.076  39.181  0.00  0.00    +0.216 C 
ATOM     48  H   UNL     1       4.248  -6.316  37.158  0.00  0.00    +0.149 HD
BRANCH   7  28
ATOM     28  C   UNL     1       3.269  -7.860  38.215  0.00  0.00    +0.119 C 
BRANCH  28  29
ATOM     29  C   UNL     1       4.022  -9.140  37.882  0.00  0.00    +0.103 C 
BRANCH  29   9
ATOM      5  O   UNL     1       6.648  -9.759  34.667  0.00  0.00    -0.377 OA
ATOM      9  N   UNL     1       4.989  -8.896  36.814  0.00  0.00    -0.297 NA
ATOM     32  C   UNL     1       4.426  -9.264  35.507  0.00  0.00    +0.112 C 
ATOM     33  C   UNL     1       6.231  -9.644  37.054  0.00  0.00    +0.112 C 
ATOM     34  C   UNL     1       5.457  -9.014  34.410  0.00  0.00    +0.175 C 
ATOM     35  C   UNL     1       7.220  -9.385  35.921  0.00  0.00    +0.175 C 
ENDBRANCH  29   9
ENDBRANCH  28  29
ENDBRANCH   7  28
ENDBRANCH  21  26
ENDBRANCH  15  21
TORSDOF 9
ENDMDL
MODEL 10
REMARK VINA RESULT:      -6.7     24.598     28.221
REMARK  Name = 24039275
REMARK  13 active torsions:
REMARK  status: ('A' for Active; 'I' for Inactive)
REMARK    1  A    between atoms: O_2  and  C_14
REMARK    2  A    between atoms: N_7  and  C_28
REMARK    3  A    between atoms: N_9  and  C_29
REMARK    4  A    between atoms: N_10  and  C_41
REMARK    5  A    between atoms: N_11  and  C_46
REMARK    6  A    between atoms: C_12  and  C_20
REMARK    7  A    between atoms: C_15  and  C_21
REMARK    8  A    between atoms: C_17  and  C_24
REMARK    9  A    between atoms: C_21  and  C_25
REMARK   10  A    between atoms: C_21  and  C_26
REMARK   11  A    between atoms: C_28  and  C_29
REMARK   12  A    between atoms: C_30  and  C_31
REMARK   13  A    between atoms: C_38  and  C_41
REMARK                            x       y       z     vdW  Elec       q    Type
REMARK                         _______ _______ _______ _____ _____    ______ ____
ROOT
ATOM      1  S   UNL     1      -8.721  -7.613   6.329  0.00  0.00    -0.057 S 
ATOM      4  O   UNL     1      -5.137 -10.564   5.992  0.00  0.00    -0.270 OA
ATOM      6  N   UNL     1      -7.404  -9.151   4.721  0.00  0.00    -0.229 NA
ATOM      8  N   UNL     1      -6.645  -9.062   7.008  0.00  0.00    -0.261 N 
ATOM     12  C   UNL     1     -10.258  -6.825   2.596  0.00  0.00    -0.022 C 
ATOM     13  C   UNL     1      -9.971  -8.258   1.996  0.00  0.00    +0.033 C 
ATOM     14  C   UNL     1     -10.093  -8.259   0.445  0.00  0.00    +0.123 C 
ATOM     15  C   UNL     1     -11.424  -7.655  -0.050  0.00  0.00    +0.029 C 
ATOM     16  C   UNL     1     -11.616  -6.304   2.070  0.00  0.00    +0.008 C 
ATOM     17  C   UNL     1      -8.602  -8.856   2.521  0.00  0.00    +0.042 C 
ATOM     18  C   UNL     1     -11.699  -6.277   0.550  0.00  0.00    +0.007 C 
ATOM     19  C   UNL     1     -10.361  -6.915   4.150  0.00  0.00    +0.051 C 
ATOM     20  C   UNL     1      -9.150  -5.807   2.224  0.00  0.00    +0.012 C 
ATOM     22  C   UNL     1      -8.431  -8.575   3.995  0.00  0.00    +0.057 A 
ATOM     23  C   UNL     1      -9.223  -7.695   4.704  0.00  0.00    +0.015 A 
ATOM     24  C   UNL     1      -8.454 -10.361   2.255  0.00  0.00    +0.014 C 
ATOM     27  C   UNL     1      -7.466  -8.726   5.964  0.00  0.00    +0.165 A 
ATOM     30  C   UNL     1      -5.551  -9.941   6.966  0.00  0.00    +0.250 C 
ATOM     49  H   UNL     1      -6.863  -8.573   7.869  0.00  0.00    +0.157 HD
ENDROOT
BRANCH  30  31
ATOM     31  C   UNL     1      -4.812 -10.099   8.246  0.00  0.00    +0.037 A 
ATOM     36  C   UNL     1      -4.630 -11.369   8.795  0.00  0.00    +0.013 A 
ATOM     37  C   UNL     1      -4.299  -8.978   8.898  0.00  0.00    +0.013 A 
ATOM     38  C   UNL     1      -3.424 -10.396  10.648  0.00  0.00    -0.033 A 
ATOM     39  C   UNL     1      -3.937 -11.517   9.996  0.00  0.00    +0.005 A 
ATOM     40  C   UNL     1      -3.605  -9.126  10.099  0.00  0.00    +0.005 A 
BRANCH  38  41
ATOM     41  C   UNL     1      -2.684 -10.553  11.934  0.00  0.00    +0.119 C 
BRANCH  41  10
ATOM     10  N   UNL     1      -3.389 -11.415  12.880  0.00  0.00    -0.296 NA
ATOM     11  N   UNL     1      -4.098 -12.273  15.548  0.00  0.00    -0.303 NA
ATOM     42  C   UNL     1      -2.439 -12.152  13.721  0.00  0.00    +0.100 C 
ATOM     43  C   UNL     1      -4.310 -10.632  13.712  0.00  0.00    +0.100 C 
ATOM     44  C   UNL     1      -3.176 -13.056  14.716  0.00  0.00    +0.099 C 
ATOM     45  C   UNL     1      -5.049 -11.535  14.706  0.00  0.00    +0.099 C 
ATOM     46  C   UNL     1      -4.804 -13.137  16.493  0.00  0.00    +0.105 C 
ENDBRANCH  41  10
ENDBRANCH  38  41
ENDBRANCH  30  31
BRANCH  14   2
ATOM      2  O   UNL     1     -10.033  -9.603  -0.033  0.00  0.00    -0.391 OA
ATOM     47  H   UNL     1      -9.189  -9.717  -0.503  0.00  0.00    +0.210 HD
ENDBRANCH  14   2
BRANCH  15  21
ATOM     21  C   UNL     1     -11.476  -7.568  -1.580  0.00  0.00    +0.077 C 
ATOM     25  C   UNL     1     -11.834  -6.150  -2.015  0.00  0.00    +0.017 C 
BRANCH  21  26
ATOM      3  O   UNL     1     -12.573  -9.724  -1.741  0.00  0.00    -0.276 OA
ATOM      7  N   UNL     1     -13.256  -8.017  -3.155  0.00  0.00    -0.314 N 
ATOM     26  C   UNL     1     -12.479  -8.568  -2.148  0.00  0.00    +0.216 C 
ATOM     48  H   UNL     1     -13.154  -7.037  -3.396  0.00  0.00    +0.149 HD
BRANCH   7  28
ATOM     28  C   UNL     1     -14.282  -8.764  -3.847  0.00  0.00    +0.119 C 
BRANCH  28  29
ATOM     29  C   UNL     1     -13.807  -9.208  -5.223  0.00  0.00    +0.103 C 
BRANCH  29   9
ATOM      5  O   UNL     1     -11.281  -7.166  -7.879  0.00  0.00    -0.377 OA
ATOM      9  N   UNL     1     -12.852  -8.244  -5.765  0.00  0.00    -0.297 NA
ATOM     32  C   UNL     1     -13.459  -7.465  -6.853  0.00  0.00    +0.112 C 
ATOM     33  C   UNL     1     -11.643  -8.924  -6.248  0.00  0.00    +0.112 C 
ATOM     34  C   UNL     1     -12.440  -6.476  -7.412  0.00  0.00    +0.175 C 
ATOM     35  C   UNL     1     -10.666  -7.900  -6.820  0.00  0.00    +0.175 C 
ENDBRANCH  29   9
ENDBRANCH  28  29
ENDBRANCH   7  28
ENDBRANCH  21  26
ENDBRANCH  15  21
TORSDOF 9
ENDMDL
