MODEL 1
REMARK VINA RESULT:      -7.0      0.000      0.000
REMARK  Name = 28959930
REMARK  8 active torsions:
REMARK  status: ('A' for Active; 'I' for Inactive)
REMARK    1  A    between atoms: O_3  and  C_26
REMARK    2  A    between atoms: N_6  and  C_16
REMARK    3  A    between atoms: N_7  and  C_27
REMARK    4  A    between atoms: C_8  and  C_12
REMARK    5  A    between atoms: C_9  and  C_15
REMARK    6  A    between atoms: C_12  and  C_16
REMARK    7  A    between atoms: C_14  and  C_17
REMARK    8  A    between atoms: C_15  and  C_26
REMARK                            x       y       z     vdW  Elec       q    Type
REMARK                         _______ _______ _______ _____ _____    ______ ____
ROOT
ATOM      2  O   UNL     1      -1.954  -9.924  12.326  0.00  0.00    -0.275 OA
ATOM      5  N   UNL     1      -3.148 -11.217  13.834  0.00  0.00    -0.301 N 
ATOM      8  C   UNL     1      -4.897 -11.474  15.578  0.00  0.00    +0.011 C 
ATOM      9  C   UNL     1      -3.774 -11.508  16.645  0.00  0.00    +0.006 C 
ATOM     10  C   UNL     1      -4.348 -11.965  14.226  0.00  0.00    +0.111 C 
ATOM     11  C   UNL     1      -2.520 -10.755  16.171  0.00  0.00    +0.023 C 
ATOM     13  C   UNL     1      -2.055 -11.254  14.805  0.00  0.00    +0.108 C 
ATOM     17  C   UNL     1      -2.997 -10.525  12.623  0.00  0.00    +0.219 C 
ENDROOT
BRANCH  17  14
ATOM     14  C   UNL     1      -4.164 -10.531  11.683  0.00  0.00    +0.075 C 
ATOM     18  C   UNL     1      -3.878 -11.450  10.490  0.00  0.00    +0.013 C 
ATOM     19  C   UNL     1      -4.397  -9.136  11.103  0.00  0.00    +0.013 C 
ATOM     20  C   UNL     1      -4.053 -10.584   9.246  0.00  0.00    +0.001 C 
ATOM     21  C   UNL     1      -3.747  -9.177   9.727  0.00  0.00    +0.001 C 
ENDBRANCH  17  14
BRANCH   8  12
ATOM     12  C   UNL     1      -5.562 -10.102  15.416  0.00  0.00    +0.020 C 
BRANCH  12  16
ATOM     16  C   UNL     1      -6.746 -10.181  14.463  0.00  0.00    +0.085 C 
BRANCH  16   6
ATOM      6  N   UNL     1      -7.970  -9.783  15.157  0.00  0.00    -0.299 NA
ATOM      7  N   UNL     1      -9.958  -9.889  17.205  0.00  0.00    -0.327 N 
ATOM     22  C   UNL     1      -7.664  -9.317  16.514  0.00  0.00    +0.103 C 
ATOM     23  C   UNL     1      -8.917 -10.903  15.215  0.00  0.00    +0.103 C 
ATOM     24  C   UNL     1      -8.930  -8.844  17.233  0.00  0.00    +0.120 C 
ATOM     25  C   UNL     1     -10.226 -10.482  15.889  0.00  0.00    +0.120 C 
BRANCH   7  27
ATOM      1  F   UNL     1     -14.077  -9.779  20.890  0.00  0.00    -0.205 F 
ATOM     27  C   UNL     1     -11.001  -9.861  18.138  0.00  0.00    +0.030 A 
ATOM     28  C   UNL     1     -10.739 -10.115  19.484  0.00  0.00    +0.026 A 
ATOM     29  C   UNL     1     -12.302  -9.578  17.721  0.00  0.00    +0.026 A 
ATOM     30  C   UNL     1     -11.778 -10.087  20.414  0.00  0.00    +0.040 A 
ATOM     31  C   UNL     1     -13.340  -9.550  18.652  0.00  0.00    +0.040 A 
ATOM     32  C   UNL     1     -13.079  -9.805  19.998  0.00  0.00    +0.124 A 
ENDBRANCH   7  27
ENDBRANCH  16   6
ENDBRANCH  12  16
ENDBRANCH   8  12
BRANCH   9  15
ATOM     15  C   UNL     1      -4.228 -10.993  18.011  0.00  0.00    +0.124 C 
BRANCH  15  26
ATOM      4  O   UNL     1      -3.371 -12.229  19.929  0.00  0.00    -0.251 OA
ATOM     26  C   UNL     1      -4.207 -12.080  19.050  0.00  0.00    +0.305 C 
BRANCH  26   3
ATOM      3  O   UNL     1      -5.274 -12.900  18.877  0.00  0.00    -0.481 OA
ATOM     33  H   UNL     1      -6.104 -12.499  19.214  0.00  0.00    +0.295 HD
ENDBRANCH  26   3
ENDBRANCH  15  26
ENDBRANCH   9  15
TORSDOF 8
ENDMDL
MODEL 2
REMARK VINA RESULT:      -6.9     28.234     31.494
REMARK  Name = 28959930
REMARK  8 active torsions:
REMARK  status: ('A' for Active; 'I' for Inactive)
REMARK    1  A    between atoms: O_3  and  C_26
REMARK    2  A    between atoms: N_6  and  C_16
REMARK    3  A    between atoms: N_7  and  C_27
REMARK    4  A    between atoms: C_8  and  C_12
REMARK    5  A    between atoms: C_9  and  C_15
REMARK    6  A    between atoms: C_12  and  C_16
REMARK    7  A    between atoms: C_14  and  C_17
REMARK    8  A    between atoms: C_15  and  C_26
REMARK                            x       y       z     vdW  Elec       q    Type
REMARK                         _______ _______ _______ _____ _____    ______ ____
ROOT
ATOM      2  O   UNL     1      16.987  12.299  19.184  0.00  0.00    -0.275 OA
ATOM      5  N   UNL     1      14.943  11.238  19.449  0.00  0.00    -0.301 N 
ATOM      8  C   UNL     1      13.481   9.241  19.241  0.00  0.00    +0.011 C 
ATOM      9  C   UNL     1      12.826   9.897  17.999  0.00  0.00    +0.006 C 
ATOM     10  C   UNL     1      14.044  10.331  20.172  0.00  0.00    +0.111 C 
ATOM     11  C   UNL     1      13.787  10.876  17.303  0.00  0.00    +0.023 C 
ATOM     13  C   UNL     1      14.348  11.898  18.288  0.00  0.00    +0.108 C 
ATOM     17  C   UNL     1      16.271  11.506  19.814  0.00  0.00    +0.219 C 
ENDROOT
BRANCH  17  14
ATOM     14  C   UNL     1      16.809  10.787  21.014  0.00  0.00    +0.075 C 
ATOM     18  C   UNL     1      16.876  11.736  22.215  0.00  0.00    +0.013 C 
ATOM     19  C   UNL     1      18.240  10.312  20.762  0.00  0.00    +0.013 C 
ATOM     20  C   UNL     1      18.325  11.705  22.689  0.00  0.00    +0.001 C 
ATOM     21  C   UNL     1      19.116  11.355  21.441  0.00  0.00    +0.001 C 
ENDBRANCH  17  14
BRANCH   8  12
ATOM     12  C   UNL     1      14.570   8.215  18.904  0.00  0.00    +0.020 C 
BRANCH  12  16
ATOM     16  C   UNL     1      14.359   6.924  19.682  0.00  0.00    +0.085 C 
BRANCH  16   6
ATOM      6  N   UNL     1      15.652   6.354  20.059  0.00  0.00    -0.299 NA
ATOM      7  N   UNL     1      18.493   6.301  20.348  0.00  0.00    -0.327 N 
ATOM     22  C   UNL     1      16.313   7.196  21.063  0.00  0.00    +0.103 C 
ATOM     23  C   UNL     1      16.516   6.211  18.881  0.00  0.00    +0.103 C 
ATOM     24  C   UNL     1      17.642   6.582  21.508  0.00  0.00    +0.120 C 
ATOM     25  C   UNL     1      17.851   5.563  19.253  0.00  0.00    +0.120 C 
BRANCH   7  27
ATOM      1  F   UNL     1      23.948   5.711  21.025  0.00  0.00    -0.205 F 
ATOM     27  C   UNL     1      19.875   6.152  20.519  0.00  0.00    +0.030 A 
ATOM     28  C   UNL     1      20.449   4.881  20.471  0.00  0.00    +0.026 A 
ATOM     29  C   UNL     1      20.676   7.273  20.736  0.00  0.00    +0.026 A 
ATOM     30  C   UNL     1      21.826   4.733  20.642  0.00  0.00    +0.040 A 
ATOM     31  C   UNL     1      22.052   7.123  20.907  0.00  0.00    +0.040 A 
ATOM     32  C   UNL     1      22.627   5.853  20.860  0.00  0.00    +0.124 A 
ENDBRANCH   7  27
ENDBRANCH  16   6
ENDBRANCH  12  16
ENDBRANCH   8  12
BRANCH   9  15
ATOM     15  C   UNL     1      12.279   8.877  17.001  0.00  0.00    +0.124 C 
BRANCH  15  26
ATOM      4  O   UNL     1      10.320   8.546  18.412  0.00  0.00    -0.251 OA
ATOM     26  C   UNL     1      10.859   8.497  17.317  0.00  0.00    +0.305 C 
BRANCH  26   3
ATOM      3  O   UNL     1      10.234   8.079  16.187  0.00  0.00    -0.481 OA
ATOM     33  H   UNL     1       9.608   7.345  16.365  0.00  0.00    +0.295 HD
ENDBRANCH  26   3
ENDBRANCH  15  26
ENDBRANCH   9  15
TORSDOF 8
ENDMDL
MODEL 3
REMARK VINA RESULT:      -6.7      2.351      2.847
REMARK  Name = 28959930
REMARK  8 active torsions:
REMARK  status: ('A' for Active; 'I' for Inactive)
REMARK    1  A    between atoms: O_3  and  C_26
REMARK    2  A    between atoms: N_6  and  C_16
REMARK    3  A    between atoms: N_7  and  C_27
REMARK    4  A    between atoms: C_8  and  C_12
REMARK    5  A    between atoms: C_9  and  C_15
REMARK    6  A    between atoms: C_12  and  C_16
REMARK    7  A    between atoms: C_14  and  C_17
REMARK    8  A    between atoms: C_15  and  C_26
REMARK                            x       y       z     vdW  Elec       q    Type
REMARK                         _______ _______ _______ _____ _____    ______ ____
ROOT
ATOM      2  O   UNL     1      -2.209  -9.949  12.052  0.00  0.00    -0.275 OA
ATOM      5  N   UNL     1      -3.306 -11.226  13.646  0.00  0.00    -0.301 N 
ATOM      8  C   UNL     1      -4.937 -11.463  15.504  0.00  0.00    +0.011 C 
ATOM      9  C   UNL     1      -3.747 -11.493  16.495  0.00  0.00    +0.006 C 
ATOM     10  C   UNL     1      -4.480 -11.966  14.122  0.00  0.00    +0.111 C 
ATOM     11  C   UNL     1      -2.523 -10.749  15.933  0.00  0.00    +0.023 C 
ATOM     13  C   UNL     1      -2.152 -11.260  14.544  0.00  0.00    +0.108 C 
ATOM     17  C   UNL     1      -3.233 -10.543  12.422  0.00  0.00    +0.219 C 
ENDROOT
BRANCH  17  14
ATOM     14  C   UNL     1      -4.458 -10.552  11.561  0.00  0.00    +0.075 C 
ATOM     18  C   UNL     1      -4.067 -10.646  10.082  0.00  0.00    +0.013 C 
ATOM     19  C   UNL     1      -5.237  -9.245  11.716  0.00  0.00    +0.013 C 
ATOM     20  C   UNL     1      -4.714  -9.444   9.403  0.00  0.00    +0.001 C 
ATOM     21  C   UNL     1      -4.831  -8.410  10.509  0.00  0.00    +0.001 C 
ENDBRANCH  17  14
BRANCH   8  12
ATOM     12  C   UNL     1      -5.606 -10.089  15.374  0.00  0.00    +0.020 C 
BRANCH  12  16
ATOM     16  C   UNL     1      -7.101 -10.185  15.645  0.00  0.00    +0.085 C 
BRANCH  16   6
ATOM      6  N   UNL     1      -7.343 -11.045  16.802  0.00  0.00    -0.299 NA
ATOM      7  N   UNL     1      -8.906 -12.309  18.831  0.00  0.00    -0.327 N 
ATOM     22  C   UNL     1      -8.277 -12.123  16.457  0.00  0.00    +0.103 C 
ATOM     23  C   UNL     1      -7.875 -10.263  17.924  0.00  0.00    +0.103 C 
ATOM     24  C   UNL     1      -8.494 -13.065  17.643  0.00  0.00    +0.120 C 
ATOM     25  C   UNL     1      -8.078 -11.143  19.160  0.00  0.00    +0.120 C 
BRANCH   7  27
ATOM      1  F   UNL     1     -11.502 -14.902  22.966  0.00  0.00    -0.205 F 
ATOM     27  C   UNL     1      -9.563 -12.966  19.878  0.00  0.00    +0.030 A 
ATOM     28  C   UNL     1     -10.835 -12.549  20.273  0.00  0.00    +0.026 A 
ATOM     29  C   UNL     1      -8.948 -14.038  20.525  0.00  0.00    +0.026 A 
ATOM     30  C   UNL     1     -11.490 -13.203  21.316  0.00  0.00    +0.040 A 
ATOM     31  C   UNL     1      -9.603 -14.691  21.568  0.00  0.00    +0.040 A 
ATOM     32  C   UNL     1     -10.874 -14.274  21.964  0.00  0.00    +0.124 A 
ENDBRANCH   7  27
ENDBRANCH  16   6
ENDBRANCH  12  16
ENDBRANCH   8  12
BRANCH   9  15
ATOM     15  C   UNL     1      -4.108 -10.966  17.883  0.00  0.00    +0.124 C 
BRANCH  15  26
ATOM      4  O   UNL     1      -3.398 -12.216  19.852  0.00  0.00    -0.251 OA
ATOM     26  C   UNL     1      -4.154 -12.071  18.902  0.00  0.00    +0.305 C 
BRANCH  26   3
ATOM      3  O   UNL     1      -5.180 -12.913  18.619  0.00  0.00    -0.481 OA
ATOM     33  H   UNL     1      -4.943 -13.850  18.790  0.00  0.00    +0.295 HD
ENDBRANCH  26   3
ENDBRANCH  15  26
ENDBRANCH   9  15
TORSDOF 8
ENDMDL
MODEL 4
REMARK VINA RESULT:      -6.4     24.231     28.313
REMARK  Name = 28959930
REMARK  8 active torsions:
REMARK  status: ('A' for Active; 'I' for Inactive)
REMARK    1  A    between atoms: O_3  and  C_26
REMARK    2  A    between atoms: N_6  and  C_16
REMARK    3  A    between atoms: N_7  and  C_27
REMARK    4  A    between atoms: C_8  and  C_12
REMARK    5  A    between atoms: C_9  and  C_15
REMARK    6  A    between atoms: C_12  and  C_16
REMARK    7  A    between atoms: C_14  and  C_17
REMARK    8  A    between atoms: C_15  and  C_26
REMARK                            x       y       z     vdW  Elec       q    Type
REMARK                         _______ _______ _______ _____ _____    ______ ____
ROOT
ATOM      2  O   UNL     1       8.006   9.894   5.465  0.00  0.00    -0.275 OA
ATOM      5  N   UNL     1       9.624   8.436   6.258  0.00  0.00    -0.301 N 
ATOM      8  C   UNL     1      10.565   6.151   6.508  0.00  0.00    +0.011 C 
ATOM      9  C   UNL     1      10.028   6.130   7.960  0.00  0.00    +0.006 C 
ATOM     10  C   UNL     1      10.818   7.604   6.065  0.00  0.00    +0.111 C 
ATOM     11  C   UNL     1       8.809   7.054   8.127  0.00  0.00    +0.023 C 
ATOM     13  C   UNL     1       9.108   8.464   7.626  0.00  0.00    +0.108 C 
ATOM     17  C   UNL     1       9.002   9.187   5.249  0.00  0.00    +0.219 C 
ENDROOT
BRANCH  17  14
ATOM     14  C   UNL     1       9.588   9.103   3.873  0.00  0.00    +0.075 C 
ATOM     18  C   UNL     1       9.475  10.457   3.164  0.00  0.00    +0.013 C 
ATOM     19  C   UNL     1       8.812   8.103   3.015  0.00  0.00    +0.013 C 
ATOM     20  C   UNL     1       8.723  10.185   1.865  0.00  0.00    +0.001 C 
ATOM     21  C   UNL     1       7.877   8.962   2.175  0.00  0.00    +0.001 C 
ENDBRANCH  17  14
BRANCH   8  12
ATOM     12  C   UNL     1       9.659   5.438   5.497  0.00  0.00    +0.020 C 
BRANCH  12  16
ATOM     16  C   UNL     1      10.468   4.507   4.604  0.00  0.00    +0.085 C 
BRANCH  16   6
ATOM      6  N   UNL     1      10.525   5.046   3.246  0.00  0.00    -0.299 NA
ATOM      7  N   UNL     1      11.595   5.394   0.621  0.00  0.00    -0.327 N 
ATOM     22  C   UNL     1      10.437   3.964   2.258  0.00  0.00    +0.103 C 
ATOM     23  C   UNL     1      11.763   5.808   3.044  0.00  0.00    +0.103 C 
ATOM     24  C   UNL     1      10.438   4.519   0.832  0.00  0.00    +0.120 C 
ATOM     25  C   UNL     1      11.807   6.425   1.644  0.00  0.00    +0.120 C 
BRANCH   7  27
ATOM      1  F   UNL     1      13.338   6.444  -4.519  0.00  0.00    -0.205 F 
ATOM     27  C   UNL     1      12.037   5.659  -0.680  0.00  0.00    +0.030 A 
ATOM     28  C   UNL     1      11.127   6.073  -1.654  0.00  0.00    +0.026 A 
ATOM     29  C   UNL     1      13.386   5.513  -1.003  0.00  0.00    +0.026 A 
ATOM     30  C   UNL     1      11.567   6.338  -2.951  0.00  0.00    +0.040 A 
ATOM     31  C   UNL     1      13.825   5.778  -2.300  0.00  0.00    +0.040 A 
ATOM     32  C   UNL     1      12.916   6.190  -3.274  0.00  0.00    +0.124 A 
ENDBRANCH   7  27
ENDBRANCH  16   6
ENDBRANCH  12  16
ENDBRANCH   8  12
BRANCH   9  15
ATOM     15  C   UNL     1       9.709   4.722   8.462  0.00  0.00    +0.124 C 
BRANCH  15  26
ATOM      4  O   UNL     1       8.306   4.537  10.446  0.00  0.00    -0.251 OA
ATOM     26  C   UNL     1       9.401   4.713   9.934  0.00  0.00    +0.305 C 
BRANCH  26   3
ATOM      3  O   UNL     1      10.539   4.932  10.642  0.00  0.00    -0.481 OA
ATOM     33  H   UNL     1      11.299   4.431  10.277  0.00  0.00    +0.295 HD
ENDBRANCH  26   3
ENDBRANCH  15  26
ENDBRANCH   9  15
TORSDOF 8
ENDMDL
MODEL 5
REMARK VINA RESULT:      -6.2      3.978      7.790
REMARK  Name = 28959930
REMARK  8 active torsions:
REMARK  status: ('A' for Active; 'I' for Inactive)
REMARK    1  A    between atoms: O_3  and  C_26
REMARK    2  A    between atoms: N_6  and  C_16
REMARK    3  A    between atoms: N_7  and  C_27
REMARK    4  A    between atoms: C_8  and  C_12
REMARK    5  A    between atoms: C_9  and  C_15
REMARK    6  A    between atoms: C_12  and  C_16
REMARK    7  A    between atoms: C_14  and  C_17
REMARK    8  A    between atoms: C_15  and  C_26
REMARK                            x       y       z     vdW  Elec       q    Type
REMARK                         _______ _______ _______ _____ _____    ______ ____
ROOT
ATOM      2  O   UNL     1      -7.906 -11.313  18.933  0.00  0.00    -0.275 OA
ATOM      5  N   UNL     1      -6.310 -10.295  17.596  0.00  0.00    -0.301 N 
ATOM      8  C   UNL     1      -4.861 -10.253  15.579  0.00  0.00    +0.011 C 
ATOM      9  C   UNL     1      -3.662 -10.646  16.478  0.00  0.00    +0.006 C 
ATOM     10  C   UNL     1      -5.922  -9.515  16.415  0.00  0.00    +0.111 C 
ATOM     11  C   UNL     1      -4.120 -11.418  17.727  0.00  0.00    +0.023 C 
ATOM     13  C   UNL     1      -5.205 -10.656  18.484  0.00  0.00    +0.108 C 
ATOM     17  C   UNL     1      -7.624 -10.671  17.910  0.00  0.00    +0.219 C 
ENDROOT
BRANCH  17  14
ATOM     14  C   UNL     1      -8.699 -10.267  16.948  0.00  0.00    +0.075 C 
ATOM     18  C   UNL     1      -9.045  -8.785  17.131  0.00  0.00    +0.013 C 
ATOM     19  C   UNL     1      -9.988 -11.044  17.220  0.00  0.00    +0.013 C 
ATOM     20  C   UNL     1     -10.545  -8.738  17.404  0.00  0.00    +0.001 C 
ATOM     21  C   UNL     1     -10.851 -10.087  18.030  0.00  0.00    +0.001 C 
ENDBRANCH  17  14
BRANCH   8  12
ATOM     12  C   UNL     1      -5.498 -11.436  14.837  0.00  0.00    +0.020 C 
BRANCH  12  16
ATOM     16  C   UNL     1      -5.137 -11.407  13.358  0.00  0.00    +0.085 C 
BRANCH  16   6
ATOM      6  N   UNL     1      -5.874 -10.337  12.688  0.00  0.00    -0.299 NA
ATOM      7  N   UNL     1      -7.354  -9.121  10.569  0.00  0.00    -0.327 N 
ATOM     22  C   UNL     1      -7.251 -10.759  12.406  0.00  0.00    +0.103 C 
ATOM     23  C   UNL     1      -5.204  -9.952  11.440  0.00  0.00    +0.103 C 
ATOM     24  C   UNL     1      -8.052  -9.628  11.755  0.00  0.00    +0.120 C 
ATOM     25  C   UNL     1      -5.935  -8.794  10.757  0.00  0.00    +0.120 C 
BRANCH   7  27
ATOM      1  F   UNL     1     -10.173  -6.334   6.715  0.00  0.00    -0.205 F 
ATOM     27  C   UNL     1      -8.067  -8.415   9.593  0.00  0.00    +0.030 A 
ATOM     28  C   UNL     1      -9.460  -8.495   9.554  0.00  0.00    +0.026 A 
ATOM     29  C   UNL     1      -7.386  -7.632   8.661  0.00  0.00    +0.026 A 
ATOM     30  C   UNL     1     -10.171  -7.792   8.582  0.00  0.00    +0.040 A 
ATOM     31  C   UNL     1      -8.098  -6.929   7.689  0.00  0.00    +0.040 A 
ATOM     32  C   UNL     1      -9.491  -7.009   7.649  0.00  0.00    +0.124 A 
ENDBRANCH   7  27
ENDBRANCH  16   6
ENDBRANCH  12  16
ENDBRANCH   8  12
BRANCH   9  15
ATOM     15  C   UNL     1      -2.581 -11.424  15.730  0.00  0.00    +0.124 C 
BRANCH  15  26
ATOM      4  O   UNL     1      -1.630  -9.962  14.027  0.00  0.00    -0.251 OA
ATOM     26  C   UNL     1      -1.558 -10.506  15.119  0.00  0.00    +0.305 C 
BRANCH  26   3
ATOM      3  O   UNL     1      -0.511 -10.356  15.969  0.00  0.00    -0.481 OA
ATOM     33  H   UNL     1      -0.616  -9.569  16.545  0.00  0.00    +0.295 HD
ENDBRANCH  26   3
ENDBRANCH  15  26
ENDBRANCH   9  15
TORSDOF 8
ENDMDL
MODEL 6
REMARK VINA RESULT:      -6.2      3.142      5.815
REMARK  Name = 28959930
REMARK  8 active torsions:
REMARK  status: ('A' for Active; 'I' for Inactive)
REMARK    1  A    between atoms: O_3  and  C_26
REMARK    2  A    between atoms: N_6  and  C_16
REMARK    3  A    between atoms: N_7  and  C_27
REMARK    4  A    between atoms: C_8  and  C_12
REMARK    5  A    between atoms: C_9  and  C_15
REMARK    6  A    between atoms: C_12  and  C_16
REMARK    7  A    between atoms: C_14  and  C_17
REMARK    8  A    between atoms: C_15  and  C_26
REMARK                            x       y       z     vdW  Elec       q    Type
REMARK                         _______ _______ _______ _____ _____    ______ ____
ROOT
ATOM      2  O   UNL     1      -3.670 -14.977  11.744  0.00  0.00    -0.275 OA
ATOM      5  N   UNL     1      -3.021 -12.760  11.550  0.00  0.00    -0.301 N 
ATOM      8  C   UNL     1      -3.222 -10.367  12.183  0.00  0.00    +0.011 C 
ATOM      9  C   UNL     1      -3.983 -10.119  10.856  0.00  0.00    +0.006 C 
ATOM     10  C   UNL     1      -2.290 -11.582  12.031  0.00  0.00    +0.111 C 
ATOM     11  C   UNL     1      -4.692 -11.393  10.364  0.00  0.00    +0.023 C 
ATOM     13  C   UNL     1      -3.725 -12.571  10.283  0.00  0.00    +0.108 C 
ATOM     17  C   UNL     1      -3.054 -14.002  12.202  0.00  0.00    +0.219 C 
ENDROOT
BRANCH  17  14
ATOM     14  C   UNL     1      -2.311 -14.114  13.497  0.00  0.00    +0.075 C 
ATOM     18  C   UNL     1      -1.158 -15.115  13.362  0.00  0.00    +0.013 C 
ATOM     19  C   UNL     1      -3.223 -14.657  14.598  0.00  0.00    +0.013 C 
ATOM     20  C   UNL     1      -1.379 -16.155  14.455  0.00  0.00    +0.001 C 
ATOM     21  C   UNL     1      -2.880 -16.138  14.686  0.00  0.00    +0.001 C 
ENDBRANCH  17  14
BRANCH   8  12
ATOM     12  C   UNL     1      -4.136 -10.546  13.401  0.00  0.00    +0.020 C 
BRANCH  12  16
ATOM     16  C   UNL     1      -3.318 -10.695  14.677  0.00  0.00    +0.085 C 
BRANCH  16   6
ATOM      6  N   UNL     1      -4.152 -11.255  15.739  0.00  0.00    -0.299 NA
ATOM      7  N   UNL     1      -6.473 -11.478  17.389  0.00  0.00    -0.327 N 
ATOM     22  C   UNL     1      -5.408 -11.776  15.188  0.00  0.00    +0.103 C 
ATOM     23  C   UNL     1      -4.437 -10.240  16.760  0.00  0.00    +0.103 C 
ATOM     24  C   UNL     1      -6.266 -12.417  16.281  0.00  0.00    +0.120 C 
ATOM     25  C   UNL     1      -5.261 -10.830  17.907  0.00  0.00    +0.120 C 
BRANCH   7  27
ATOM      1  F   UNL     1     -10.703 -12.232  20.867  0.00  0.00    -0.205 F 
ATOM     27  C   UNL     1      -7.544 -11.669  18.269  0.00  0.00    +0.030 A 
ATOM     28  C   UNL     1      -7.686 -12.883  18.941  0.00  0.00    +0.026 A 
ATOM     29  C   UNL     1      -8.467 -10.644  18.477  0.00  0.00    +0.026 A 
ATOM     30  C   UNL     1      -8.753 -13.074  19.818  0.00  0.00    +0.040 A 
ATOM     31  C   UNL     1      -9.534 -10.835  19.354  0.00  0.00    +0.040 A 
ATOM     32  C   UNL     1      -9.678 -12.050  20.025  0.00  0.00    +0.124 A 
ENDBRANCH   7  27
ENDBRANCH  16   6
ENDBRANCH  12  16
ENDBRANCH   8  12
BRANCH   9  15
ATOM     15  C   UNL     1      -4.966  -8.952  10.936  0.00  0.00    +0.124 C 
BRANCH  15  26
ATOM      4  O   UNL     1      -6.452  -8.084   9.210  0.00  0.00    -0.251 OA
ATOM     26  C   UNL     1      -5.343  -8.448   9.570  0.00  0.00    +0.305 C 
BRANCH  26   3
ATOM      3  O   UNL     1      -4.251  -8.452   8.763  0.00  0.00    -0.481 OA
ATOM     33  H   UNL     1      -4.236  -7.675   8.164  0.00  0.00    +0.295 HD
ENDBRANCH  26   3
ENDBRANCH  15  26
ENDBRANCH   9  15
TORSDOF 8
ENDMDL
MODEL 7
REMARK VINA RESULT:      -6.1      3.790      8.341
REMARK  Name = 28959930
REMARK  8 active torsions:
REMARK  status: ('A' for Active; 'I' for Inactive)
REMARK    1  A    between atoms: O_3  and  C_26
REMARK    2  A    between atoms: N_6  and  C_16
REMARK    3  A    between atoms: N_7  and  C_27
REMARK    4  A    between atoms: C_8  and  C_12
REMARK    5  A    between atoms: C_9  and  C_15
REMARK    6  A    between atoms: C_12  and  C_16
REMARK    7  A    between atoms: C_14  and  C_17
REMARK    8  A    between atoms: C_15  and  C_26
REMARK                            x       y       z     vdW  Elec       q    Type
REMARK                         _______ _______ _______ _____ _____    ______ ____
ROOT
ATOM      2  O   UNL     1     -10.896 -10.776  17.664  0.00  0.00    -0.275 OA
ATOM      5  N   UNL     1      -8.676 -10.379  18.200  0.00  0.00    -0.301 N 
ATOM      8  C   UNL     1      -6.250 -10.543  17.698  0.00  0.00    +0.011 C 
ATOM      9  C   UNL     1      -6.153 -11.693  18.731  0.00  0.00    +0.006 C 
ATOM     10  C   UNL     1      -7.429  -9.619  18.054  0.00  0.00    +0.111 C 
ATOM     11  C   UNL     1      -7.495 -12.428  18.889  0.00  0.00    +0.023 C 
ATOM     13  C   UNL     1      -8.630 -11.453  19.191  0.00  0.00    +0.108 C 
ATOM     17  C   UNL     1      -9.858 -10.120  17.489  0.00  0.00    +0.219 C 
ENDROOT
BRANCH  17  14
ATOM     14  C   UNL     1      -9.824  -9.005  16.489  0.00  0.00    +0.075 C 
ATOM     18  C   UNL     1     -10.101  -7.665  17.179  0.00  0.00    +0.013 C 
ATOM     19  C   UNL     1     -10.925  -9.184  15.444  0.00  0.00    +0.013 C 
ATOM     20  C   UNL     1     -11.293  -7.058  16.447  0.00  0.00    +0.001 C 
ATOM     21  C   UNL     1     -12.044  -8.259  15.901  0.00  0.00    +0.001 C 
ENDBRANCH  17  14
BRANCH   8  12
ATOM     12  C   UNL     1      -6.366 -11.018  16.245  0.00  0.00    +0.020 C 
BRANCH  12  16
ATOM     16  C   UNL     1      -5.213 -10.485  15.405  0.00  0.00    +0.085 C 
BRANCH  16   6
ATOM      6  N   UNL     1      -5.454 -10.772  13.991  0.00  0.00    -0.299 NA
ATOM      7  N   UNL     1      -5.643 -10.176  11.205  0.00  0.00    -0.327 N 
ATOM     22  C   UNL     1      -4.244 -10.522  13.201  0.00  0.00    +0.103 C 
ATOM     23  C   UNL     1      -6.562  -9.956  13.481  0.00  0.00    +0.103 C 
ATOM     24  C   UNL     1      -4.464 -10.873  11.728  0.00  0.00    +0.120 C 
ATOM     25  C   UNL     1      -6.861 -10.289  12.017  0.00  0.00    +0.120 C 
BRANCH   7  27
ATOM      1  F   UNL     1      -6.216  -9.475   5.751  0.00  0.00    -0.205 F 
ATOM     27  C   UNL     1      -5.789  -9.998   9.824  0.00  0.00    +0.030 A 
ATOM     28  C   UNL     1      -4.864 -10.566   8.947  0.00  0.00    +0.026 A 
ATOM     29  C   UNL     1      -6.859  -9.255   9.325  0.00  0.00    +0.026 A 
ATOM     30  C   UNL     1      -5.008 -10.389   7.571  0.00  0.00    +0.040 A 
ATOM     31  C   UNL     1      -7.002  -9.079   7.949  0.00  0.00    +0.040 A 
ATOM     32  C   UNL     1      -6.077  -9.646   7.072  0.00  0.00    +0.124 A 
ENDBRANCH   7  27
ENDBRANCH  16   6
ENDBRANCH  12  16
ENDBRANCH   8  12
BRANCH   9  15
ATOM     15  C   UNL     1      -5.029 -12.683  18.424  0.00  0.00    +0.124 C 
BRANCH  15  26
ATOM      4  O   UNL     1      -3.301 -12.257  20.089  0.00  0.00    -0.251 OA
ATOM     26  C   UNL     1      -3.703 -12.194  18.937  0.00  0.00    +0.305 C 
BRANCH  26   3
ATOM      3  O   UNL     1      -2.986 -11.658  17.916  0.00  0.00    -0.481 OA
ATOM     33  H   UNL     1      -2.405 -12.323  17.488  0.00  0.00    +0.295 HD
ENDBRANCH  26   3
ENDBRANCH  15  26
ENDBRANCH   9  15
TORSDOF 8
ENDMDL
MODEL 8
REMARK VINA RESULT:      -6.0      4.079      8.950
REMARK  Name = 28959930
REMARK  8 active torsions:
REMARK  status: ('A' for Active; 'I' for Inactive)
REMARK    1  A    between atoms: O_3  and  C_26
REMARK    2  A    between atoms: N_6  and  C_16
REMARK    3  A    between atoms: N_7  and  C_27
REMARK    4  A    between atoms: C_8  and  C_12
REMARK    5  A    between atoms: C_9  and  C_15
REMARK    6  A    between atoms: C_12  and  C_16
REMARK    7  A    between atoms: C_14  and  C_17
REMARK    8  A    between atoms: C_15  and  C_26
REMARK                            x       y       z     vdW  Elec       q    Type
REMARK                         _______ _______ _______ _____ _____    ______ ____
ROOT
ATOM      2  O   UNL     1      -8.371 -11.667  18.314  0.00  0.00    -0.275 OA
ATOM      5  N   UNL     1      -6.521 -10.546  17.480  0.00  0.00    -0.301 N 
ATOM      8  C   UNL     1      -4.883 -10.089  15.671  0.00  0.00    +0.011 C 
ATOM      9  C   UNL     1      -3.848 -10.943  16.444  0.00  0.00    +0.006 C 
ATOM     10  C   UNL     1      -5.912  -9.499  16.653  0.00  0.00    +0.111 C 
ATOM     11  C   UNL     1      -4.533 -11.993  17.336  0.00  0.00    +0.023 C 
ATOM     13  C   UNL     1      -5.574 -11.352  18.249  0.00  0.00    +0.108 C 
ATOM     17  C   UNL     1      -7.901 -10.783  17.583  0.00  0.00    +0.219 C 
ENDROOT
BRANCH  17  14
ATOM     14  C   UNL     1      -8.806  -9.917  16.761  0.00  0.00    +0.075 C 
ATOM     18  C   UNL     1      -9.955  -9.382  17.622  0.00  0.00    +0.013 C 
ATOM     19  C   UNL     1      -9.453 -10.727  15.637  0.00  0.00    +0.013 C 
ATOM     20  C   UNL     1     -11.238  -9.812  16.918  0.00  0.00    +0.001 C 
ATOM     21  C   UNL     1     -10.843 -11.066  16.158  0.00  0.00    +0.001 C 
ENDBRANCH  17  14
BRANCH   8  12
ATOM     12  C   UNL     1      -5.597 -10.845  14.543  0.00  0.00    +0.020 C 
BRANCH  12  16
ATOM     16  C   UNL     1      -6.376  -9.885  13.655  0.00  0.00    +0.085 C 
BRANCH  16   6
ATOM      6  N   UNL     1      -5.800  -9.872  12.311  0.00  0.00    -0.299 NA
ATOM      7  N   UNL     1      -5.620 -10.554   9.544  0.00  0.00    -0.327 N 
ATOM     22  C   UNL     1      -6.755  -9.317  11.346  0.00  0.00    +0.103 C 
ATOM     23  C   UNL     1      -5.408 -11.227  11.905  0.00  0.00    +0.103 C 
ATOM     24  C   UNL     1      -6.143  -9.244   9.944  0.00  0.00    +0.120 C 
ATOM     25  C   UNL     1      -4.750 -11.218  10.523  0.00  0.00    +0.120 C 
BRANCH   7  27
ATOM      1  F   UNL     1      -4.819 -11.662   4.187  0.00  0.00    -0.205 F 
ATOM     27  C   UNL     1      -5.417 -10.835   8.187  0.00  0.00    +0.030 A 
ATOM     28  C   UNL     1      -6.061 -10.071   7.214  0.00  0.00    +0.026 A 
ATOM     29  C   UNL     1      -4.570 -11.877   7.810  0.00  0.00    +0.026 A 
ATOM     30  C   UNL     1      -5.859 -10.350   5.862  0.00  0.00    +0.040 A 
ATOM     31  C   UNL     1      -4.369 -12.156   6.458  0.00  0.00    +0.040 A 
ATOM     32  C   UNL     1      -5.013 -11.393   5.484  0.00  0.00    +0.124 A 
ENDBRANCH   7  27
ENDBRANCH  16   6
ENDBRANCH  12  16
ENDBRANCH   8  12
BRANCH   9  15
ATOM     15  C   UNL     1      -2.813 -11.602  15.533  0.00  0.00    +0.124 C 
BRANCH  15  26
ATOM      4  O   UNL     1      -1.638  -9.966  14.161  0.00  0.00    -0.251 OA
ATOM     26  C   UNL     1      -1.706 -10.651  15.170  0.00  0.00    +0.305 C 
BRANCH  26   3
ATOM      3  O   UNL     1      -0.761 -10.654  16.145  0.00  0.00    -0.481 OA
ATOM     33  H   UNL     1      -0.515  -9.744  16.419  0.00  0.00    +0.295 HD
ENDBRANCH  26   3
ENDBRANCH  15  26
ENDBRANCH   9  15
TORSDOF 8
ENDMDL
MODEL 9
REMARK VINA RESULT:      -6.0      4.448      8.001
REMARK  Name = 28959930
REMARK  8 active torsions:
REMARK  status: ('A' for Active; 'I' for Inactive)
REMARK    1  A    between atoms: O_3  and  C_26
REMARK    2  A    between atoms: N_6  and  C_16
REMARK    3  A    between atoms: N_7  and  C_27
REMARK    4  A    between atoms: C_8  and  C_12
REMARK    5  A    between atoms: C_9  and  C_15
REMARK    6  A    between atoms: C_12  and  C_16
REMARK    7  A    between atoms: C_14  and  C_17
REMARK    8  A    between atoms: C_15  and  C_26
REMARK                            x       y       z     vdW  Elec       q    Type
REMARK                         _______ _______ _______ _____ _____    ______ ____
ROOT
ATOM      2  O   UNL     1      -8.667 -11.656  13.570  0.00  0.00    -0.275 OA
ATOM      5  N   UNL     1      -6.939 -10.953  14.947  0.00  0.00    -0.301 N 
ATOM      8  C   UNL     1      -4.685 -11.258  15.944  0.00  0.00    +0.011 C 
ATOM      9  C   UNL     1      -5.369 -11.707  17.259  0.00  0.00    +0.006 C 
ATOM     10  C   UNL     1      -5.627 -10.330  15.155  0.00  0.00    +0.111 C 
ATOM     11  C   UNL     1      -6.761 -12.308  16.997  0.00  0.00    +0.023 C 
ATOM     13  C   UNL     1      -7.628 -11.361  16.171  0.00  0.00    +0.108 C 
ATOM     17  C   UNL     1      -7.544 -11.144  13.695  0.00  0.00    +0.219 C 
ENDROOT
BRANCH  17  14
ATOM     14  C   UNL     1      -6.773 -10.703  12.489  0.00  0.00    +0.075 C 
ATOM     18  C   UNL     1      -7.071  -9.232  12.177  0.00  0.00    +0.013 C 
ATOM     19  C   UNL     1      -7.200 -11.497  11.255  0.00  0.00    +0.013 C 
ATOM     20  C   UNL     1      -7.567  -9.205  10.735  0.00  0.00    +0.001 C 
ATOM     21  C   UNL     1      -8.172 -10.581  10.524  0.00  0.00    +0.001 C 
ENDBRANCH  17  14
BRANCH   8  12
ATOM     12  C   UNL     1      -4.216 -12.418  15.057  0.00  0.00    +0.020 C 
BRANCH  12  16
ATOM     16  C   UNL     1      -2.792 -12.189  14.570  0.00  0.00    +0.085 C 
BRANCH  16   6
ATOM      6  N   UNL     1      -2.772 -12.118  13.110  0.00  0.00    -0.299 NA
ATOM      7  N   UNL     1      -3.832 -11.595  10.510  0.00  0.00    -0.327 N 
ATOM     22  C   UNL     1      -2.987 -10.738  12.658  0.00  0.00    +0.103 C 
ATOM     23  C   UNL     1      -3.798 -12.996  12.536  0.00  0.00    +0.103 C 
ATOM     24  C   UNL     1      -2.911 -10.639  11.133  0.00  0.00    +0.120 C 
ATOM     25  C   UNL     1      -3.749 -12.974  11.006  0.00  0.00    +0.120 C 
BRANCH   7  27
ATOM      1  F   UNL     1      -5.479 -10.814   5.291  0.00  0.00    -0.205 F 
ATOM     27  C   UNL     1      -4.249 -11.397   9.188  0.00  0.00    +0.030 A 
ATOM     28  C   UNL     1      -4.204 -12.453   8.278  0.00  0.00    +0.026 A 
ATOM     29  C   UNL     1      -4.712 -10.145   8.783  0.00  0.00    +0.026 A 
ATOM     30  C   UNL     1      -4.619 -12.256   6.961  0.00  0.00    +0.040 A 
ATOM     31  C   UNL     1      -5.127  -9.949   7.466  0.00  0.00    +0.040 A 
ATOM     32  C   UNL     1      -5.081 -11.004   6.555  0.00  0.00    +0.124 A 
ENDBRANCH   7  27
ENDBRANCH  16   6
ENDBRANCH  12  16
ENDBRANCH   8  12
BRANCH   9  15
ATOM     15  C   UNL     1      -4.514 -12.669  18.083  0.00  0.00    +0.124 C 
BRANCH  15  26
ATOM      4  O   UNL     1      -4.818 -11.620  20.262  0.00  0.00    -0.251 OA
ATOM     26  C   UNL     1      -4.084 -12.054  19.386  0.00  0.00    +0.305 C 
BRANCH  26   3
ATOM      3  O   UNL     1      -2.729 -12.046  19.465  0.00  0.00    -0.481 OA
ATOM     33  H   UNL     1      -2.347 -12.935  19.304  0.00  0.00    +0.295 HD
ENDBRANCH  26   3
ENDBRANCH  15  26
ENDBRANCH   9  15
TORSDOF 8
ENDMDL
MODEL 10
REMARK VINA RESULT:      -6.0     24.644     28.647
REMARK  Name = 28959930
REMARK  8 active torsions:
REMARK  status: ('A' for Active; 'I' for Inactive)
REMARK    1  A    between atoms: O_3  and  C_26
REMARK    2  A    between atoms: N_6  and  C_16
REMARK    3  A    between atoms: N_7  and  C_27
REMARK    4  A    between atoms: C_8  and  C_12
REMARK    5  A    between atoms: C_9  and  C_15
REMARK    6  A    between atoms: C_12  and  C_16
REMARK    7  A    between atoms: C_14  and  C_17
REMARK    8  A    between atoms: C_15  and  C_26
REMARK                            x       y       z     vdW  Elec       q    Type
REMARK                         _______ _______ _______ _____ _____    ______ ____
ROOT
ATOM      2  O   UNL     1       9.843  11.190   5.542  0.00  0.00    -0.275 OA
ATOM      5  N   UNL     1      10.691   9.239   6.463  0.00  0.00    -0.301 N 
ATOM      8  C   UNL     1      10.728   6.765   6.674  0.00  0.00    +0.011 C 
ATOM      9  C   UNL     1       9.964   6.906   8.014  0.00  0.00    +0.006 C 
ATOM     10  C   UNL     1      11.540   8.043   6.398  0.00  0.00    +0.111 C 
ATOM     11  C   UNL     1       9.129   8.197   8.057  0.00  0.00    +0.023 C 
ATOM     13  C   UNL     1       9.980   9.420   7.727  0.00  0.00    +0.108 C 
ATOM     17  C   UNL     1      10.557  10.181   5.432  0.00  0.00    +0.219 C 
ENDROOT
BRANCH  17  14
ATOM     14  C   UNL     1      11.316   9.922   4.166  0.00  0.00    +0.075 C 
ATOM     18  C   UNL     1      12.151  11.150   3.788  0.00  0.00    +0.013 C 
ATOM     19  C   UNL     1      10.356   9.682   3.001  0.00  0.00    +0.013 C 
ATOM     20  C   UNL     1      11.723  11.526   2.373  0.00  0.00    +0.001 C 
ATOM     21  C   UNL     1      10.297  11.016   2.270  0.00  0.00    +0.001 C 
ENDBRANCH  17  14
BRANCH   8  12
ATOM     12  C   UNL     1       9.829   6.437   5.475  0.00  0.00    +0.020 C 
BRANCH  12  16
ATOM     16  C   UNL     1      10.068   5.014   4.990  0.00  0.00    +0.085 C 
BRANCH  16   6
ATOM      6  N   UNL     1      10.978   5.026   3.845  0.00  0.00    -0.299 NA
ATOM      7  N   UNL     1      11.714   4.775   1.097  0.00  0.00    -0.327 N 
ATOM     22  C   UNL     1      10.564   6.041   2.869  0.00  0.00    +0.103 C 
ATOM     23  C   UNL     1      11.019   3.705   3.205  0.00  0.00    +0.103 C 
ATOM     24  C   UNL     1      11.541   6.103   1.692  0.00  0.00    +0.120 C 
ATOM     25  C   UNL     1      12.012   3.690   2.040  0.00  0.00    +0.120 C 
BRANCH   7  27
ATOM      1  F   UNL     1      13.617   4.315  -4.073  0.00  0.00    -0.205 F 
ATOM     27  C   UNL     1      12.196   4.658  -0.212  0.00  0.00    +0.030 A 
ATOM     28  C   UNL     1      11.351   4.918  -1.291  0.00  0.00    +0.026 A 
ATOM     29  C   UNL     1      13.521   4.284  -0.437  0.00  0.00    +0.026 A 
ATOM     30  C   UNL     1      11.831   4.802  -2.596  0.00  0.00    +0.040 A 
ATOM     31  C   UNL     1      14.000   4.168  -1.741  0.00  0.00    +0.040 A 
ATOM     32  C   UNL     1      13.156   4.427  -2.821  0.00  0.00    +0.124 A 
ENDBRANCH   7  27
ENDBRANCH  16   6
ENDBRANCH  12  16
ENDBRANCH   8  12
BRANCH   9  15
ATOM     15  C   UNL     1       9.096   5.691   8.341  0.00  0.00    +0.124 C 
BRANCH  15  26
ATOM      4  O   UNL     1      10.061   4.724  10.360  0.00  0.00    -0.251 OA
ATOM     26  C   UNL     1       9.847   4.676   9.158  0.00  0.00    +0.305 C 
BRANCH  26   3
ATOM      3  O   UNL     1      10.268   3.664   8.357  0.00  0.00    -0.481 OA
ATOM     33  H   UNL     1       9.737   3.603   7.534  0.00  0.00    +0.295 HD
ENDBRANCH  26   3
ENDBRANCH  15  26
ENDBRANCH   9  15
TORSDOF 8
ENDMDL
