MODEL 1
REMARK VINA RESULT:      -6.8      0.000      0.000
REMARK  Name = 45783893
REMARK  9 active torsions:
REMARK  status: ('A' for Active; 'I' for Inactive)
REMARK    1  A    between atoms: N_2  and  C_13
REMARK    2  A    between atoms: C_8  and  C_12
REMARK    3  A    between atoms: C_9  and  C_13
REMARK    4  A    between atoms: C_11  and  C_16
REMARK    5  A    between atoms: C_12  and  C_17
REMARK    6  A    between atoms: C_12  and  C_18
REMARK    7  A    between atoms: C_15  and  C_21
REMARK    8  A    between atoms: C_16  and  C_24
REMARK    9  A    between atoms: C_26  and  C_27
REMARK                            x       y       z     vdW  Elec       q    Type
REMARK                         _______ _______ _______ _____ _____    ______ ____
ROOT
ATOM      8  C   UNL     1      -4.935 -11.990  15.415  0.00  0.00    +0.000 C 
ATOM      9  C   UNL     1      -4.604 -11.098  16.635  0.00  0.00    +0.029 C 
ATOM     10  C   UNL     1      -4.306 -11.412  14.140  0.00  0.00    +0.012 C 
ATOM     11  C   UNL     1      -2.777 -11.226  14.241  0.00  0.00    +0.024 C 
ATOM     14  C   UNL     1      -3.163 -10.657  16.657  0.00  0.00    -0.023 C 
ATOM     15  C   UNL     1      -2.328 -10.718  15.603  0.00  0.00    -0.073 C 
ATOM     21  C   UNL     1      -0.883 -10.332  15.759  0.00  0.00    +0.039 C 
ENDROOT
BRANCH   8  12
ATOM     12  C   UNL     1      -4.488 -13.440  15.646  0.00  0.00    -0.013 C 
ATOM     17  C   UNL     1      -4.818 -14.298  14.430  0.00  0.00    +0.007 C 
ATOM     18  C   UNL     1      -5.143 -14.006  16.901  0.00  0.00    +0.007 C 
ENDBRANCH   8  12
BRANCH   9  13
ATOM     13  C   UNL     1      -5.509  -9.862  16.693  0.00  0.00    +0.092 C 
BRANCH  13   2
ATOM      2  N   UNL     1      -6.885 -10.245  17.009  0.00  0.00    -0.299 NA
ATOM      3  N   UNL     1      -9.482  -9.928  18.156  0.00  0.00    -0.297 N 
ATOM      6  N   UNL     1     -10.888 -10.116  20.011  0.00  0.00    -0.223 NA
ATOM      7  N   UNL     1     -11.775  -9.644  17.822  0.00  0.00    -0.223 NA
ATOM     19  C   UNL     1      -7.071 -10.345  18.462  0.00  0.00    +0.103 C 
ATOM     20  C   UNL     1      -7.831  -9.273  16.450  0.00  0.00    +0.103 C 
ATOM     22  C   UNL     1      -8.492 -10.799  18.803  0.00  0.00    +0.123 C 
ATOM     23  C   UNL     1      -9.278  -9.691  16.724  0.00  0.00    +0.123 C 
ATOM     25  C   UNL     1     -10.776  -9.895  18.688  0.00  0.00    +0.218 A 
ATOM     28  C   UNL     1     -12.148 -10.076  20.491  0.00  0.00    +0.116 A 
ATOM     29  C   UNL     1     -13.009  -9.619  18.368  0.00  0.00    +0.116 A 
ATOM     30  C   UNL     1     -13.259  -9.830  19.708  0.00  0.00    +0.039 A 
ENDBRANCH  13   2
ENDBRANCH   9  13
BRANCH  11  16
ATOM     16  C   UNL     1      -2.315 -10.327  13.087  0.00  0.00    +0.105 C 
BRANCH  16  24
ATOM      1  O   UNL     1      -3.467  -9.795  11.003  0.00  0.00    -0.425 OA
ATOM      4  N   UNL     1      -2.985 -11.965  11.255  0.00  0.00    -0.112 NA
ATOM      5  N   UNL     1      -3.632 -11.809  10.043  0.00  0.00    -0.113 NA
ATOM     24  C   UNL     1      -2.911 -10.765  11.779  0.00  0.00    +0.218 A 
ATOM     26  C   UNL     1      -3.895 -10.527   9.938  0.00  0.00    +0.214 A 
ATOM     27  C   UNL     1      -4.569  -9.796   8.858  0.00  0.00    +0.111 C 
ENDBRANCH  16  24
ENDBRANCH  11  16
TORSDOF 5
ENDMDL
MODEL 2
REMARK VINA RESULT:      -6.7     26.228     30.122
REMARK  Name = 45783893
REMARK  9 active torsions:
REMARK  status: ('A' for Active; 'I' for Inactive)
REMARK    1  A    between atoms: N_2  and  C_13
REMARK    2  A    between atoms: C_8  and  C_12
REMARK    3  A    between atoms: C_9  and  C_13
REMARK    4  A    between atoms: C_11  and  C_16
REMARK    5  A    between atoms: C_12  and  C_17
REMARK    6  A    between atoms: C_12  and  C_18
REMARK    7  A    between atoms: C_15  and  C_21
REMARK    8  A    between atoms: C_16  and  C_24
REMARK    9  A    between atoms: C_26  and  C_27
REMARK                            x       y       z     vdW  Elec       q    Type
REMARK                         _______ _______ _______ _____ _____    ______ ____
ROOT
ATOM      8  C   UNL     1      14.059   8.781  20.063  0.00  0.00    +0.000 C 
ATOM      9  C   UNL     1      13.596   7.628  19.140  0.00  0.00    +0.029 C 
ATOM     10  C   UNL     1      12.871   9.346  20.854  0.00  0.00    +0.012 C 
ATOM     11  C   UNL     1      12.133   8.281  21.693  0.00  0.00    +0.024 C 
ATOM     14  C   UNL     1      12.650   6.679  19.829  0.00  0.00    -0.023 C 
ATOM     15  C   UNL     1      11.997   6.946  20.975  0.00  0.00    -0.073 C 
ATOM     21  C   UNL     1      11.142   5.893  21.623  0.00  0.00    +0.039 C 
ENDROOT
BRANCH   8  12
ATOM     12  C   UNL     1      15.186   8.328  21.000  0.00  0.00    -0.013 C 
ATOM     17  C   UNL     1      15.786   9.526  21.728  0.00  0.00    +0.007 C 
ATOM     18  C   UNL     1      16.259   7.576  20.220  0.00  0.00    +0.007 C 
ENDBRANCH   8  12
BRANCH   9  13
ATOM     13  C   UNL     1      12.937   8.158  17.862  0.00  0.00    +0.092 C 
BRANCH  13   2
ATOM      2  N   UNL     1      13.834   9.074  17.159  0.00  0.00    -0.299 NA
ATOM      3  N   UNL     1      14.598  10.927  15.122  0.00  0.00    -0.297 N 
ATOM      6  N   UNL     1      15.404  11.309  12.965  0.00  0.00    -0.223 NA
ATOM      7  N   UNL     1      15.201  13.109  14.554  0.00  0.00    -0.223 NA
ATOM     19  C   UNL     1      14.071   8.611  15.786  0.00  0.00    +0.103 C 
ATOM     20  C   UNL     1      13.274  10.430  17.139  0.00  0.00    +0.103 C 
ATOM     22  C   UNL     1      15.053   9.531  15.058  0.00  0.00    +0.123 C 
ATOM     23  C   UNL     1      14.229  11.411  16.456  0.00  0.00    +0.123 C 
ATOM     25  C   UNL     1      15.091  11.824  14.169  0.00  0.00    +0.218 A 
ATOM     28  C   UNL     1      15.876  12.202  12.070  0.00  0.00    +0.116 A 
ATOM     29  C   UNL     1      15.680  13.947  13.610  0.00  0.00    +0.116 A 
ATOM     30  C   UNL     1      16.037  13.546  12.339  0.00  0.00    +0.039 A 
ENDBRANCH  13   2
ENDBRANCH   9  13
BRANCH  11  16
ATOM     16  C   UNL     1      10.783   8.858  22.139  0.00  0.00    +0.105 C 
BRANCH  16  24
ATOM      1  O   UNL     1      10.917  10.433  23.998  0.00  0.00    -0.425 OA
ATOM      4  N   UNL     1      11.068  11.385  21.980  0.00  0.00    -0.112 NA
ATOM      5  N   UNL     1      11.156  12.384  22.932  0.00  0.00    -0.113 NA
ATOM     24  C   UNL     1      10.930  10.264  22.648  0.00  0.00    +0.218 A 
ATOM     26  C   UNL     1      11.063  11.782  24.094  0.00  0.00    +0.214 A 
ATOM     27  C   UNL     1      11.094  12.351  25.448  0.00  0.00    +0.111 C 
ENDBRANCH  16  24
ENDBRANCH  11  16
TORSDOF 5
ENDMDL
MODEL 3
REMARK VINA RESULT:      -6.5      2.732      8.183
REMARK  Name = 45783893
REMARK  9 active torsions:
REMARK  status: ('A' for Active; 'I' for Inactive)
REMARK    1  A    between atoms: N_2  and  C_13
REMARK    2  A    between atoms: C_8  and  C_12
REMARK    3  A    between atoms: C_9  and  C_13
REMARK    4  A    between atoms: C_11  and  C_16
REMARK    5  A    between atoms: C_12  and  C_17
REMARK    6  A    between atoms: C_12  and  C_18
REMARK    7  A    between atoms: C_15  and  C_21
REMARK    8  A    between atoms: C_16  and  C_24
REMARK    9  A    between atoms: C_26  and  C_27
REMARK                            x       y       z     vdW  Elec       q    Type
REMARK                         _______ _______ _______ _____ _____    ______ ____
ROOT
ATOM      8  C   UNL     1      -3.493 -10.441  15.238  0.00  0.00    +0.000 C 
ATOM      9  C   UNL     1      -4.595 -11.211  14.471  0.00  0.00    +0.029 C 
ATOM     10  C   UNL     1      -3.867 -10.301  16.720  0.00  0.00    +0.012 C 
ATOM     11  C   UNL     1      -4.128 -11.654  17.416  0.00  0.00    +0.024 C 
ATOM     14  C   UNL     1      -5.088 -12.419  15.225  0.00  0.00    -0.023 C 
ATOM     15  C   UNL     1      -4.880 -12.642  16.535  0.00  0.00    -0.073 C 
ATOM     21  C   UNL     1      -5.343 -13.924  17.169  0.00  0.00    +0.039 C 
ENDROOT
BRANCH   8  12
ATOM     12  C   UNL     1      -2.124 -11.112  15.072  0.00  0.00    -0.013 C 
ATOM     17  C   UNL     1      -1.023 -10.223  15.642  0.00  0.00    +0.007 C 
ATOM     18  C   UNL     1      -1.858 -11.426  13.603  0.00  0.00    +0.007 C 
ENDBRANCH   8  12
BRANCH   9  13
ATOM     13  C   UNL     1      -5.785 -10.307  14.133  0.00  0.00    +0.092 C 
BRANCH  13   2
ATOM      2  N   UNL     1      -5.681  -9.805  12.763  0.00  0.00    -0.299 NA
ATOM      3  N   UNL     1      -6.097  -9.832   9.937  0.00  0.00    -0.297 N 
ATOM      6  N   UNL     1      -5.439 -10.576   7.824  0.00  0.00    -0.223 NA
ATOM      7  N   UNL     1      -7.103  -8.851   8.073  0.00  0.00    -0.223 NA
ATOM     19  C   UNL     1      -4.962 -10.765  11.917  0.00  0.00    +0.103 C 
ATOM     20  C   UNL     1      -7.014  -9.548  12.206  0.00  0.00    +0.103 C 
ATOM     22  C   UNL     1      -4.797 -10.226  10.494  0.00  0.00    +0.123 C 
ATOM     23  C   UNL     1      -6.917  -8.969  10.792  0.00  0.00    +0.123 C 
ATOM     25  C   UNL     1      -6.219  -9.749   8.546  0.00  0.00    +0.218 A 
ATOM     28  C   UNL     1      -5.582 -10.469   6.486  0.00  0.00    +0.116 A 
ATOM     29  C   UNL     1      -7.195  -8.797   6.727  0.00  0.00    +0.116 A 
ATOM     30  C   UNL     1      -6.453  -9.589   5.876  0.00  0.00    +0.039 A 
ENDBRANCH  13   2
ENDBRANCH   9  13
BRANCH  11  16
ATOM     16  C   UNL     1      -4.832 -11.390  18.752  0.00  0.00    +0.105 C 
BRANCH  16  24
ATOM      1  O   UNL     1      -6.524  -9.922  17.784  0.00  0.00    -0.425 OA
ATOM      4  N   UNL     1      -7.358 -11.600  19.004  0.00  0.00    -0.112 NA
ATOM      5  N   UNL     1      -8.418 -10.854  18.523  0.00  0.00    -0.113 NA
ATOM     24  C   UNL     1      -6.274 -11.020  18.548  0.00  0.00    +0.218 A 
ATOM     26  C   UNL     1      -7.883  -9.885  17.817  0.00  0.00    +0.214 A 
ATOM     27  C   UNL     1      -8.535  -8.797  17.078  0.00  0.00    +0.111 C 
ENDBRANCH  16  24
ENDBRANCH  11  16
TORSDOF 5
ENDMDL
MODEL 4
REMARK VINA RESULT:      -6.5     23.326     28.221
REMARK  Name = 45783893
REMARK  9 active torsions:
REMARK  status: ('A' for Active; 'I' for Inactive)
REMARK    1  A    between atoms: N_2  and  C_13
REMARK    2  A    between atoms: C_8  and  C_12
REMARK    3  A    between atoms: C_9  and  C_13
REMARK    4  A    between atoms: C_11  and  C_16
REMARK    5  A    between atoms: C_12  and  C_17
REMARK    6  A    between atoms: C_12  and  C_18
REMARK    7  A    between atoms: C_15  and  C_21
REMARK    8  A    between atoms: C_16  and  C_24
REMARK    9  A    between atoms: C_26  and  C_27
REMARK                            x       y       z     vdW  Elec       q    Type
REMARK                         _______ _______ _______ _____ _____    ______ ____
ROOT
ATOM      8  C   UNL     1       9.273   7.356   3.896  0.00  0.00    +0.000 C 
ATOM      9  C   UNL     1      10.811   7.206   3.822  0.00  0.00    +0.029 C 
ATOM     10  C   UNL     1       8.818   7.513   5.354  0.00  0.00    +0.012 C 
ATOM     11  C   UNL     1       9.487   8.699   6.081  0.00  0.00    +0.024 C 
ATOM     14  C   UNL     1      11.532   8.177   4.719  0.00  0.00    -0.023 C 
ATOM     15  C   UNL     1      10.957   8.862   5.725  0.00  0.00    -0.073 C 
ATOM     21  C   UNL     1      11.752   9.873   6.505  0.00  0.00    +0.039 C 
ENDROOT
BRANCH   8  12
ATOM     12  C   UNL     1       8.783   8.528   3.034  0.00  0.00    -0.013 C 
ATOM     17  C   UNL     1       7.313   8.819   3.318  0.00  0.00    +0.007 C 
ATOM     18  C   UNL     1       8.998   8.227   1.555  0.00  0.00    +0.007 C 
ENDBRANCH   8  12
BRANCH   9  13
ATOM     13  C   UNL     1      11.256   5.779   4.161  0.00  0.00    +0.092 C 
BRANCH  13   2
ATOM      2  N   UNL     1      11.691   5.073   2.957  0.00  0.00    -0.299 NA
ATOM      3  N   UNL     1      11.765   4.481   0.163  0.00  0.00    -0.297 N 
ATOM      6  N   UNL     1      10.841   3.375  -1.674  0.00  0.00    -0.223 NA
ATOM      7  N   UNL     1      12.985   4.463  -1.828  0.00  0.00    -0.223 NA
ATOM     19  C   UNL     1      10.553   4.409   2.309  0.00  0.00    +0.103 C 
ATOM     20  C   UNL     1      12.330   6.001   2.017  0.00  0.00    +0.103 C 
ATOM     22  C   UNL     1      11.006   3.620   1.079  0.00  0.00    +0.123 C 
ATOM     23  C   UNL     1      12.841   5.265   0.777  0.00  0.00    +0.123 C 
ATOM     25  C   UNL     1      11.869   4.088  -1.176  0.00  0.00    +0.218 A 
ATOM     28  C   UNL     1      10.973   3.014  -2.967  0.00  0.00    +0.116 A 
ATOM     29  C   UNL     1      13.052   4.068  -3.116  0.00  0.00    +0.116 A 
ATOM     30  C   UNL     1      12.068   3.334  -3.745  0.00  0.00    +0.039 A 
ENDBRANCH  13   2
ENDBRANCH   9  13
BRANCH  11  16
ATOM     16  C   UNL     1       9.251   8.546   7.588  0.00  0.00    +0.105 C 
BRANCH  16  24
ATOM      1  O   UNL     1       8.896   6.489   8.852  0.00  0.00    -0.425 OA
ATOM      4  N   UNL     1      10.917   6.645   7.907  0.00  0.00    -0.112 NA
ATOM      5  N   UNL     1      10.855   5.443   8.586  0.00  0.00    -0.113 NA
ATOM     24  C   UNL     1       9.753   7.221   8.089  0.00  0.00    +0.218 A 
ATOM     26  C   UNL     1       9.658   5.394   9.122  0.00  0.00    +0.214 A 
ATOM     27  C   UNL     1       9.045   4.348   9.951  0.00  0.00    +0.111 C 
ENDBRANCH  16  24
ENDBRANCH  11  16
TORSDOF 5
ENDMDL
MODEL 5
REMARK VINA RESULT:      -6.5     23.557     28.756
REMARK  Name = 45783893
REMARK  9 active torsions:
REMARK  status: ('A' for Active; 'I' for Inactive)
REMARK    1  A    between atoms: N_2  and  C_13
REMARK    2  A    between atoms: C_8  and  C_12
REMARK    3  A    between atoms: C_9  and  C_13
REMARK    4  A    between atoms: C_11  and  C_16
REMARK    5  A    between atoms: C_12  and  C_17
REMARK    6  A    between atoms: C_12  and  C_18
REMARK    7  A    between atoms: C_15  and  C_21
REMARK    8  A    between atoms: C_16  and  C_24
REMARK    9  A    between atoms: C_26  and  C_27
REMARK                            x       y       z     vdW  Elec       q    Type
REMARK                         _______ _______ _______ _____ _____    ______ ____
ROOT
ATOM      8  C   UNL     1      10.151   6.227   3.369  0.00  0.00    +0.000 C 
ATOM      9  C   UNL     1      11.435   5.922   2.563  0.00  0.00    +0.029 C 
ATOM     10  C   UNL     1      10.420   6.105   4.875  0.00  0.00    +0.012 C 
ATOM     11  C   UNL     1      11.565   7.015   5.369  0.00  0.00    +0.024 C 
ATOM     14  C   UNL     1      12.658   6.580   3.150  0.00  0.00    -0.023 C 
ATOM     15  C   UNL     1      12.732   7.084   4.395  0.00  0.00    -0.073 C 
ATOM     21  C   UNL     1      13.975   7.797   4.851  0.00  0.00    +0.039 C 
ENDROOT
BRANCH   8  12
ATOM     12  C   UNL     1       9.585   7.610   3.017  0.00  0.00    -0.013 C 
ATOM     17  C   UNL     1       8.276   7.854   3.761  0.00  0.00    +0.007 C 
ATOM     18  C   UNL     1       9.383   7.735   1.511  0.00  0.00    +0.007 C 
ENDBRANCH   8  12
BRANCH   9  13
ATOM     13  C   UNL     1      11.682   4.415   2.442  0.00  0.00    +0.092 C 
BRANCH  13   2
ATOM      2  N   UNL     1      11.505   3.970   1.060  0.00  0.00    -0.299 NA
ATOM      3  N   UNL     1      11.895   4.030  -1.769  0.00  0.00    -0.297 N 
ATOM      6  N   UNL     1      11.312   4.911  -3.852  0.00  0.00    -0.223 NA
ATOM      7  N   UNL     1      12.756   2.990  -3.674  0.00  0.00    -0.223 NA
ATOM     19  C   UNL     1      10.900   5.036   0.250  0.00  0.00    +0.103 C 
ATOM     20  C   UNL     1      12.791   3.569   0.478  0.00  0.00    +0.103 C 
ATOM     22  C   UNL     1      10.657   4.563  -1.184  0.00  0.00    +0.123 C 
ATOM     23  C   UNL     1      12.611   3.048  -0.949  0.00  0.00    +0.123 C 
ATOM     25  C   UNL     1      11.992   3.974  -3.164  0.00  0.00    +0.218 A 
ATOM     28  C   UNL     1      11.428   4.827  -5.194  0.00  0.00    +0.116 A 
ATOM     29  C   UNL     1      12.828   2.965  -5.021  0.00  0.00    +0.116 A 
ATOM     30  C   UNL     1      12.179   3.866  -5.840  0.00  0.00    +0.039 A 
ENDBRANCH  13   2
ENDBRANCH   9  13
BRANCH  11  16
ATOM     16  C   UNL     1      11.985   6.557   6.771  0.00  0.00    +0.105 C 
BRANCH  16  24
ATOM      1  O   UNL     1      10.731   5.250   8.407  0.00  0.00    -0.425 OA
ATOM      4  N   UNL     1       9.779   7.201   7.870  0.00  0.00    -0.112 NA
ATOM      5  N   UNL     1       8.969   6.571   8.796  0.00  0.00    -0.113 NA
ATOM     24  C   UNL     1      10.795   6.395   7.674  0.00  0.00    +0.218 A 
ATOM     26  C   UNL     1       9.563   5.436   9.080  0.00  0.00    +0.214 A 
ATOM     27  C   UNL     1       9.151   4.368  10.000  0.00  0.00    +0.111 C 
ENDBRANCH  16  24
ENDBRANCH  11  16
TORSDOF 5
ENDMDL
MODEL 6
REMARK VINA RESULT:      -6.5      2.456      3.767
REMARK  Name = 45783893
REMARK  9 active torsions:
REMARK  status: ('A' for Active; 'I' for Inactive)
REMARK    1  A    between atoms: N_2  and  C_13
REMARK    2  A    between atoms: C_8  and  C_12
REMARK    3  A    between atoms: C_9  and  C_13
REMARK    4  A    between atoms: C_11  and  C_16
REMARK    5  A    between atoms: C_12  and  C_17
REMARK    6  A    between atoms: C_12  and  C_18
REMARK    7  A    between atoms: C_15  and  C_21
REMARK    8  A    between atoms: C_16  and  C_24
REMARK    9  A    between atoms: C_26  and  C_27
REMARK                            x       y       z     vdW  Elec       q    Type
REMARK                         _______ _______ _______ _____ _____    ______ ____
ROOT
ATOM      8  C   UNL     1      -3.740 -11.865  12.711  0.00  0.00    +0.000 C 
ATOM      9  C   UNL     1      -2.651 -11.278  13.640  0.00  0.00    +0.029 C 
ATOM     10  C   UNL     1      -4.271 -10.786  11.757  0.00  0.00    +0.012 C 
ATOM     11  C   UNL     1      -3.168 -10.128  10.902  0.00  0.00    +0.024 C 
ATOM     14  C   UNL     1      -1.673 -10.399  12.902  0.00  0.00    -0.023 C 
ATOM     15  C   UNL     1      -1.880  -9.886  11.676  0.00  0.00    -0.073 C 
ATOM     21  C   UNL     1      -0.801  -9.091  10.995  0.00  0.00    +0.039 C 
ENDROOT
BRANCH   8  12
ATOM     12  C   UNL     1      -3.218 -13.083  11.937  0.00  0.00    -0.013 C 
ATOM     17  C   UNL     1      -4.348 -13.734  11.146  0.00  0.00    +0.007 C 
ATOM     18  C   UNL     1      -2.578 -14.086  12.890  0.00  0.00    +0.007 C 
ENDBRANCH   8  12
BRANCH   9  13
ATOM     13  C   UNL     1      -3.263 -10.488  14.801  0.00  0.00    +0.092 C 
BRANCH  13   2
ATOM      2  N   UNL     1      -4.447 -11.170  15.323  0.00  0.00    -0.299 NA
ATOM      3  N   UNL     1      -6.554 -11.682  17.184  0.00  0.00    -0.297 N 
ATOM      6  N   UNL     1      -7.282 -12.709  19.150  0.00  0.00    -0.223 NA
ATOM      7  N   UNL     1      -8.844 -11.675  17.634  0.00  0.00    -0.223 NA
ATOM     19  C   UNL     1      -4.154 -11.785  16.625  0.00  0.00    +0.103 C 
ATOM     20  C   UNL     1      -5.567 -10.232  15.454  0.00  0.00    +0.103 C 
ATOM     22  C   UNL     1      -5.368 -12.549  17.156  0.00  0.00    +0.123 C 
ATOM     23  C   UNL     1      -6.828 -10.945  15.946  0.00  0.00    +0.123 C 
ATOM     25  C   UNL     1      -7.610 -12.039  18.029  0.00  0.00    +0.218 A 
ATOM     28  C   UNL     1      -8.325 -13.037  19.942  0.00  0.00    +0.116 A 
ATOM     29  C   UNL     1      -9.839 -12.035  18.473  0.00  0.00    +0.116 A 
ATOM     30  C   UNL     1      -9.637 -12.723  19.651  0.00  0.00    +0.039 A 
ENDBRANCH  13   2
ENDBRANCH   9  13
BRANCH  11  16
ATOM     16  C   UNL     1      -3.734  -8.849  10.271  0.00  0.00    +0.105 C 
BRANCH  16  24
ATOM      1  O   UNL     1      -4.355 -10.019   8.222  0.00  0.00    -0.425 OA
ATOM      4  N   UNL     1      -5.977  -8.734   9.070  0.00  0.00    -0.112 NA
ATOM      5  N   UNL     1      -6.461  -9.330   7.920  0.00  0.00    -0.113 NA
ATOM     24  C   UNL     1      -4.746  -9.165   9.207  0.00  0.00    +0.218 A 
ATOM     26  C   UNL     1      -5.481 -10.070   7.459  0.00  0.00    +0.214 A 
ATOM     27  C   UNL     1      -5.434 -10.923   6.264  0.00  0.00    +0.111 C 
ENDBRANCH  16  24
ENDBRANCH  11  16
TORSDOF 5
ENDMDL
MODEL 7
REMARK VINA RESULT:      -6.4      2.916      4.242
REMARK  Name = 45783893
REMARK  9 active torsions:
REMARK  status: ('A' for Active; 'I' for Inactive)
REMARK    1  A    between atoms: N_2  and  C_13
REMARK    2  A    between atoms: C_8  and  C_12
REMARK    3  A    between atoms: C_9  and  C_13
REMARK    4  A    between atoms: C_11  and  C_16
REMARK    5  A    between atoms: C_12  and  C_17
REMARK    6  A    between atoms: C_12  and  C_18
REMARK    7  A    between atoms: C_15  and  C_21
REMARK    8  A    between atoms: C_16  and  C_24
REMARK    9  A    between atoms: C_26  and  C_27
REMARK                            x       y       z     vdW  Elec       q    Type
REMARK                         _______ _______ _______ _____ _____    ______ ____
ROOT
ATOM      8  C   UNL     1      -7.631 -11.902  16.723  0.00  0.00    +0.000 C 
ATOM      9  C   UNL     1      -7.830 -11.919  18.257  0.00  0.00    +0.029 C 
ATOM     10  C   UNL     1      -6.452 -10.994  16.344  0.00  0.00    +0.012 C 
ATOM     11  C   UNL     1      -5.128 -11.392  17.029  0.00  0.00    +0.024 C 
ATOM     14  C   UNL     1      -6.529 -12.045  19.008  0.00  0.00    -0.023 C 
ATOM     15  C   UNL     1      -5.313 -11.826  18.476  0.00  0.00    -0.073 C 
ATOM     21  C   UNL     1      -4.074 -12.065  19.293  0.00  0.00    +0.039 C 
ENDROOT
BRANCH   8  12
ATOM     12  C   UNL     1      -7.440 -13.320  16.168  0.00  0.00    -0.013 C 
ATOM     17  C   UNL     1      -7.417 -13.295  14.643  0.00  0.00    +0.007 C 
ATOM     18  C   UNL     1      -8.541 -14.244  16.677  0.00  0.00    +0.007 C 
ENDBRANCH   8  12
BRANCH   9  13
ATOM     13  C   UNL     1      -8.575 -10.671  18.744  0.00  0.00    +0.092 C 
BRANCH  13   2
ATOM      2  N   UNL     1      -9.318 -10.051  17.648  0.00  0.00    -0.299 NA
ATOM      3  N   UNL     1     -11.108  -8.182  16.440  0.00  0.00    -0.297 N 
ATOM      6  N   UNL     1     -13.296  -7.560  15.912  0.00  0.00    -0.223 NA
ATOM      7  N   UNL     1     -11.410  -6.389  14.975  0.00  0.00    -0.223 NA
ATOM     19  C   UNL     1     -10.763 -10.149  17.886  0.00  0.00    +0.103 C 
ATOM     20  C   UNL     1      -8.930  -8.645  17.493  0.00  0.00    +0.103 C 
ATOM     22  C   UNL     1     -11.553  -9.554  16.719  0.00  0.00    +0.123 C 
ATOM     23  C   UNL     1      -9.659  -8.000  16.312  0.00  0.00    +0.123 C 
ATOM     25  C   UNL     1     -11.979  -7.337  15.743  0.00  0.00    +0.218 A 
ATOM     28  C   UNL     1     -14.106  -6.727  15.226  0.00  0.00    +0.116 A 
ATOM     29  C   UNL     1     -12.278  -5.592  14.318  0.00  0.00    +0.116 A 
ATOM     30  C   UNL     1     -13.649  -5.715  14.405  0.00  0.00    +0.039 A 
ENDBRANCH  13   2
ENDBRANCH   9  13
BRANCH  11  16
ATOM     16  C   UNL     1      -4.131 -10.236  16.876  0.00  0.00    +0.105 C 
BRANCH  16  24
ATOM      1  O   UNL     1      -3.271 -10.650  14.631  0.00  0.00    -0.425 OA
ATOM      4  N   UNL     1      -1.754 -10.907  16.254  0.00  0.00    -0.112 NA
ATOM      5  N   UNL     1      -1.136 -11.172  15.046  0.00  0.00    -0.113 NA
ATOM     24  C   UNL     1      -2.997 -10.607  15.963  0.00  0.00    +0.218 A 
ATOM     26  C   UNL     1      -2.059 -11.010  14.127  0.00  0.00    +0.214 A 
ATOM     27  C   UNL     1      -1.965 -11.161  12.670  0.00  0.00    +0.111 C 
ENDBRANCH  16  24
ENDBRANCH  11  16
TORSDOF 5
ENDMDL
MODEL 8
REMARK VINA RESULT:      -6.3      4.975     10.468
REMARK  Name = 45783893
REMARK  9 active torsions:
REMARK  status: ('A' for Active; 'I' for Inactive)
REMARK    1  A    between atoms: N_2  and  C_13
REMARK    2  A    between atoms: C_8  and  C_12
REMARK    3  A    between atoms: C_9  and  C_13
REMARK    4  A    between atoms: C_11  and  C_16
REMARK    5  A    between atoms: C_12  and  C_17
REMARK    6  A    between atoms: C_12  and  C_18
REMARK    7  A    between atoms: C_15  and  C_21
REMARK    8  A    between atoms: C_16  and  C_24
REMARK    9  A    between atoms: C_26  and  C_27
REMARK                            x       y       z     vdW  Elec       q    Type
REMARK                         _______ _______ _______ _____ _____    ______ ____
ROOT
ATOM      8  C   UNL     1      -5.548 -10.457  10.625  0.00  0.00    +0.000 C 
ATOM      9  C   UNL     1      -4.753 -10.086   9.351  0.00  0.00    +0.029 C 
ATOM     10  C   UNL     1      -4.648 -11.196  11.625  0.00  0.00    +0.012 C 
ATOM     11  C   UNL     1      -3.388 -10.398  12.021  0.00  0.00    +0.024 C 
ATOM     14  C   UNL     1      -3.386  -9.533   9.662  0.00  0.00    -0.023 C 
ATOM     15  C   UNL     1      -2.765  -9.651  10.850  0.00  0.00    -0.073 C 
ATOM     21  C   UNL     1      -1.436  -8.985  11.080  0.00  0.00    +0.039 C 
ENDROOT
BRANCH   8  12
ATOM     12  C   UNL     1      -6.188  -9.217  11.265  0.00  0.00    -0.013 C 
ATOM     17  C   UNL     1      -6.669  -9.536  12.677  0.00  0.00    +0.007 C 
ATOM     18  C   UNL     1      -7.338  -8.706  10.405  0.00  0.00    +0.007 C 
ENDBRANCH   8  12
BRANCH   9  13
ATOM     13  C   UNL     1      -4.609 -11.284   8.406  0.00  0.00    +0.092 C 
BRANCH  13   2
ATOM      2  N   UNL     1      -4.966 -10.909   7.038  0.00  0.00    -0.299 NA
ATOM      3  N   UNL     1      -6.618 -10.801   4.711  0.00  0.00    -0.297 N 
ATOM      6  N   UNL     1      -7.366 -11.801   2.738  0.00  0.00    -0.223 NA
ATOM      7  N   UNL     1      -7.900  -9.508   3.249  0.00  0.00    -0.223 NA
ATOM     19  C   UNL     1      -5.161 -12.107   6.211  0.00  0.00    +0.103 C 
ATOM     20  C   UNL     1      -6.183 -10.091   7.029  0.00  0.00    +0.103 C 
ATOM     22  C   UNL     1      -5.480 -11.727   4.763  0.00  0.00    +0.123 C 
ATOM     23  C   UNL     1      -6.536  -9.644   5.608  0.00  0.00    +0.123 C 
ATOM     25  C   UNL     1      -7.328 -10.698   3.509  0.00  0.00    +0.218 A 
ATOM     28  C   UNL     1      -8.059 -11.668   1.588  0.00  0.00    +0.116 A 
ATOM     29  C   UNL     1      -8.576  -9.444   2.082  0.00  0.00    +0.116 A 
ATOM     30  C   UNL     1      -8.690 -10.502   1.204  0.00  0.00    +0.039 A 
ENDBRANCH  13   2
ENDBRANCH   9  13
BRANCH  11  16
ATOM     16  C   UNL     1      -2.403 -11.348  12.714  0.00  0.00    +0.105 C 
BRANCH  16  24
ATOM      1  O   UNL     1      -3.568 -10.968  14.824  0.00  0.00    -0.425 OA
ATOM      4  N   UNL     1      -1.340 -11.025  15.006  0.00  0.00    -0.112 NA
ATOM      5  N   UNL     1      -1.866 -10.803  16.265  0.00  0.00    -0.113 NA
ATOM     24  C   UNL     1      -2.369 -11.115  14.197  0.00  0.00    +0.218 A 
ATOM     26  C   UNL     1      -3.169 -10.777  16.111  0.00  0.00    +0.214 A 
ATOM     27  C   UNL     1      -4.225 -10.575  17.110  0.00  0.00    +0.111 C 
ENDBRANCH  16  24
ENDBRANCH  11  16
TORSDOF 5
ENDMDL
MODEL 9
REMARK VINA RESULT:      -6.1     21.322     24.706
REMARK  Name = 45783893
REMARK  9 active torsions:
REMARK  status: ('A' for Active; 'I' for Inactive)
REMARK    1  A    between atoms: N_2  and  C_13
REMARK    2  A    between atoms: C_8  and  C_12
REMARK    3  A    between atoms: C_9  and  C_13
REMARK    4  A    between atoms: C_11  and  C_16
REMARK    5  A    between atoms: C_12  and  C_17
REMARK    6  A    between atoms: C_12  and  C_18
REMARK    7  A    between atoms: C_15  and  C_21
REMARK    8  A    between atoms: C_16  and  C_24
REMARK    9  A    between atoms: C_26  and  C_27
REMARK                            x       y       z     vdW  Elec       q    Type
REMARK                         _______ _______ _______ _____ _____    ______ ____
ROOT
ATOM      8  C   UNL     1      -4.224  10.517   6.220  0.00  0.00    +0.000 C 
ATOM      9  C   UNL     1      -2.859   9.801   6.091  0.00  0.00    +0.029 C 
ATOM     10  C   UNL     1      -5.178  10.060   5.108  0.00  0.00    +0.012 C 
ATOM     11  C   UNL     1      -5.399   8.533   5.080  0.00  0.00    +0.024 C 
ATOM     14  C   UNL     1      -3.001   8.329   5.801  0.00  0.00    -0.023 C 
ATOM     15  C   UNL     1      -4.129   7.742   5.360  0.00  0.00    -0.073 C 
ATOM     21  C   UNL     1      -4.188   6.250   5.185  0.00  0.00    +0.039 C 
ENDROOT
BRANCH   8  12
ATOM     12  C   UNL     1      -4.843  10.296   7.607  0.00  0.00    -0.013 C 
ATOM     17  C   UNL     1      -6.274  10.821   7.640  0.00  0.00    +0.007 C 
ATOM     18  C   UNL     1      -3.996  10.969   8.682  0.00  0.00    +0.007 C 
ENDBRANCH   8  12
BRANCH   9  13
ATOM     13  C   UNL     1      -1.982  10.446   5.012  0.00  0.00    +0.092 C 
BRANCH  13   2
ATOM      2  N   UNL     1      -1.077  11.432   5.601  0.00  0.00    -0.299 NA
ATOM      3  N   UNL     1       1.360  12.371   6.759  0.00  0.00    -0.297 N 
ATOM      6  N   UNL     1       2.710  12.630   8.647  0.00  0.00    -0.223 NA
ATOM      7  N   UNL     1       3.247  13.733   6.573  0.00  0.00    -0.223 NA
ATOM     19  C   UNL     1      -0.703  11.036   6.966  0.00  0.00    +0.103 C 
ATOM     20  C   UNL     1       0.127  11.583   4.777  0.00  0.00    +0.103 C 
ATOM     22  C   UNL     1       0.199  12.089   7.614  0.00  0.00    +0.123 C 
ATOM     23  C   UNL     1       1.058  12.654   5.353  0.00  0.00    +0.123 C 
ATOM     25  C   UNL     1       2.492  12.938   7.354  0.00  0.00    +0.218 A 
ATOM     28  C   UNL     1       3.810  13.193   9.188  0.00  0.00    +0.116 A 
ATOM     29  C   UNL     1       4.330  14.263   7.178  0.00  0.00    +0.116 A 
ATOM     30  C   UNL     1       4.665  14.027   8.496  0.00  0.00    +0.039 A 
ENDBRANCH  13   2
ENDBRANCH   9  13
BRANCH  11  16
ATOM     16  C   UNL     1      -6.053   8.156   3.745  0.00  0.00    +0.105 C 
BRANCH  16  24
ATOM      1  O   UNL     1      -7.448   6.158   3.886  0.00  0.00    -0.425 OA
ATOM      4  N   UNL     1      -8.560   8.075   4.193  0.00  0.00    -0.112 NA
ATOM      5  N   UNL     1      -9.464   7.034   4.297  0.00  0.00    -0.113 NA
ATOM     24  C   UNL     1      -7.397   7.517   3.954  0.00  0.00    +0.218 A 
ATOM     26  C   UNL     1      -8.771   5.936   4.111  0.00  0.00    +0.214 A 
ATOM     27  C   UNL     1      -9.217   4.537   4.112  0.00  0.00    +0.111 C 
ENDBRANCH  16  24
ENDBRANCH  11  16
TORSDOF 5
ENDMDL
MODEL 10
REMARK VINA RESULT:      -5.9     24.870     28.961
REMARK  Name = 45783893
REMARK  9 active torsions:
REMARK  status: ('A' for Active; 'I' for Inactive)
REMARK    1  A    between atoms: N_2  and  C_13
REMARK    2  A    between atoms: C_8  and  C_12
REMARK    3  A    between atoms: C_9  and  C_13
REMARK    4  A    between atoms: C_11  and  C_16
REMARK    5  A    between atoms: C_12  and  C_17
REMARK    6  A    between atoms: C_12  and  C_18
REMARK    7  A    between atoms: C_15  and  C_21
REMARK    8  A    between atoms: C_16  and  C_24
REMARK    9  A    between atoms: C_26  and  C_27
REMARK                            x       y       z     vdW  Elec       q    Type
REMARK                         _______ _______ _______ _____ _____    ______ ____
ROOT
ATOM      8  C   UNL     1      12.203   4.205  -1.785  0.00  0.00    +0.000 C 
ATOM      9  C   UNL     1      11.662   4.000  -0.350  0.00  0.00    +0.029 C 
ATOM     10  C   UNL     1      13.451   5.098  -1.767  0.00  0.00    +0.012 C 
ATOM     11  C   UNL     1      14.580   4.556  -0.865  0.00  0.00    +0.024 C 
ATOM     14  C   UNL     1      12.757   3.718   0.647  0.00  0.00    -0.023 C 
ATOM     15  C   UNL     1      14.065   3.948   0.432  0.00  0.00    -0.073 C 
ATOM     21  C   UNL     1      15.084   3.549   1.464  0.00  0.00    +0.039 C 
ENDROOT
BRANCH   8  12
ATOM     12  C   UNL     1      12.492   2.863  -2.470  0.00  0.00    -0.013 C 
ATOM     17  C   UNL     1      12.881   3.083  -3.928  0.00  0.00    +0.007 C 
ATOM     18  C   UNL     1      11.282   1.940  -2.368  0.00  0.00    +0.007 C 
ENDBRANCH   8  12
BRANCH   9  13
ATOM     13  C   UNL     1      10.846   5.208   0.124  0.00  0.00    +0.092 C 
BRANCH  13   2
ATOM      2  N   UNL     1      11.009   5.409   1.564  0.00  0.00    -0.299 NA
ATOM      3  N   UNL     1      10.145   5.869   4.247  0.00  0.00    -0.297 N 
ATOM      6  N   UNL     1       9.493   7.373   5.910  0.00  0.00    -0.223 NA
ATOM      7  N   UNL     1       9.935   5.061   6.428  0.00  0.00    -0.223 NA
ATOM     19  C   UNL     1      10.492   6.725   1.961  0.00  0.00    +0.103 C 
ATOM     20  C   UNL     1      10.319   4.353   2.313  0.00  0.00    +0.103 C 
ATOM     22  C   UNL     1      10.709   6.970   3.456  0.00  0.00    +0.123 C 
ATOM     23  C   UNL     1      10.529   4.520   3.820  0.00  0.00    +0.123 C 
ATOM     25  C   UNL     1       9.844   6.112   5.591  0.00  0.00    +0.218 A 
ATOM     28  C   UNL     1       9.209   7.572   7.214  0.00  0.00    +0.116 A 
ATOM     29  C   UNL     1       9.637   5.331   7.716  0.00  0.00    +0.116 A 
ATOM     30  C   UNL     1       9.265   6.579   8.172  0.00  0.00    +0.039 A 
ENDBRANCH  13   2
ENDBRANCH   9  13
BRANCH  11  16
ATOM     16  C   UNL     1      15.603   5.674  -0.635  0.00  0.00    +0.105 C 
BRANCH  16  24
ATOM      1  O   UNL     1      17.777   6.387  -1.486  0.00  0.00    -0.425 OA
ATOM      4  N   UNL     1      17.399   4.189  -1.664  0.00  0.00    -0.112 NA
ATOM      5  N   UNL     1      18.654   4.451  -2.181  0.00  0.00    -0.113 NA
ATOM     24  C   UNL     1      16.925   5.347  -1.270  0.00  0.00    +0.218 A 
ATOM     26  C   UNL     1      18.832   5.745  -2.057  0.00  0.00    +0.214 A 
ATOM     27  C   UNL     1      19.983   6.572  -2.439  0.00  0.00    +0.111 C 
ENDBRANCH  16  24
ENDBRANCH  11  16
TORSDOF 5
ENDMDL
