MODEL 1
REMARK VINA RESULT:      -6.9      0.000      0.000
REMARK  Name = 28990909
REMARK  8 active torsions:
REMARK  status: ('A' for Active; 'I' for Inactive)
REMARK    1  A    between atoms: S_1  and  N_7
REMARK    2  A    between atoms: S_1  and  C_28
REMARK    3  A    between atoms: N_5  and  C_16
REMARK    4  A    between atoms: N_7  and  C_20
REMARK    5  A    between atoms: N_8  and  C_27
REMARK    6  A    between atoms: C_16  and  C_19
REMARK    7  A    between atoms: C_28  and  C_31
REMARK    8  A    between atoms: C_31  and  C_32
REMARK                            x       y       z     vdW  Elec       q    Type
REMARK                         _______ _______ _______ _____ _____    ______ ____
ROOT
ATOM      2  O   UNL     1      14.890  10.410  22.813  0.00  0.00    -0.266 OA
ATOM      5  N   UNL     1      12.287   8.299  19.085  0.00  0.00    -0.297 NA
ATOM      6  N   UNL     1      12.981   9.316  22.029  0.00  0.00    -0.310 N 
ATOM      9  C   UNL     1      13.034   6.944  21.058  0.00  0.00    +0.024 C 
ATOM     10  C   UNL     1      10.913   8.164  21.168  0.00  0.00    +0.050 C 
ATOM     11  C   UNL     1      11.601   6.863  21.570  0.00  0.00    +0.017 C 
ATOM     12  C   UNL     1      13.039   7.117  19.524  0.00  0.00    +0.090 C 
ATOM     13  C   UNL     1      10.921   8.299  19.629  0.00  0.00    +0.094 C 
ATOM     14  C   UNL     1      13.754   8.091  21.783  0.00  0.00    +0.130 C 
ATOM     15  C   UNL     1      11.600   9.357  21.808  0.00  0.00    +0.026 A 
ATOM     17  C   UNL     1      10.895  10.449  22.142  0.00  0.00    +0.024 A 
ATOM     18  C   UNL     1      13.680  10.405  22.586  0.00  0.00    +0.274 A 
ATOM     20  C   UNL     1      12.861  11.613  22.924  0.00  0.00    +0.112 A 
ATOM     21  C   UNL     1      11.541  11.600  22.709  0.00  0.00    +0.031 A 
ENDROOT
BRANCH  20   7
ATOM      7  N   UNL     1      13.502  12.694  23.452  0.00  0.00    -0.215 N 
ATOM     33  H   UNL     1      13.235  13.583  23.007  0.00  0.00    +0.173 HD
BRANCH   7   1
ATOM      1  S   UNL     1      13.532  12.771  25.156  0.00  0.00    +0.043 S 
ATOM      3  O   UNL     1      12.806  11.643  25.708  0.00  0.00    -0.155 OA
ATOM      4  O   UNL     1      14.877  13.086  25.599  0.00  0.00    -0.155 OA
BRANCH   1  28
ATOM     28  C   UNL     1      12.532  14.216  25.410  0.00  0.00    +0.188 C 
BRANCH  28  31
ATOM     31  C   UNL     1      11.079  13.847  25.656  0.00  0.00    +0.021 C 
ATOM     32  C   UNL     1      10.165  14.449  24.602  0.00  0.00    +0.005 C 
ENDBRANCH  28  31
ENDBRANCH   1  28
ENDBRANCH   7   1
ENDBRANCH  20   7
BRANCH   5  16
ATOM     16  C   UNL     1      12.270   8.397  17.627  0.00  0.00    +0.121 C 
BRANCH  16  19
ATOM      8  N   UNL     1      14.665  10.555  15.853  0.00  0.00    -0.349 N 
ATOM     19  C   UNL     1      13.217   9.455  17.126  0.00  0.00    -0.008 A 
ATOM     22  C   UNL     1      13.547  10.675  17.780  0.00  0.00    +0.004 A 
ATOM     23  C   UNL     1      13.920   9.411  15.944  0.00  0.00    +0.091 A 
ATOM     24  C   UNL     1      14.457  11.346  16.960  0.00  0.00    +0.049 A 
ATOM     25  C   UNL     1      13.158  11.274  18.995  0.00  0.00    +0.010 A 
ATOM     26  C   UNL     1      14.999  12.591  17.297  0.00  0.00    +0.026 A 
ATOM     27  C   UNL     1      15.542  10.872  14.746  0.00  0.00    +0.149 C 
ATOM     29  C   UNL     1      13.692  12.520  19.344  0.00  0.00    +0.001 A 
ATOM     30  C   UNL     1      14.599  13.167  18.506  0.00  0.00    +0.002 A 
ENDBRANCH  16  19
ENDBRANCH   5  16
TORSDOF 6
ENDMDL
MODEL 2
REMARK VINA RESULT:      -6.7     28.464     30.057
REMARK  Name = 28990909
REMARK  8 active torsions:
REMARK  status: ('A' for Active; 'I' for Inactive)
REMARK    1  A    between atoms: S_1  and  N_7
REMARK    2  A    between atoms: S_1  and  C_28
REMARK    3  A    between atoms: N_5  and  C_16
REMARK    4  A    between atoms: N_7  and  C_20
REMARK    5  A    between atoms: N_8  and  C_27
REMARK    6  A    between atoms: C_16  and  C_19
REMARK    7  A    between atoms: C_28  and  C_31
REMARK    8  A    between atoms: C_31  and  C_32
REMARK                            x       y       z     vdW  Elec       q    Type
REMARK                         _______ _______ _______ _____ _____    ______ ____
ROOT
ATOM      2  O   UNL     1      -7.791 -10.663  10.672  0.00  0.00    -0.266 OA
ATOM      5  N   UNL     1      -3.762 -11.014  13.635  0.00  0.00    -0.297 NA
ATOM      6  N   UNL     1      -5.481 -10.880  10.949  0.00  0.00    -0.310 N 
ATOM      9  C   UNL     1      -4.402 -12.896  12.106  0.00  0.00    +0.024 C 
ATOM     10  C   UNL     1      -2.990 -11.083  11.258  0.00  0.00    +0.050 C 
ATOM     11  C   UNL     1      -3.215 -12.591  11.201  0.00  0.00    +0.017 C 
ATOM     12  C   UNL     1      -4.097 -12.440  13.549  0.00  0.00    +0.090 C 
ATOM     13  C   UNL     1      -2.672 -10.662  12.711  0.00  0.00    +0.094 C 
ATOM     14  C   UNL     1      -5.653 -12.220  11.527  0.00  0.00    +0.130 C 
ATOM     15  C   UNL     1      -4.208 -10.337  10.744  0.00  0.00    +0.026 A 
ATOM     17  C   UNL     1      -4.069  -9.159  10.116  0.00  0.00    +0.024 A 
ATOM     18  C   UNL     1      -6.651 -10.217  10.528  0.00  0.00    +0.274 A 
ATOM     20  C   UNL     1      -6.456  -8.895   9.852  0.00  0.00    +0.112 A 
ATOM     21  C   UNL     1      -5.218  -8.424   9.664  0.00  0.00    +0.031 A 
ENDROOT
BRANCH  20   7
ATOM      7  N   UNL     1      -7.563  -8.216   9.441  0.00  0.00    -0.215 N 
ATOM     33  H   UNL     1      -7.506  -7.203   9.614  0.00  0.00    +0.173 HD
BRANCH   7   1
ATOM      1  S   UNL     1      -8.129  -8.606   7.879  0.00  0.00    +0.043 S 
ATOM      3  O   UNL     1      -7.096  -9.316   7.150  0.00  0.00    -0.155 OA
ATOM      4  O   UNL     1      -9.477  -9.133   7.974  0.00  0.00    -0.155 OA
BRANCH   1  28
ATOM     28  C   UNL     1      -8.239  -6.976   7.183  0.00  0.00    +0.188 C 
BRANCH  28  31
ATOM     31  C   UNL     1      -8.300  -5.914   8.268  0.00  0.00    +0.021 C 
ATOM     32  C   UNL     1      -9.709  -5.369   8.434  0.00  0.00    +0.005 C 
ENDBRANCH  28  31
ENDBRANCH   1  28
ENDBRANCH   7   1
ENDBRANCH  20   7
BRANCH   5  16
ATOM     16  C   UNL     1      -3.429 -10.635  15.005  0.00  0.00    +0.121 C 
BRANCH  16  19
ATOM      8  N   UNL     1      -6.698  -9.830  16.491  0.00  0.00    -0.349 N 
ATOM     19  C   UNL     1      -4.661 -10.435  15.847  0.00  0.00    -0.008 A 
ATOM     22  C   UNL     1      -4.844 -10.853  17.195  0.00  0.00    +0.004 A 
ATOM     23  C   UNL     1      -5.818  -9.809  15.442  0.00  0.00    +0.091 A 
ATOM     24  C   UNL     1      -6.130 -10.462  17.574  0.00  0.00    +0.049 A 
ATOM     25  C   UNL     1      -4.036 -11.529  18.131  0.00  0.00    +0.010 A 
ATOM     26  C   UNL     1      -6.650 -10.713  18.848  0.00  0.00    +0.026 A 
ATOM     27  C   UNL     1      -8.029  -9.264  16.450  0.00  0.00    +0.149 C 
ATOM     29  C   UNL     1      -4.543 -11.788  19.409  0.00  0.00    +0.001 A 
ATOM     30  C   UNL     1      -5.831 -11.386  19.761  0.00  0.00    +0.002 A 
ENDBRANCH  16  19
ENDBRANCH   5  16
TORSDOF 6
ENDMDL
MODEL 3
REMARK VINA RESULT:      -6.7      3.149      4.643
REMARK  Name = 28990909
REMARK  8 active torsions:
REMARK  status: ('A' for Active; 'I' for Inactive)
REMARK    1  A    between atoms: S_1  and  N_7
REMARK    2  A    between atoms: S_1  and  C_28
REMARK    3  A    between atoms: N_5  and  C_16
REMARK    4  A    between atoms: N_7  and  C_20
REMARK    5  A    between atoms: N_8  and  C_27
REMARK    6  A    between atoms: C_16  and  C_19
REMARK    7  A    between atoms: C_28  and  C_31
REMARK    8  A    between atoms: C_31  and  C_32
REMARK                            x       y       z     vdW  Elec       q    Type
REMARK                         _______ _______ _______ _____ _____    ______ ____
ROOT
ATOM      2  O   UNL     1      10.402   9.899  22.403  0.00  0.00    -0.266 OA
ATOM      5  N   UNL     1      14.069   7.622  19.853  0.00  0.00    -0.297 NA
ATOM      6  N   UNL     1      11.765   9.729  20.513  0.00  0.00    -0.310 N 
ATOM      9  C   UNL     1      11.731   7.698  18.950  0.00  0.00    +0.024 C 
ATOM     10  C   UNL     1      13.260   9.557  18.494  0.00  0.00    +0.050 C 
ATOM     11  C   UNL     1      12.155   8.700  17.883  0.00  0.00    +0.017 C 
ATOM     12  C   UNL     1      12.936   6.827  19.365  0.00  0.00    +0.090 C 
ATOM     13  C   UNL     1      14.455   8.658  18.883  0.00  0.00    +0.094 C 
ATOM     14  C   UNL     1      11.122   8.464  20.133  0.00  0.00    +0.130 C 
ATOM     15  C   UNL     1      12.747  10.313  19.706  0.00  0.00    +0.026 A 
ATOM     17  C   UNL     1      13.244  11.521  20.014  0.00  0.00    +0.024 A 
ATOM     18  C   UNL     1      11.277  10.366  21.671  0.00  0.00    +0.274 A 
ATOM     20  C   UNL     1      11.872  11.701  21.993  0.00  0.00    +0.112 A 
ATOM     21  C   UNL     1      12.798  12.227  21.183  0.00  0.00    +0.031 A 
ENDROOT
BRANCH  20   7
ATOM      7  N   UNL     1      11.435  12.344  23.113  0.00  0.00    -0.215 N 
ATOM     33  H   UNL     1      10.409  12.381  23.186  0.00  0.00    +0.173 HD
BRANCH   7   1
ATOM      1  S   UNL     1      12.203  11.892  24.568  0.00  0.00    +0.043 S 
ATOM      3  O   UNL     1      11.300  11.083  25.364  0.00  0.00    -0.155 OA
ATOM      4  O   UNL     1      13.553  11.447  24.281  0.00  0.00    -0.155 OA
BRANCH   1  28
ATOM     28  C   UNL     1      12.317  13.481  25.354  0.00  0.00    +0.188 C 
BRANCH  28  31
ATOM     31  C   UNL     1      10.950  13.985  25.784  0.00  0.00    +0.021 C 
ATOM     32  C   UNL     1      11.065  15.188  26.706  0.00  0.00    +0.005 C 
ENDBRANCH  28  31
ENDBRANCH   1  28
ENDBRANCH   7   1
ENDBRANCH  20   7
BRANCH   5  16
ATOM     16  C   UNL     1      15.206   6.766  20.184  0.00  0.00    +0.121 C 
BRANCH  16  19
ATOM      8  N   UNL     1      17.582   9.199  21.588  0.00  0.00    -0.349 N 
ATOM     19  C   UNL     1      16.375   7.562  20.699  0.00  0.00    -0.008 A 
ATOM     22  C   UNL     1      17.738   7.153  20.714  0.00  0.00    +0.004 A 
ATOM     23  C   UNL     1      16.312   8.824  21.244  0.00  0.00    +0.091 A 
ATOM     24  C   UNL     1      18.474   8.199  21.276  0.00  0.00    +0.049 A 
ATOM     25  C   UNL     1      18.419   5.991  20.299  0.00  0.00    +0.010 A 
ATOM     26  C   UNL     1      19.861   8.138  21.446  0.00  0.00    +0.026 A 
ATOM     27  C   UNL     1      17.922  10.470  22.191  0.00  0.00    +0.149 C 
ATOM     29  C   UNL     1      19.806   5.916  20.464  0.00  0.00    +0.001 A 
ATOM     30  C   UNL     1      20.515   6.975  21.029  0.00  0.00    +0.002 A 
ENDBRANCH  16  19
ENDBRANCH   5  16
TORSDOF 6
ENDMDL
MODEL 4
REMARK VINA RESULT:      -6.7     13.915     17.625
REMARK  Name = 28990909
REMARK  8 active torsions:
REMARK  status: ('A' for Active; 'I' for Inactive)
REMARK    1  A    between atoms: S_1  and  N_7
REMARK    2  A    between atoms: S_1  and  C_28
REMARK    3  A    between atoms: N_5  and  C_16
REMARK    4  A    between atoms: N_7  and  C_20
REMARK    5  A    between atoms: N_8  and  C_27
REMARK    6  A    between atoms: C_16  and  C_19
REMARK    7  A    between atoms: C_28  and  C_31
REMARK    8  A    between atoms: C_31  and  C_32
REMARK                            x       y       z     vdW  Elec       q    Type
REMARK                         _______ _______ _______ _____ _____    ______ ____
ROOT
ATOM      2  O   UNL     1      10.204   4.128   5.355  0.00  0.00    -0.266 OA
ATOM      5  N   UNL     1      12.916   6.273   1.724  0.00  0.00    -0.297 NA
ATOM      6  N   UNL     1      10.354   5.144   3.257  0.00  0.00    -0.310 N 
ATOM      9  C   UNL     1      11.679   4.130   1.311  0.00  0.00    +0.024 C 
ATOM     10  C   UNL     1      10.520   6.268   1.009  0.00  0.00    +0.050 C 
ATOM     11  C   UNL     1      10.667   4.860   0.437  0.00  0.00    +0.017 C 
ATOM     12  C   UNL     1      13.031   4.876   1.288  0.00  0.00    +0.090 C 
ATOM     13  C   UNL     1      11.885   6.990   0.958  0.00  0.00    +0.094 C 
ATOM     14  C   UNL     1      11.104   3.996   2.728  0.00  0.00    +0.130 C 
ATOM     15  C   UNL     1      10.000   6.218   2.434  0.00  0.00    +0.026 A 
ATOM     17  C   UNL     1       9.222   7.205   2.908  0.00  0.00    +0.024 A 
ATOM     18  C   UNL     1       9.931   5.061   4.598  0.00  0.00    +0.274 A 
ATOM     20  C   UNL     1       9.085   6.191   5.096  0.00  0.00    +0.112 A 
ATOM     21  C   UNL     1       8.759   7.190   4.267  0.00  0.00    +0.031 A 
ENDROOT
BRANCH  20   7
ATOM      7  N   UNL     1       8.667   6.155   6.393  0.00  0.00    -0.215 N 
ATOM     33  H   UNL     1       8.487   5.201   6.736  0.00  0.00    +0.173 HD
BRANCH   7   1
ATOM      1  S   UNL     1       9.566   7.110   7.484  0.00  0.00    +0.043 S 
ATOM      3  O   UNL     1      10.589   7.842   6.762  0.00  0.00    -0.155 OA
ATOM      4  O   UNL     1       8.659   7.786   8.391  0.00  0.00    -0.155 OA
BRANCH   1  28
ATOM     28  C   UNL     1      10.385   5.828   8.401  0.00  0.00    +0.188 C 
BRANCH  28  31
ATOM     31  C   UNL     1       9.449   4.665   8.682  0.00  0.00    +0.021 C 
ATOM     32  C   UNL     1       9.037   4.622  10.144  0.00  0.00    +0.005 C 
ENDBRANCH  28  31
ENDBRANCH   1  28
ENDBRANCH   7   1
ENDBRANCH  20   7
BRANCH   5  16
ATOM     16  C   UNL     1      14.204   6.956   1.638  0.00  0.00    +0.121 C 
BRANCH  16  19
ATOM      8  N   UNL     1      14.800   7.789   5.172  0.00  0.00    -0.349 N 
ATOM     19  C   UNL     1      14.710   7.369   2.994  0.00  0.00    -0.008 A 
ATOM     22  C   UNL     1      16.010   7.861   3.299  0.00  0.00    +0.004 A 
ATOM     23  C   UNL     1      13.990   7.336   4.166  0.00  0.00    +0.091 A 
ATOM     24  C   UNL     1      16.040   8.117   4.672  0.00  0.00    +0.049 A 
ATOM     25  C   UNL     1      17.168   8.115   2.536  0.00  0.00    +0.010 A 
ATOM     26  C   UNL     1      17.175   8.615   5.322  0.00  0.00    +0.026 A 
ATOM     27  C   UNL     1      14.396   7.903   6.557  0.00  0.00    +0.149 C 
ATOM     29  C   UNL     1      18.310   8.613   3.173  0.00  0.00    +0.001 A 
ATOM     30  C   UNL     1      18.311   8.859   4.546  0.00  0.00    +0.002 A 
ENDBRANCH  16  19
ENDBRANCH   5  16
TORSDOF 6
ENDMDL
MODEL 5
REMARK VINA RESULT:      -6.3     16.159     19.556
REMARK  Name = 28990909
REMARK  8 active torsions:
REMARK  status: ('A' for Active; 'I' for Inactive)
REMARK    1  A    between atoms: S_1  and  N_7
REMARK    2  A    between atoms: S_1  and  C_28
REMARK    3  A    between atoms: N_5  and  C_16
REMARK    4  A    between atoms: N_7  and  C_20
REMARK    5  A    between atoms: N_8  and  C_27
REMARK    6  A    between atoms: C_16  and  C_19
REMARK    7  A    between atoms: C_28  and  C_31
REMARK    8  A    between atoms: C_31  and  C_32
REMARK                            x       y       z     vdW  Elec       q    Type
REMARK                         _______ _______ _______ _____ _____    ______ ____
ROOT
ATOM      2  O   UNL     1      10.400   4.295   2.563  0.00  0.00    -0.266 OA
ATOM      5  N   UNL     1       9.118   8.021   5.662  0.00  0.00    -0.297 NA
ATOM      6  N   UNL     1      10.854   5.656   4.406  0.00  0.00    -0.310 N 
ATOM      9  C   UNL     1       9.396   5.679   6.514  0.00  0.00    +0.024 C 
ATOM     10  C   UNL     1      11.350   7.149   6.373  0.00  0.00    +0.050 C 
ATOM     11  C   UNL     1      10.687   6.069   7.223  0.00  0.00    +0.017 C 
ATOM     12  C   UNL     1       8.476   6.911   6.376  0.00  0.00    +0.090 C 
ATOM     13  C   UNL     1      10.411   8.372   6.268  0.00  0.00    +0.094 C 
ATOM     14  C   UNL     1       9.746   5.050   5.158  0.00  0.00    +0.130 C 
ATOM     15  C   UNL     1      11.685   6.617   4.991  0.00  0.00    +0.026 A 
ATOM     17  C   UNL     1      12.757   7.078   4.327  0.00  0.00    +0.024 A 
ATOM     18  C   UNL     1      11.093   5.152   3.112  0.00  0.00    +0.274 A 
ATOM     20  C   UNL     1      12.285   5.707   2.395  0.00  0.00    +0.112 A 
ATOM     21  C   UNL     1      13.059   6.614   3.002  0.00  0.00    +0.031 A 
ENDROOT
BRANCH  20   7
ATOM      7  N   UNL     1      12.543   5.255   1.136  0.00  0.00    -0.215 N 
ATOM     33  H   UNL     1      12.667   6.012   0.449  0.00  0.00    +0.173 HD
BRANCH   7   1
ATOM      1  S   UNL     1      13.729   4.035   1.020  0.00  0.00    +0.043 S 
ATOM      3  O   UNL     1      15.031   4.589   1.338  0.00  0.00    -0.155 OA
ATOM      4  O   UNL     1      13.247   2.832   1.673  0.00  0.00    -0.155 OA
BRANCH   1  28
ATOM     28  C   UNL     1      13.693   3.745  -0.731  0.00  0.00    +0.188 C 
BRANCH  28  31
ATOM     31  C   UNL     1      12.270   3.580  -1.236  0.00  0.00    +0.021 C 
ATOM     32  C   UNL     1      12.130   2.348  -2.114  0.00  0.00    +0.005 C 
ENDBRANCH  28  31
ENDBRANCH   1  28
ENDBRANCH   7   1
ENDBRANCH  20   7
BRANCH   5  16
ATOM     16  C   UNL     1       8.236   9.184   5.600  0.00  0.00    +0.121 C 
BRANCH  16  19
ATOM      8  N   UNL     1       6.244   9.882   2.586  0.00  0.00    -0.349 N 
ATOM     19  C   UNL     1       7.650   9.370   4.226  0.00  0.00    -0.008 A 
ATOM     22  C   UNL     1       8.279   9.062   2.987  0.00  0.00    +0.004 A 
ATOM     23  C   UNL     1       6.400   9.873   3.946  0.00  0.00    +0.091 A 
ATOM     24  C   UNL     1       7.376   9.392   1.975  0.00  0.00    +0.049 A 
ATOM     25  C   UNL     1       9.535   8.530   2.630  0.00  0.00    +0.010 A 
ATOM     26  C   UNL     1       7.667   9.217   0.618  0.00  0.00    +0.026 A 
ATOM     27  C   UNL     1       5.053  10.342   1.905  0.00  0.00    +0.149 C 
ATOM     29  C   UNL     1       9.840   8.351   1.276  0.00  0.00    +0.001 A 
ATOM     30  C   UNL     1       8.918   8.690   0.286  0.00  0.00    +0.002 A 
ENDBRANCH  16  19
ENDBRANCH   5  16
TORSDOF 6
ENDMDL
MODEL 6
REMARK VINA RESULT:      -6.3     27.421     29.756
REMARK  Name = 28990909
REMARK  8 active torsions:
REMARK  status: ('A' for Active; 'I' for Inactive)
REMARK    1  A    between atoms: S_1  and  N_7
REMARK    2  A    between atoms: S_1  and  C_28
REMARK    3  A    between atoms: N_5  and  C_16
REMARK    4  A    between atoms: N_7  and  C_20
REMARK    5  A    between atoms: N_8  and  C_27
REMARK    6  A    between atoms: C_16  and  C_19
REMARK    7  A    between atoms: C_28  and  C_31
REMARK    8  A    between atoms: C_31  and  C_32
REMARK                            x       y       z     vdW  Elec       q    Type
REMARK                         _______ _______ _______ _____ _____    ______ ____
ROOT
ATOM      2  O   UNL     1      -4.495 -13.183  13.617  0.00  0.00    -0.266 OA
ATOM      5  N   UNL     1      -6.392 -10.633  17.494  0.00  0.00    -0.297 NA
ATOM      6  N   UNL     1      -4.298 -12.326  15.781  0.00  0.00    -0.310 N 
ATOM      9  C   UNL     1      -5.812 -13.063  17.714  0.00  0.00    +0.024 C 
ATOM     10  C   UNL     1      -4.083 -11.371  18.102  0.00  0.00    +0.050 C 
ATOM     11  C   UNL     1      -4.612 -12.717  18.588  0.00  0.00    +0.017 C 
ATOM     12  C   UNL     1      -6.892 -11.968  17.843  0.00  0.00    +0.090 C 
ATOM     13  C   UNL     1      -5.182 -10.296  18.259  0.00  0.00    +0.094 C 
ATOM     14  C   UNL     1      -5.332 -13.250  16.267  0.00  0.00    +0.130 C 
ATOM     15  C   UNL     1      -3.631 -11.461  16.655  0.00  0.00    +0.026 A 
ATOM     17  C   UNL     1      -2.615 -10.703  16.212  0.00  0.00    +0.024 A 
ATOM     18  C   UNL     1      -3.948 -12.426  14.420  0.00  0.00    +0.274 A 
ATOM     20  C   UNL     1      -2.825 -11.548  13.959  0.00  0.00    +0.112 A 
ATOM     21  C   UNL     1      -2.207 -10.748  14.836  0.00  0.00    +0.031 A 
ENDROOT
BRANCH  20   7
ATOM      7  N   UNL     1      -2.465 -11.605  12.646  0.00  0.00    -0.215 N 
ATOM     33  H   UNL     1      -2.494 -12.558  12.258  0.00  0.00    +0.173 HD
BRANCH   7   1
ATOM      1  S   UNL     1      -3.188 -10.438  11.633  0.00  0.00    +0.043 S 
ATOM      3  O   UNL     1      -4.386  -9.920  12.264  0.00  0.00    -0.155 OA
ATOM      4  O   UNL     1      -2.164  -9.546  11.121  0.00  0.00    -0.155 OA
BRANCH   1  28
ATOM     28  C   UNL     1      -3.708 -11.482  10.294  0.00  0.00    +0.188 C 
BRANCH  28  31
ATOM     31  C   UNL     1      -4.897 -10.888   9.559  0.00  0.00    +0.021 C 
ATOM     32  C   UNL     1      -4.482  -9.717   8.683  0.00  0.00    +0.005 C 
ENDBRANCH  28  31
ENDBRANCH   1  28
ENDBRANCH   7   1
ENDBRANCH  20   7
BRANCH   5  16
ATOM     16  C   UNL     1      -7.428  -9.620  17.680  0.00  0.00    +0.121 C 
BRANCH  16  19
ATOM      8  N   UNL     1      -8.970  -9.575  14.340  0.00  0.00    -0.349 N 
ATOM     19  C   UNL     1      -8.245  -9.418  16.432  0.00  0.00    -0.008 A 
ATOM     22  C   UNL     1      -9.389  -8.583  16.293  0.00  0.00    +0.004 A 
ATOM     23  C   UNL     1      -8.013 -10.014  15.213  0.00  0.00    +0.091 A 
ATOM     24  C   UNL     1      -9.824  -8.700  14.972  0.00  0.00    +0.049 A 
ATOM     25  C   UNL     1     -10.097  -7.736  17.169  0.00  0.00    +0.010 A 
ATOM     26  C   UNL     1     -10.937  -8.009  14.480  0.00  0.00    +0.026 A 
ATOM     27  C   UNL     1      -9.057  -9.980  12.953  0.00  0.00    +0.149 C 
ATOM     29  C   UNL     1     -11.213  -7.039  16.691  0.00  0.00    +0.001 A 
ATOM     30  C   UNL     1     -11.625  -7.175  15.367  0.00  0.00    +0.002 A 
ENDBRANCH  16  19
ENDBRANCH   5  16
TORSDOF 6
ENDMDL
MODEL 7
REMARK VINA RESULT:      -6.3     27.690     29.921
REMARK  Name = 28990909
REMARK  8 active torsions:
REMARK  status: ('A' for Active; 'I' for Inactive)
REMARK    1  A    between atoms: S_1  and  N_7
REMARK    2  A    between atoms: S_1  and  C_28
REMARK    3  A    between atoms: N_5  and  C_16
REMARK    4  A    between atoms: N_7  and  C_20
REMARK    5  A    between atoms: N_8  and  C_27
REMARK    6  A    between atoms: C_16  and  C_19
REMARK    7  A    between atoms: C_28  and  C_31
REMARK    8  A    between atoms: C_31  and  C_32
REMARK                            x       y       z     vdW  Elec       q    Type
REMARK                         _______ _______ _______ _____ _____    ______ ____
ROOT
ATOM      2  O   UNL     1      -6.132 -12.237  10.731  0.00  0.00    -0.266 OA
ATOM      5  N   UNL     1      -3.310 -11.043  14.699  0.00  0.00    -0.297 NA
ATOM      6  N   UNL     1      -4.044 -11.827  11.693  0.00  0.00    -0.310 N 
ATOM      9  C   UNL     1      -3.069 -13.271  13.573  0.00  0.00    +0.024 C 
ATOM     10  C   UNL     1      -1.799 -11.352  12.732  0.00  0.00    +0.050 C 
ATOM     11  C   UNL     1      -1.723 -12.854  12.993  0.00  0.00    +0.017 C 
ATOM     12  C   UNL     1      -3.342 -12.499  14.882  0.00  0.00    +0.090 C 
ATOM     13  C   UNL     1      -2.057 -10.609  14.062  0.00  0.00    +0.094 C 
ATOM     14  C   UNL     1      -4.157 -13.040  12.515  0.00  0.00    +0.130 C 
ATOM     15  C   UNL     1      -2.891 -11.035  11.726  0.00  0.00    +0.026 A 
ATOM     17  C   UNL     1      -2.762  -9.993  10.889  0.00  0.00    +0.024 A 
ATOM     18  C   UNL     1      -5.106 -11.560  10.807  0.00  0.00    +0.274 A 
ATOM     20  C   UNL     1      -4.935 -10.376   9.906  0.00  0.00    +0.112 A 
ATOM     21  C   UNL     1      -3.808  -9.658   9.963  0.00  0.00    +0.031 A 
ENDROOT
BRANCH  20   7
ATOM      7  N   UNL     1      -5.946 -10.076   9.043  0.00  0.00    -0.215 N 
ATOM     33  H   UNL     1      -6.465 -10.906   8.720  0.00  0.00    +0.173 HD
BRANCH   7   1
ATOM      1  S   UNL     1      -6.958  -8.786   9.515  0.00  0.00    +0.043 S 
ATOM      3  O   UNL     1      -7.513  -9.057  10.827  0.00  0.00    -0.155 OA
ATOM      4  O   UNL     1      -6.298  -7.527   9.224  0.00  0.00    -0.155 OA
BRANCH   1  28
ATOM     28  C   UNL     1      -8.271  -8.987   8.336  0.00  0.00    +0.188 C 
BRANCH  28  31
ATOM     31  C   UNL     1      -7.728  -9.233   6.939  0.00  0.00    +0.021 C 
ATOM     32  C   UNL     1      -7.864  -7.999   6.063  0.00  0.00    +0.005 C 
ENDBRANCH  28  31
ENDBRANCH   1  28
ENDBRANCH   7   1
ENDBRANCH  20   7
BRANCH   5  16
ATOM     16  C   UNL     1      -3.520 -10.351  15.968  0.00  0.00    +0.121 C 
BRANCH  16  19
ATOM      8  N   UNL     1      -7.165  -9.893  16.177  0.00  0.00    -0.349 N 
ATOM     19  C   UNL     1      -4.980 -10.260  16.322  0.00  0.00    -0.008 A 
ATOM     22  C   UNL     1      -5.572 -10.600  17.570  0.00  0.00    +0.004 A 
ATOM     23  C   UNL     1      -5.985  -9.829  15.486  0.00  0.00    +0.091 A 
ATOM     24  C   UNL     1      -6.943 -10.361  17.453  0.00  0.00    +0.049 A 
ATOM     25  C   UNL     1      -5.071 -11.089  18.793  0.00  0.00    +0.010 A 
ATOM     26  C   UNL     1      -7.841 -10.588  18.502  0.00  0.00    +0.026 A 
ATOM     27  C   UNL     1      -8.452  -9.518  15.632  0.00  0.00    +0.149 C 
ATOM     29  C   UNL     1      -5.958 -11.322  19.851  0.00  0.00    +0.001 A 
ATOM     30  C   UNL     1      -7.322 -11.074  19.705  0.00  0.00    +0.002 A 
ENDBRANCH  16  19
ENDBRANCH   5  16
TORSDOF 6
ENDMDL
MODEL 8
REMARK VINA RESULT:      -6.1      3.018      4.137
REMARK  Name = 28990909
REMARK  8 active torsions:
REMARK  status: ('A' for Active; 'I' for Inactive)
REMARK    1  A    between atoms: S_1  and  N_7
REMARK    2  A    between atoms: S_1  and  C_28
REMARK    3  A    between atoms: N_5  and  C_16
REMARK    4  A    between atoms: N_7  and  C_20
REMARK    5  A    between atoms: N_8  and  C_27
REMARK    6  A    between atoms: C_16  and  C_19
REMARK    7  A    between atoms: C_28  and  C_31
REMARK    8  A    between atoms: C_31  and  C_32
REMARK                            x       y       z     vdW  Elec       q    Type
REMARK                         _______ _______ _______ _____ _____    ______ ____
ROOT
ATOM      2  O   UNL     1      10.452   9.403  22.264  0.00  0.00    -0.266 OA
ATOM      5  N   UNL     1      14.948   7.879  20.655  0.00  0.00    -0.297 NA
ATOM      6  N   UNL     1      12.088   9.292  20.600  0.00  0.00    -0.310 N 
ATOM      9  C   UNL     1      12.847   7.086  19.539  0.00  0.00    +0.024 C 
ATOM     10  C   UNL     1      13.870   9.194  18.823  0.00  0.00    +0.050 C 
ATOM     11  C   UNL     1      13.146   7.948  18.319  0.00  0.00    +0.017 C 
ATOM     12  C   UNL     1      14.162   6.706  20.253  0.00  0.00    +0.090 C 
ATOM     13  C   UNL     1      15.187   8.780  19.518  0.00  0.00    +0.094 C 
ATOM     14  C   UNL     1      11.877   7.845  20.456  0.00  0.00    +0.130 C 
ATOM     15  C   UNL     1      12.989   9.978  19.780  0.00  0.00    +0.026 A 
ATOM     17  C   UNL     1      13.088  11.315  19.853  0.00  0.00    +0.024 A 
ATOM     18  C   UNL     1      11.271   9.961  21.533  0.00  0.00    +0.274 A 
ATOM     20  C   UNL     1      11.426  11.449  21.600  0.00  0.00    +0.112 A 
ATOM     21  C   UNL     1      12.290  12.063  20.784  0.00  0.00    +0.031 A 
ENDROOT
BRANCH  20   7
ATOM      7  N   UNL     1      10.663  12.133  22.499  0.00  0.00    -0.215 N 
ATOM     33  H   UNL     1       9.683  11.817  22.523  0.00  0.00    +0.173 HD
BRANCH   7   1
ATOM      1  S   UNL     1      11.349  12.330  24.049  0.00  0.00    +0.043 S 
ATOM      3  O   UNL     1      10.328  12.143  25.062  0.00  0.00    -0.155 OA
ATOM      4  O   UNL     1      12.608  11.613  24.111  0.00  0.00    -0.155 OA
BRANCH   1  28
ATOM     28  C   UNL     1      11.723  14.065  23.993  0.00  0.00    +0.188 C 
BRANCH  28  31
ATOM     31  C   UNL     1      10.706  14.876  24.778  0.00  0.00    +0.021 C 
ATOM     32  C   UNL     1       9.703  15.552  23.858  0.00  0.00    +0.005 C 
ENDBRANCH  28  31
ENDBRANCH   1  28
ENDBRANCH   7   1
ENDBRANCH  20   7
BRANCH   5  16
ATOM     16  C   UNL     1      16.207   7.477  21.278  0.00  0.00    +0.121 C 
BRANCH  16  19
ATOM      8  N   UNL     1      19.010   9.860  21.334  0.00  0.00    -0.349 N 
ATOM     19  C   UNL     1      17.161   8.634  21.410  0.00  0.00    -0.008 A 
ATOM     22  C   UNL     1      16.857   9.931  21.910  0.00  0.00    +0.004 A 
ATOM     23  C   UNL     1      18.493   8.622  21.063  0.00  0.00    +0.091 A 
ATOM     24  C   UNL     1      18.034  10.680  21.852  0.00  0.00    +0.049 A 
ATOM     25  C   UNL     1      15.688  10.541  22.410  0.00  0.00    +0.010 A 
ATOM     26  C   UNL     1      18.101  12.014  22.270  0.00  0.00    +0.026 A 
ATOM     27  C   UNL     1      20.389  10.236  21.104  0.00  0.00    +0.149 C 
ATOM     29  C   UNL     1      15.740  11.874  22.831  0.00  0.00    +0.001 A 
ATOM     30  C   UNL     1      16.930  12.598  22.761  0.00  0.00    +0.002 A 
ENDBRANCH  16  19
ENDBRANCH   5  16
TORSDOF 6
ENDMDL
MODEL 9
REMARK VINA RESULT:      -6.1     16.276     19.578
REMARK  Name = 28990909
REMARK  8 active torsions:
REMARK  status: ('A' for Active; 'I' for Inactive)
REMARK    1  A    between atoms: S_1  and  N_7
REMARK    2  A    between atoms: S_1  and  C_28
REMARK    3  A    between atoms: N_5  and  C_16
REMARK    4  A    between atoms: N_7  and  C_20
REMARK    5  A    between atoms: N_8  and  C_27
REMARK    6  A    between atoms: C_16  and  C_19
REMARK    7  A    between atoms: C_28  and  C_31
REMARK    8  A    between atoms: C_31  and  C_32
REMARK                            x       y       z     vdW  Elec       q    Type
REMARK                         _______ _______ _______ _____ _____    ______ ____
ROOT
ATOM      2  O   UNL     1      10.480   4.190   2.472  0.00  0.00    -0.266 OA
ATOM      5  N   UNL     1       9.023   7.882   5.535  0.00  0.00    -0.297 NA
ATOM      6  N   UNL     1      10.865   5.582   4.308  0.00  0.00    -0.310 N 
ATOM      9  C   UNL     1       9.392   5.559   6.405  0.00  0.00    +0.024 C 
ATOM     10  C   UNL     1      11.284   7.108   6.267  0.00  0.00    +0.050 C 
ATOM     11  C   UNL     1      10.661   6.007   7.120  0.00  0.00    +0.017 C 
ATOM     12  C   UNL     1       8.422   6.751   6.253  0.00  0.00    +0.090 C 
ATOM     13  C   UNL     1      10.296   8.290   6.147  0.00  0.00    +0.094 C 
ATOM     14  C   UNL     1       9.777   4.936   5.056  0.00  0.00    +0.130 C 
ATOM     15  C   UNL     1      11.651   6.581   4.892  0.00  0.00    +0.026 A 
ATOM     17  C   UNL     1      12.707   7.081   4.231  0.00  0.00    +0.024 A 
ATOM     18  C   UNL     1      11.134   5.079   3.020  0.00  0.00    +0.274 A 
ATOM     20  C   UNL     1      12.306   5.678   2.307  0.00  0.00    +0.112 A 
ATOM     21  C   UNL     1      13.038   6.621   2.912  0.00  0.00    +0.031 A 
ENDROOT
BRANCH  20   7
ATOM      7  N   UNL     1      12.592   5.228   1.052  0.00  0.00    -0.215 N 
ATOM     33  H   UNL     1      12.707   5.986   0.365  0.00  0.00    +0.173 HD
BRANCH   7   1
ATOM      1  S   UNL     1      13.809   4.036   0.957  0.00  0.00    +0.043 S 
ATOM      3  O   UNL     1      15.107   4.648   1.165  0.00  0.00    -0.155 OA
ATOM      4  O   UNL     1      13.399   2.870   1.716  0.00  0.00    -0.155 OA
BRANCH   1  28
ATOM     28  C   UNL     1      13.691   3.623  -0.766  0.00  0.00    +0.188 C 
BRANCH  28  31
ATOM     31  C   UNL     1      12.244   3.442  -1.194  0.00  0.00    +0.021 C 
ATOM     32  C   UNL     1      12.097   2.304  -2.190  0.00  0.00    +0.005 C 
ENDBRANCH  28  31
ENDBRANCH   1  28
ENDBRANCH   7   1
ENDBRANCH  20   7
BRANCH   5  16
ATOM     16  C   UNL     1       8.094   9.006   5.458  0.00  0.00    +0.121 C 
BRANCH  16  19
ATOM      8  N   UNL     1       7.632   9.332   1.822  0.00  0.00    -0.349 N 
ATOM     19  C   UNL     1       7.669   9.286   4.041  0.00  0.00    -0.008 A 
ATOM     22  C   UNL     1       6.513  10.008   3.630  0.00  0.00    +0.004 A 
ATOM     23  C   UNL     1       8.336   8.883   2.907  0.00  0.00    +0.091 A 
ATOM     24  C   UNL     1       6.514  10.022   2.234  0.00  0.00    +0.049 A 
ATOM     25  C   UNL     1       5.464  10.653   4.314  0.00  0.00    +0.010 A 
ATOM     26  C   UNL     1       5.514  10.652   1.485  0.00  0.00    +0.026 A 
ATOM     27  C   UNL     1       8.022   9.107   0.446  0.00  0.00    +0.149 C 
ATOM     29  C   UNL     1       4.456  11.286   3.579  0.00  0.00    +0.001 A 
ATOM     30  C   UNL     1       4.482  11.285   2.185  0.00  0.00    +0.002 A 
ENDBRANCH  16  19
ENDBRANCH   5  16
TORSDOF 6
ENDMDL
MODEL 10
REMARK VINA RESULT:      -6.0     27.776     30.766
REMARK  Name = 28990909
REMARK  8 active torsions:
REMARK  status: ('A' for Active; 'I' for Inactive)
REMARK    1  A    between atoms: S_1  and  N_7
REMARK    2  A    between atoms: S_1  and  C_28
REMARK    3  A    between atoms: N_5  and  C_16
REMARK    4  A    between atoms: N_7  and  C_20
REMARK    5  A    between atoms: N_8  and  C_27
REMARK    6  A    between atoms: C_16  and  C_19
REMARK    7  A    between atoms: C_28  and  C_31
REMARK    8  A    between atoms: C_31  and  C_32
REMARK                            x       y       z     vdW  Elec       q    Type
REMARK                         _______ _______ _______ _____ _____    ______ ____
ROOT
ATOM      2  O   UNL     1      -6.399 -10.848  14.995  0.00  0.00    -0.266 OA
ATOM      5  N   UNL     1      -9.648 -11.141  18.801  0.00  0.00    -0.297 NA
ATOM      6  N   UNL     1      -7.145 -11.868  16.959  0.00  0.00    -0.310 N 
ATOM      9  C   UNL     1      -9.428 -13.017  17.151  0.00  0.00    +0.024 C 
ATOM     10  C   UNL     1      -7.939 -12.941  19.095  0.00  0.00    +0.050 C 
ATOM     11  C   UNL     1      -8.738 -13.883  18.198  0.00  0.00    +0.017 C 
ATOM     12  C   UNL     1     -10.357 -11.995  17.840  0.00  0.00    +0.090 C 
ATOM     13  C   UNL     1      -8.899 -11.943  19.780  0.00  0.00    +0.094 C 
ATOM     14  C   UNL     1      -8.357 -12.346  16.280  0.00  0.00    +0.130 C 
ATOM     15  C   UNL     1      -6.885 -12.199  18.294  0.00  0.00    +0.026 A 
ATOM     17  C   UNL     1      -5.722 -11.845  18.863  0.00  0.00    +0.024 A 
ATOM     18  C   UNL     1      -6.221 -11.148  16.176  0.00  0.00    +0.274 A 
ATOM     20  C   UNL     1      -4.946 -10.752  16.854  0.00  0.00    +0.112 A 
ATOM     21  C   UNL     1      -4.735 -11.105  18.128  0.00  0.00    +0.031 A 
ENDROOT
BRANCH  20   7
ATOM      7  N   UNL     1      -4.031 -10.043  16.134  0.00  0.00    -0.215 N 
ATOM     33  H   UNL     1      -3.651  -9.233  16.645  0.00  0.00    +0.173 HD
BRANCH   7   1
ATOM      1  S   UNL     1      -2.835 -10.970  15.347  0.00  0.00    +0.043 S 
ATOM      3  O   UNL     1      -1.520 -10.488  15.722  0.00  0.00    -0.155 OA
ATOM      4  O   UNL     1      -3.175 -12.377  15.446  0.00  0.00    -0.155 OA
BRANCH   1  28
ATOM     28  C   UNL     1      -3.122 -10.467  13.668  0.00  0.00    +0.188 C 
BRANCH  28  31
ATOM     31  C   UNL     1      -2.060 -11.023  12.735  0.00  0.00    +0.021 C 
ATOM     32  C   UNL     1      -1.687 -10.021  11.655  0.00  0.00    +0.005 C 
ENDBRANCH  28  31
ENDBRANCH   1  28
ENDBRANCH   7   1
ENDBRANCH  20   7
BRANCH   5  16
ATOM     16  C   UNL     1     -10.570 -10.226  19.469  0.00  0.00    +0.121 C 
BRANCH  16  19
ATOM      8  N   UNL     1     -13.412  -9.089  17.426  0.00  0.00    -0.349 N 
ATOM     19  C   UNL     1     -11.537  -9.599  18.501  0.00  0.00    -0.008 A 
ATOM     22  C   UNL     1     -11.228  -8.641  17.494  0.00  0.00    +0.004 A 
ATOM     23  C   UNL     1     -12.888  -9.854  18.434  0.00  0.00    +0.091 A 
ATOM     24  C   UNL     1     -12.421  -8.339  16.835  0.00  0.00    +0.049 A 
ATOM     25  C   UNL     1     -10.042  -8.002  17.079  0.00  0.00    +0.010 A 
ATOM     26  C   UNL     1     -12.488  -7.425  15.778  0.00  0.00    +0.026 A 
ATOM     27  C   UNL     1     -14.809  -9.084  17.048  0.00  0.00    +0.149 C 
ATOM     29  C   UNL     1     -10.094  -7.085  16.024  0.00  0.00    +0.001 A 
ATOM     30  C   UNL     1     -11.300  -6.802  15.384  0.00  0.00    +0.002 A 
ENDBRANCH  16  19
ENDBRANCH   5  16
TORSDOF 6
ENDMDL
