MODEL 1
REMARK VINA RESULT:      -5.7      0.000      0.000
REMARK  Name = 75536590
REMARK  7 active torsions:
REMARK  status: ('A' for Active; 'I' for Inactive)
REMARK    1  A    between atoms: O_3  and  C_8
REMARK    2  A    between atoms: N_5  and  C_7
REMARK    3  A    between atoms: N_5  and  C_12
REMARK    4  A    between atoms: N_5  and  C_13
REMARK    5  A    between atoms: N_6  and  C_11
REMARK    6  A    between atoms: C_9  and  C_11
REMARK    7  A    between atoms: C_14  and  C_15
REMARK                            x       y       z     vdW  Elec       q    Type
REMARK                         _______ _______ _______ _____ _____    ______ ____
ROOT
ATOM      2  O   UNL     1      16.513   5.960  18.886  0.00  0.00    -0.371 OA
ATOM      7  C   UNL     1      17.452   6.363  21.030  0.00  0.00    +0.113 C 
ATOM      8  C   UNL     1      16.151   7.135  20.907  0.00  0.00    +0.164 C 
ATOM      9  C   UNL     1      15.466   6.377  19.778  0.00  0.00    +0.165 C 
ATOM     10  C   UNL     1      17.772   6.077  19.572  0.00  0.00    +0.181 C 
ENDROOT
BRANCH   7   5
ATOM      5  N   UNL     1      18.506   7.101  21.707  0.00  0.00    -0.301 NA
ATOM     12  C   UNL     1      19.826   6.591  21.323  0.00  0.00    +0.105 C 
ATOM     13  C   UNL     1      18.413   8.533  21.410  0.00  0.00    +0.105 C 
ENDBRANCH   7   5
BRANCH   8   3
ATOM      3  O   UNL     1      15.388   7.114  22.097  0.00  0.00    -0.388 OA
ATOM     19  H   UNL     1      15.946   7.445  22.822  0.00  0.00    +0.210 HD
ENDBRANCH   8   3
BRANCH   9  11
ATOM     11  C   UNL     1      14.450   7.213  19.022  0.00  0.00    +0.138 C 
BRANCH  11   6
ATOM      4  O   UNL     1      11.692   7.165  19.821  0.00  0.00    -0.270 OA
ATOM      6  N   UNL     1      13.794   8.148  19.892  0.00  0.00    -0.308 N 
ATOM     14  C   UNL     1      12.447   8.047  20.226  0.00  0.00    +0.251 C 
ATOM     20  H   UNL     1      14.353   8.912  20.253  0.00  0.00    +0.149 HD
BRANCH  14  15
ATOM      1  S   UNL     1      10.989   8.659  22.488  0.00  0.00    -0.092 S 
ATOM     15  C   UNL     1      11.910   9.108  21.116  0.00  0.00    +0.074 A 
ATOM     16  C   UNL     1      12.042  10.475  21.008  0.00  0.00    +0.021 A 
ATOM     17  C   UNL     1      11.379  11.162  22.065  0.00  0.00    +0.008 A 
ATOM     18  C   UNL     1      10.764  10.294  22.941  0.00  0.00    +0.046 A 
ENDBRANCH  14  15
ENDBRANCH  11   6
ENDBRANCH   9  11
TORSDOF 5
ENDMDL
MODEL 2
REMARK VINA RESULT:      -5.5      2.200      6.351
REMARK  Name = 75536590
REMARK  7 active torsions:
REMARK  status: ('A' for Active; 'I' for Inactive)
REMARK    1  A    between atoms: O_3  and  C_8
REMARK    2  A    between atoms: N_5  and  C_7
REMARK    3  A    between atoms: N_5  and  C_12
REMARK    4  A    between atoms: N_5  and  C_13
REMARK    5  A    between atoms: N_6  and  C_11
REMARK    6  A    between atoms: C_9  and  C_11
REMARK    7  A    between atoms: C_14  and  C_15
REMARK                            x       y       z     vdW  Elec       q    Type
REMARK                         _______ _______ _______ _____ _____    ______ ____
ROOT
ATOM      2  O   UNL     1      11.674   7.705  19.254  0.00  0.00    -0.371 OA
ATOM      7  C   UNL     1      11.947   9.669  20.561  0.00  0.00    +0.113 C 
ATOM      8  C   UNL     1      13.302   9.014  20.364  0.00  0.00    +0.164 C 
ATOM      9  C   UNL     1      13.034   8.153  19.137  0.00  0.00    +0.165 C 
ATOM     10  C   UNL     1      11.007   8.521  20.233  0.00  0.00    +0.181 C 
ENDROOT
BRANCH   7   5
ATOM      5  N   UNL     1      11.745  10.200  21.900  0.00  0.00    -0.301 NA
ATOM     12  C   UNL     1      11.276  11.588  21.844  0.00  0.00    +0.105 C 
ATOM     13  C   UNL     1      10.792   9.376  22.649  0.00  0.00    +0.105 C 
ENDBRANCH   7   5
BRANCH   8   3
ATOM      3  O   UNL     1      14.333   9.954  20.135  0.00  0.00    -0.388 OA
ATOM     19  H   UNL     1      15.035   9.802  20.792  0.00  0.00    +0.210 HD
ENDBRANCH   8   3
BRANCH   9  11
ATOM     11  C   UNL     1      13.962   6.957  19.029  0.00  0.00    +0.138 C 
BRANCH  11   6
ATOM      4  O   UNL     1      16.499   5.709  18.525  0.00  0.00    -0.270 OA
ATOM      6  N   UNL     1      15.184   7.178  19.749  0.00  0.00    -0.308 N 
ATOM     14  C   UNL     1      16.372   6.525  19.434  0.00  0.00    +0.251 C 
ATOM     20  H   UNL     1      15.150   7.830  20.525  0.00  0.00    +0.149 HD
BRANCH  14  15
ATOM      1  S   UNL     1      17.536   8.289  21.210  0.00  0.00    -0.092 S 
ATOM     15  C   UNL     1      17.543   6.844  20.292  0.00  0.00    +0.074 A 
ATOM     16  C   UNL     1      18.701   6.121  20.475  0.00  0.00    +0.021 A 
ATOM     17  C   UNL     1      19.593   6.762  21.383  0.00  0.00    +0.008 A 
ATOM     18  C   UNL     1      19.084   7.950  21.856  0.00  0.00    +0.046 A 
ENDBRANCH  14  15
ENDBRANCH  11   6
ENDBRANCH   9  11
TORSDOF 5
ENDMDL
MODEL 3
REMARK VINA RESULT:      -5.5      3.223      4.777
REMARK  Name = 75536590
REMARK  7 active torsions:
REMARK  status: ('A' for Active; 'I' for Inactive)
REMARK    1  A    between atoms: O_3  and  C_8
REMARK    2  A    between atoms: N_5  and  C_7
REMARK    3  A    between atoms: N_5  and  C_12
REMARK    4  A    between atoms: N_5  and  C_13
REMARK    5  A    between atoms: N_6  and  C_11
REMARK    6  A    between atoms: C_9  and  C_11
REMARK    7  A    between atoms: C_14  and  C_15
REMARK                            x       y       z     vdW  Elec       q    Type
REMARK                         _______ _______ _______ _____ _____    ______ ____
ROOT
ATOM      2  O   UNL     1      10.625   8.447  19.815  0.00  0.00    -0.371 OA
ATOM      7  C   UNL     1      12.602   7.298  19.172  0.00  0.00    +0.113 C 
ATOM      8  C   UNL     1      12.545   7.375  20.687  0.00  0.00    +0.164 C 
ATOM      9  C   UNL     1      11.060   7.626  20.911  0.00  0.00    +0.165 C 
ATOM     10  C   UNL     1      11.621   8.390  18.778  0.00  0.00    +0.181 C 
ENDROOT
BRANCH   7   5
ATOM      5  N   UNL     1      13.934   7.511  18.627  0.00  0.00    -0.301 NA
ATOM     12  C   UNL     1      13.867   7.812  17.194  0.00  0.00    +0.105 C 
ATOM     13  C   UNL     1      14.620   8.594  19.337  0.00  0.00    +0.105 C 
ENDBRANCH   7   5
BRANCH   8   3
ATOM      3  O   UNL     1      12.980   6.183  21.310  0.00  0.00    -0.388 OA
ATOM     19  H   UNL     1      12.930   5.463  20.659  0.00  0.00    +0.210 HD
ENDBRANCH   8   3
BRANCH   9  11
ATOM     11  C   UNL     1      10.761   8.324  22.226  0.00  0.00    +0.138 C 
BRANCH  11   6
ATOM      4  O   UNL     1      10.986  11.185  22.141  0.00  0.00    -0.270 OA
ATOM      6  N   UNL     1      11.879   9.109  22.666  0.00  0.00    -0.308 N 
ATOM     14  C   UNL     1      11.902  10.497  22.587  0.00  0.00    +0.251 C 
ATOM     20  H   UNL     1      12.679   8.606  23.033  0.00  0.00    +0.149 HD
BRANCH  14  15
ATOM      1  S   UNL     1      14.655  10.411  22.768  0.00  0.00    -0.092 S 
ATOM     15  C   UNL     1      13.143  11.162  23.060  0.00  0.00    +0.074 A 
ATOM     16  C   UNL     1      13.281  12.353  23.738  0.00  0.00    +0.021 A 
ATOM     17  C   UNL     1      14.645  12.654  24.019  0.00  0.00    +0.008 A 
ATOM     18  C   UNL     1      15.497  11.681  23.548  0.00  0.00    +0.046 A 
ENDBRANCH  14  15
ENDBRANCH  11   6
ENDBRANCH   9  11
TORSDOF 5
ENDMDL
MODEL 4
REMARK VINA RESULT:      -5.3      2.653      6.629
REMARK  Name = 75536590
REMARK  7 active torsions:
REMARK  status: ('A' for Active; 'I' for Inactive)
REMARK    1  A    between atoms: O_3  and  C_8
REMARK    2  A    between atoms: N_5  and  C_7
REMARK    3  A    between atoms: N_5  and  C_12
REMARK    4  A    between atoms: N_5  and  C_13
REMARK    5  A    between atoms: N_6  and  C_11
REMARK    6  A    between atoms: C_9  and  C_11
REMARK    7  A    between atoms: C_14  and  C_15
REMARK                            x       y       z     vdW  Elec       q    Type
REMARK                         _______ _______ _______ _____ _____    ______ ____
ROOT
ATOM      2  O   UNL     1      13.370   7.905  18.525  0.00  0.00    -0.371 OA
ATOM      7  C   UNL     1      12.107   7.859  20.535  0.00  0.00    +0.113 C 
ATOM      8  C   UNL     1      13.395   7.084  20.743  0.00  0.00    +0.164 C 
ATOM      9  C   UNL     1      14.259   7.649  19.623  0.00  0.00    +0.165 C 
ATOM     10  C   UNL     1      12.019   7.896  19.018  0.00  0.00    +0.181 C 
ENDROOT
BRANCH   7   5
ATOM      5  N   UNL     1      10.946   7.237  21.154  0.00  0.00    -0.301 NA
ATOM     12  C   UNL     1      11.212   5.828  21.459  0.00  0.00    +0.105 C 
ATOM     13  C   UNL     1      10.561   7.953  22.373  0.00  0.00    +0.105 C 
ENDBRANCH   7   5
BRANCH   8   3
ATOM      3  O   UNL     1      13.967   7.308  22.016  0.00  0.00    -0.388 OA
ATOM     19  H   UNL     1      14.094   6.446  22.450  0.00  0.00    +0.210 HD
ENDBRANCH   8   3
BRANCH   9  11
ATOM     11  C   UNL     1      15.363   6.704  19.183  0.00  0.00    +0.138 C 
BRANCH  11   6
ATOM      4  O   UNL     1      17.931   5.506  18.719  0.00  0.00    -0.270 OA
ATOM      6  N   UNL     1      16.541   6.868  19.985  0.00  0.00    -0.308 N 
ATOM     14  C   UNL     1      17.749   6.245  19.684  0.00  0.00    +0.251 C 
ATOM     20  H   UNL     1      16.461   7.455  20.807  0.00  0.00    +0.149 HD
BRANCH  14  15
ATOM      1  S   UNL     1      18.799   7.857  21.664  0.00  0.00    -0.092 S 
ATOM     15  C   UNL     1      18.869   6.495  20.628  0.00  0.00    +0.074 A 
ATOM     16  C   UNL     1      20.023   5.765  20.811  0.00  0.00    +0.021 A 
ATOM     17  C   UNL     1      20.859   6.331  21.817  0.00  0.00    +0.008 A 
ATOM     18  C   UNL     1      20.313   7.472  22.362  0.00  0.00    +0.046 A 
ENDBRANCH  14  15
ENDBRANCH  11   6
ENDBRANCH   9  11
TORSDOF 5
ENDMDL
MODEL 5
REMARK VINA RESULT:      -5.3      2.595      4.208
REMARK  Name = 75536590
REMARK  7 active torsions:
REMARK  status: ('A' for Active; 'I' for Inactive)
REMARK    1  A    between atoms: O_3  and  C_8
REMARK    2  A    between atoms: N_5  and  C_7
REMARK    3  A    between atoms: N_5  and  C_12
REMARK    4  A    between atoms: N_5  and  C_13
REMARK    5  A    between atoms: N_6  and  C_11
REMARK    6  A    between atoms: C_9  and  C_11
REMARK    7  A    between atoms: C_14  and  C_15
REMARK                            x       y       z     vdW  Elec       q    Type
REMARK                         _______ _______ _______ _____ _____    ______ ____
ROOT
ATOM      2  O   UNL     1      11.492   6.677  20.610  0.00  0.00    -0.371 OA
ATOM      7  C   UNL     1      13.827   7.054  20.392  0.00  0.00    +0.113 C 
ATOM      8  C   UNL     1      13.247   8.079  21.350  0.00  0.00    +0.164 C 
ATOM      9  C   UNL     1      11.955   7.392  21.768  0.00  0.00    +0.165 C 
ATOM     10  C   UNL     1      12.577   6.575  19.672  0.00  0.00    +0.181 C 
ENDROOT
BRANCH   7   5
ATOM      5  N   UNL     1      14.827   7.599  19.488  0.00  0.00    -0.301 NA
ATOM     12  C   UNL     1      15.976   6.695  19.378  0.00  0.00    +0.105 C 
ATOM     13  C   UNL     1      14.252   7.847  18.164  0.00  0.00    +0.105 C 
ENDBRANCH   7   5
BRANCH   8   3
ATOM      3  O   UNL     1      14.092   8.333  22.454  0.00  0.00    -0.388 OA
ATOM     19  H   UNL     1      13.939   9.247  22.752  0.00  0.00    +0.210 HD
ENDBRANCH   8   3
BRANCH   9  11
ATOM     11  C   UNL     1      10.884   8.361  22.236  0.00  0.00    +0.138 C 
BRANCH  11   6
ATOM      4  O   UNL     1      10.925  10.811  23.732  0.00  0.00    -0.270 OA
ATOM      6  N   UNL     1      11.109   9.679  21.715  0.00  0.00    -0.308 N 
ATOM     14  C   UNL     1      11.111  10.815  22.517  0.00  0.00    +0.251 C 
ATOM     20  H   UNL     1      11.255   9.760  20.715  0.00  0.00    +0.149 HD
BRANCH  14  15
ATOM      1  S   UNL     1      12.574  12.224  20.648  0.00  0.00    -0.092 S 
ATOM     15  C   UNL     1      11.332  12.109  21.821  0.00  0.00    +0.074 A 
ATOM     16  C   UNL     1      10.661  13.302  21.980  0.00  0.00    +0.021 A 
ATOM     17  C   UNL     1      11.171  14.321  21.126  0.00  0.00    +0.008 A 
ATOM     18  C   UNL     1      12.215  13.870  20.349  0.00  0.00    +0.046 A 
ENDBRANCH  14  15
ENDBRANCH  11   6
ENDBRANCH   9  11
TORSDOF 5
ENDMDL
MODEL 6
REMARK VINA RESULT:      -5.3      2.823      4.480
REMARK  Name = 75536590
REMARK  7 active torsions:
REMARK  status: ('A' for Active; 'I' for Inactive)
REMARK    1  A    between atoms: O_3  and  C_8
REMARK    2  A    between atoms: N_5  and  C_7
REMARK    3  A    between atoms: N_5  and  C_12
REMARK    4  A    between atoms: N_5  and  C_13
REMARK    5  A    between atoms: N_6  and  C_11
REMARK    6  A    between atoms: C_9  and  C_11
REMARK    7  A    between atoms: C_14  and  C_15
REMARK                            x       y       z     vdW  Elec       q    Type
REMARK                         _______ _______ _______ _____ _____    ______ ____
ROOT
ATOM      2  O   UNL     1      11.321   6.820  20.802  0.00  0.00    -0.371 OA
ATOM      7  C   UNL     1      13.666   7.101  20.553  0.00  0.00    +0.113 C 
ATOM      8  C   UNL     1      13.120   8.231  21.407  0.00  0.00    +0.164 C 
ATOM      9  C   UNL     1      11.807   7.627  21.887  0.00  0.00    +0.165 C 
ATOM     10  C   UNL     1      12.401   6.595  19.879  0.00  0.00    +0.181 C 
ENDROOT
BRANCH   7   5
ATOM      5  N   UNL     1      14.682   7.526  19.603  0.00  0.00    -0.301 NA
ATOM     12  C   UNL     1      15.761   6.537  19.519  0.00  0.00    +0.105 C 
ATOM     13  C   UNL     1      14.096   7.746  18.278  0.00  0.00    +0.105 C 
ENDBRANCH   7   5
BRANCH   8   3
ATOM      3  O   UNL     1      13.974   8.562  22.485  0.00  0.00    -0.388 OA
ATOM     19  H   UNL     1      13.660   9.394  22.878  0.00  0.00    +0.210 HD
ENDBRANCH   8   3
BRANCH   9  11
ATOM     11  C   UNL     1      10.768   8.669  22.259  0.00  0.00    +0.138 C 
BRANCH  11   6
ATOM      4  O   UNL     1      11.015  11.515  21.963  0.00  0.00    -0.270 OA
ATOM      6  N   UNL     1      11.279   9.591  23.233  0.00  0.00    -0.308 N 
ATOM     14  C   UNL     1      11.363  10.960  23.003  0.00  0.00    +0.251 C 
ATOM     20  H   UNL     1      11.599   9.201  24.112  0.00  0.00    +0.149 HD
BRANCH  14  15
ATOM      1  S   UNL     1      10.943  12.915  24.906  0.00  0.00    -0.092 S 
ATOM     15  C   UNL     1      11.939  11.777  24.103  0.00  0.00    +0.074 A 
ATOM     16  C   UNL     1      13.220  11.764  24.608  0.00  0.00    +0.021 A 
ATOM     17  C   UNL     1      13.386  12.701  25.669  0.00  0.00    +0.008 A 
ATOM     18  C   UNL     1      12.226  13.394  25.933  0.00  0.00    +0.046 A 
ENDBRANCH  14  15
ENDBRANCH  11   6
ENDBRANCH   9  11
TORSDOF 5
ENDMDL
MODEL 7
REMARK VINA RESULT:      -5.3      2.113      3.034
REMARK  Name = 75536590
REMARK  7 active torsions:
REMARK  status: ('A' for Active; 'I' for Inactive)
REMARK    1  A    between atoms: O_3  and  C_8
REMARK    2  A    between atoms: N_5  and  C_7
REMARK    3  A    between atoms: N_5  and  C_12
REMARK    4  A    between atoms: N_5  and  C_13
REMARK    5  A    between atoms: N_6  and  C_11
REMARK    6  A    between atoms: C_9  and  C_11
REMARK    7  A    between atoms: C_14  and  C_15
REMARK                            x       y       z     vdW  Elec       q    Type
REMARK                         _______ _______ _______ _____ _____    ______ ____
ROOT
ATOM      2  O   UNL     1      13.579   8.045  18.441  0.00  0.00    -0.371 OA
ATOM      7  C   UNL     1      14.587   6.725  20.139  0.00  0.00    +0.113 C 
ATOM      8  C   UNL     1      13.185   7.107  20.577  0.00  0.00    +0.164 C 
ATOM      9  C   UNL     1      12.544   7.447  19.238  0.00  0.00    +0.165 C 
ATOM     10  C   UNL     1      14.850   7.747  19.045  0.00  0.00    +0.181 C 
ENDROOT
BRANCH   7   5
ATOM      5  N   UNL     1      15.568   6.779  21.211  0.00  0.00    -0.301 NA
ATOM     12  C   UNL     1      16.927   6.625  20.682  0.00  0.00    +0.105 C 
ATOM     13  C   UNL     1      15.458   8.036  21.955  0.00  0.00    +0.105 C 
ENDBRANCH   7   5
BRANCH   8   3
ATOM      3  O   UNL     1      12.512   6.050  21.232  0.00  0.00    -0.388 OA
ATOM     19  H   UNL     1      13.035   5.791  22.010  0.00  0.00    +0.210 HD
ENDBRANCH   8   3
BRANCH   9  11
ATOM     11  C   UNL     1      11.372   8.405  19.361  0.00  0.00    +0.138 C 
BRANCH  11   6
ATOM      4  O   UNL     1      12.664  10.850  20.135  0.00  0.00    -0.270 OA
ATOM      6  N   UNL     1      11.334   9.020  20.657  0.00  0.00    -0.308 N 
ATOM     14  C   UNL     1      11.994  10.211  20.944  0.00  0.00    +0.251 C 
ATOM     20  H   UNL     1      10.811   8.540  21.380  0.00  0.00    +0.149 HD
BRANCH  14  15
ATOM      1  S   UNL     1      13.157  11.628  23.007  0.00  0.00    -0.092 S 
ATOM     15  C   UNL     1      11.879  10.705  22.341  0.00  0.00    +0.074 A 
ATOM     16  C   UNL     1      10.848  10.526  23.238  0.00  0.00    +0.021 A 
ATOM     17  C   UNL     1      11.112  11.158  24.487  0.00  0.00    +0.008 A 
ATOM     18  C   UNL     1      12.334  11.793  24.499  0.00  0.00    +0.046 A 
ENDBRANCH  14  15
ENDBRANCH  11   6
ENDBRANCH   9  11
TORSDOF 5
ENDMDL
MODEL 8
REMARK VINA RESULT:      -5.1      3.677      4.868
REMARK  Name = 75536590
REMARK  7 active torsions:
REMARK  status: ('A' for Active; 'I' for Inactive)
REMARK    1  A    between atoms: O_3  and  C_8
REMARK    2  A    between atoms: N_5  and  C_7
REMARK    3  A    between atoms: N_5  and  C_12
REMARK    4  A    between atoms: N_5  and  C_13
REMARK    5  A    between atoms: N_6  and  C_11
REMARK    6  A    between atoms: C_9  and  C_11
REMARK    7  A    between atoms: C_14  and  C_15
REMARK                            x       y       z     vdW  Elec       q    Type
REMARK                         _______ _______ _______ _____ _____    ______ ____
ROOT
ATOM      2  O   UNL     1      10.646   8.169  20.175  0.00  0.00    -0.371 OA
ATOM      7  C   UNL     1      12.414   7.879  18.615  0.00  0.00    +0.113 C 
ATOM      8  C   UNL     1      12.927   7.563  20.009  0.00  0.00    +0.164 C 
ATOM      9  C   UNL     1      11.623   7.282  20.743  0.00  0.00    +0.165 C 
ATOM     10  C   UNL     1      11.158   8.676  18.930  0.00  0.00    +0.181 C 
ENDROOT
BRANCH   7   5
ATOM      5  N   UNL     1      13.363   8.618  17.798  0.00  0.00    -0.301 NA
ATOM     12  C   UNL     1      14.101   7.713  16.912  0.00  0.00    +0.105 C 
ATOM     13  C   UNL     1      12.681   9.649  17.011  0.00  0.00    +0.105 C 
ENDBRANCH   7   5
BRANCH   8   3
ATOM      3  O   UNL     1      13.797   6.449  20.030  0.00  0.00    -0.388 OA
ATOM     19  H   UNL     1      13.647   5.930  19.221  0.00  0.00    +0.210 HD
ENDBRANCH   8   3
BRANCH   9  11
ATOM     11  C   UNL     1      11.717   7.511  22.241  0.00  0.00    +0.138 C 
BRANCH  11   6
ATOM      4  O   UNL     1      13.278   9.910  22.463  0.00  0.00    -0.270 OA
ATOM      6  N   UNL     1      11.237   8.814  22.601  0.00  0.00    -0.308 N 
ATOM     14  C   UNL     1      12.069   9.926  22.685  0.00  0.00    +0.251 C 
ATOM     20  H   UNL     1      10.249   8.900  22.812  0.00  0.00    +0.149 HD
BRANCH  14  15
ATOM      1  S   UNL     1      11.243  12.453  21.943  0.00  0.00    -0.092 S 
ATOM     15  C   UNL     1      11.424  11.200  23.095  0.00  0.00    +0.074 A 
ATOM     16  C   UNL     1      10.920  11.555  24.328  0.00  0.00    +0.021 A 
ATOM     17  C   UNL     1      10.377  12.872  24.324  0.00  0.00    +0.008 A 
ATOM     18  C   UNL     1      10.488  13.474  23.091  0.00  0.00    +0.046 A 
ENDBRANCH  14  15
ENDBRANCH  11   6
ENDBRANCH   9  11
TORSDOF 5
ENDMDL
MODEL 9
REMARK VINA RESULT:      -5.0     28.530     30.484
REMARK  Name = 75536590
REMARK  7 active torsions:
REMARK  status: ('A' for Active; 'I' for Inactive)
REMARK    1  A    between atoms: O_3  and  C_8
REMARK    2  A    between atoms: N_5  and  C_7
REMARK    3  A    between atoms: N_5  and  C_12
REMARK    4  A    between atoms: N_5  and  C_13
REMARK    5  A    between atoms: N_6  and  C_11
REMARK    6  A    between atoms: C_9  and  C_11
REMARK    7  A    between atoms: C_14  and  C_15
REMARK                            x       y       z     vdW  Elec       q    Type
REMARK                         _______ _______ _______ _____ _____    ______ ____
ROOT
ATOM      2  O   UNL     1       1.431   2.099  -7.770  0.00  0.00    -0.371 OA
ATOM      7  C   UNL     1      -0.714   1.390  -7.036  0.00  0.00    +0.113 C 
ATOM      8  C   UNL     1       0.192   1.557  -5.830  0.00  0.00    +0.164 C 
ATOM      9  C   UNL     1       1.265   2.479  -6.395  0.00  0.00    +0.165 C 
ATOM     10  C   UNL     1       0.301   1.301  -8.164  0.00  0.00    +0.181 C 
ENDROOT
BRANCH   7   5
ATOM      5  N   UNL     1      -1.578   0.223  -6.960  0.00  0.00    -0.301 NA
ATOM     12  C   UNL     1      -2.042  -0.169  -8.294  0.00  0.00    +0.105 C 
ATOM     13  C   UNL     1      -0.886  -0.897  -6.318  0.00  0.00    +0.105 C 
ENDBRANCH   7   5
BRANCH   8   3
ATOM      3  O   UNL     1      -0.473   2.135  -4.724  0.00  0.00    -0.388 OA
ATOM     19  H   UNL     1      -1.049   1.459  -4.327  0.00  0.00    +0.210 HD
ENDBRANCH   8   3
BRANCH   9  11
ATOM     11  C   UNL     1       2.592   2.370  -5.667  0.00  0.00    +0.138 C 
BRANCH  11   6
ATOM      4  O   UNL     1       1.522   4.356  -3.891  0.00  0.00    -0.270 OA
ATOM      6  N   UNL     1       3.147   3.665  -5.397  0.00  0.00    -0.308 N 
ATOM     14  C   UNL     1       2.558   4.568  -4.518  0.00  0.00    +0.251 C 
ATOM     20  H   UNL     1       3.996   3.915  -5.891  0.00  0.00    +0.149 HD
BRANCH  14  15
ATOM      1  S   UNL     1       2.676   7.223  -5.263  0.00  0.00    -0.092 S 
ATOM     15  C   UNL     1       3.242   5.879  -4.366  0.00  0.00    +0.074 A 
ATOM     16  C   UNL     1       4.323   6.203  -3.576  0.00  0.00    +0.021 A 
ATOM     17  C   UNL     1       4.689   7.574  -3.707  0.00  0.00    +0.008 A 
ATOM     18  C   UNL     1       3.877   8.244  -4.594  0.00  0.00    +0.046 A 
ENDBRANCH  14  15
ENDBRANCH  11   6
ENDBRANCH   9  11
TORSDOF 5
ENDMDL
MODEL 10
REMARK VINA RESULT:      -5.0      2.681      6.742
REMARK  Name = 75536590
REMARK  7 active torsions:
REMARK  status: ('A' for Active; 'I' for Inactive)
REMARK    1  A    between atoms: O_3  and  C_8
REMARK    2  A    between atoms: N_5  and  C_7
REMARK    3  A    between atoms: N_5  and  C_12
REMARK    4  A    between atoms: N_5  and  C_13
REMARK    5  A    between atoms: N_6  and  C_11
REMARK    6  A    between atoms: C_9  and  C_11
REMARK    7  A    between atoms: C_14  and  C_15
REMARK                            x       y       z     vdW  Elec       q    Type
REMARK                         _______ _______ _______ _____ _____    ______ ____
ROOT
ATOM      2  O   UNL     1      13.561   9.581  22.235  0.00  0.00    -0.371 OA
ATOM      7  C   UNL     1      11.515  10.492  23.022  0.00  0.00    +0.113 C 
ATOM      8  C   UNL     1      11.222   9.519  21.895  0.00  0.00    +0.164 C 
ATOM      9  C   UNL     1      12.494   8.682  21.893  0.00  0.00    +0.165 C 
ATOM     10  C   UNL     1      12.992  10.774  22.800  0.00  0.00    +0.181 C 
ENDROOT
BRANCH   7   5
ATOM      5  N   UNL     1      10.697  11.694  22.982  0.00  0.00    -0.301 NA
ATOM     12  C   UNL     1      10.723  12.384  24.276  0.00  0.00    +0.105 C 
ATOM     13  C   UNL     1      11.150  12.597  21.921  0.00  0.00    +0.105 C 
ENDBRANCH   7   5
BRANCH   8   3
ATOM      3  O   UNL     1      10.072   8.732  22.139  0.00  0.00    -0.388 OA
ATOM     19  H   UNL     1       9.493   9.221  22.749  0.00  0.00    +0.210 HD
ENDBRANCH   8   3
BRANCH   9  11
ATOM     11  C   UNL     1      12.780   8.029  20.553  0.00  0.00    +0.138 C 
BRANCH  11   6
ATOM      4  O   UNL     1      14.943   8.685  18.782  0.00  0.00    -0.270 OA
ATOM      6  N   UNL     1      14.082   7.427  20.533  0.00  0.00    -0.308 N 
ATOM     14  C   UNL     1      15.074   7.809  19.635  0.00  0.00    +0.251 C 
ATOM     20  H   UNL     1      14.258   6.685  21.201  0.00  0.00    +0.149 HD
BRANCH  14  15
ATOM      1  S   UNL     1      17.523   7.560  20.884  0.00  0.00    -0.092 S 
ATOM     15  C   UNL     1      16.361   7.072  19.725  0.00  0.00    +0.074 A 
ATOM     16  C   UNL     1      16.794   5.997  18.980  0.00  0.00    +0.021 A 
ATOM     17  C   UNL     1      18.096   5.568  19.368  0.00  0.00    +0.008 A 
ATOM     18  C   UNL     1      18.609   6.332  20.393  0.00  0.00    +0.046 A 
ENDBRANCH  14  15
ENDBRANCH  11   6
ENDBRANCH   9  11
TORSDOF 5
ENDMDL
