MODEL 1
REMARK VINA RESULT:      -6.7      0.000      0.000
REMARK  Name = 7155545
REMARK  4 active torsions:
REMARK  status: ('A' for Active; 'I' for Inactive)
REMARK    1  A    between atoms: N_8  and  C_19
REMARK    2  A    between atoms: C_18  and  C_21
REMARK    3  A    between atoms: C_21  and  C_22
REMARK    4  A    between atoms: C_23  and  C_27
REMARK                            x       y       z     vdW  Elec       q    Type
REMARK                         _______ _______ _______ _____ _____    ______ ____
ROOT
ATOM      3  O   UNL     1      11.989   9.411  17.044  0.00  0.00    -0.266 OA
ATOM      4  O   UNL     1      10.671   9.725  22.226  0.00  0.00    -0.275 OA
ATOM      6  N   UNL     1      12.730   8.681  21.960  0.00  0.00    -0.300 N 
ATOM      7  N   UNL     1      13.355   8.760  18.826  0.00  0.00    -0.310 N 
ATOM      9  C   UNL     1      12.798   6.776  20.345  0.00  0.00    +0.027 C 
ATOM     10  C   UNL     1      14.830   8.098  20.759  0.00  0.00    +0.054 C 
ATOM     11  C   UNL     1      14.307   6.681  20.539  0.00  0.00    +0.018 C 
ATOM     12  C   UNL     1      12.133   7.397  21.586  0.00  0.00    +0.113 C 
ATOM     13  C   UNL     1      12.511   7.583  19.073  0.00  0.00    +0.130 C 
ATOM     14  C   UNL     1      14.198   8.691  22.034  0.00  0.00    +0.117 C 
ATOM     15  C   UNL     1      14.518   8.987  19.569  0.00  0.00    +0.027 A 
ATOM     16  C   UNL     1      15.336  10.004  19.250  0.00  0.00    +0.024 A 
ATOM     17  C   UNL     1      12.992   9.582  17.739  0.00  0.00    +0.273 A 
ATOM     18  C   UNL     1      11.903   9.754  22.295  0.00  0.00    +0.220 C 
ATOM     19  C   UNL     1      13.917  10.718  17.431  0.00  0.00    +0.099 A 
ATOM     20  C   UNL     1      15.027  10.886  18.160  0.00  0.00    +0.030 A 
ENDROOT
BRANCH  19   8
ATOM      5  O   UNL     1      14.661  10.369  14.698  0.00  0.00    -0.269 OA
ATOM      8  N   UNL     1      13.594  11.545  16.397  0.00  0.00    -0.277 N 
ATOM     23  C   UNL     1      13.987  11.320  15.085  0.00  0.00    +0.255 C 
ATOM     31  H   UNL     1      13.207  12.454  16.637  0.00  0.00    +0.155 HD
BRANCH  23  27
ATOM      2  S   UNL     1      14.374  13.766  13.983  0.00  0.00    -0.092 S 
ATOM     27  C   UNL     1      13.517  12.320  14.091  0.00  0.00    +0.074 A 
ATOM     28  C   UNL     1      12.472  12.198  13.258  0.00  0.00    +0.021 A 
ATOM     29  C   UNL     1      12.345  13.370  12.458  0.00  0.00    +0.008 A 
ATOM     30  C   UNL     1      13.315  14.305  12.750  0.00  0.00    +0.046 A 
ENDBRANCH  23  27
ENDBRANCH  19   8
BRANCH  18  21
ATOM     21  C   UNL     1      12.585  11.014  22.760  0.00  0.00    +0.138 C 
BRANCH  21  22
ATOM      1  S   UNL     1      11.029  13.233  22.243  0.00  0.00    -0.101 S 
ATOM     22  C   UNL     1      12.235  12.110  21.806  0.00  0.00    -0.001 A 
ATOM     24  C   UNL     1      12.768  12.352  20.570  0.00  0.00    +0.011 A 
ATOM     25  C   UNL     1      12.174  13.494  19.958  0.00  0.00    +0.008 A 
ATOM     26  C   UNL     1      11.213  14.068  20.760  0.00  0.00    +0.045 A 
ENDBRANCH  21  22
ENDBRANCH  18  21
TORSDOF 4
ENDMDL
MODEL 2
REMARK VINA RESULT:      -6.7      4.276      7.853
REMARK  Name = 7155545
REMARK  4 active torsions:
REMARK  status: ('A' for Active; 'I' for Inactive)
REMARK    1  A    between atoms: N_8  and  C_19
REMARK    2  A    between atoms: C_18  and  C_21
REMARK    3  A    between atoms: C_21  and  C_22
REMARK    4  A    between atoms: C_23  and  C_27
REMARK                            x       y       z     vdW  Elec       q    Type
REMARK                         _______ _______ _______ _____ _____    ______ ____
ROOT
ATOM      3  O   UNL     1      10.819  10.322  23.602  0.00  0.00    -0.266 OA
ATOM      4  O   UNL     1      14.787   6.955  22.339  0.00  0.00    -0.275 OA
ATOM      6  N   UNL     1      13.833   7.862  20.424  0.00  0.00    -0.300 N 
ATOM      7  N   UNL     1      11.623   9.935  21.441  0.00  0.00    -0.310 N 
ATOM      9  C   UNL     1      11.348   7.689  20.244  0.00  0.00    +0.027 C 
ATOM     10  C   UNL     1      12.527   9.534  19.124  0.00  0.00    +0.054 C 
ATOM     11  C   UNL     1      11.394   8.522  18.968  0.00  0.00    +0.018 C 
ATOM     12  C   UNL     1      12.683   6.956  20.457  0.00  0.00    +0.113 C 
ATOM     13  C   UNL     1      10.998   8.605  21.423  0.00  0.00    +0.130 C 
ATOM     14  C   UNL     1      13.867   8.789  19.283  0.00  0.00    +0.117 C 
ATOM     15  C   UNL     1      12.294  10.436  20.322  0.00  0.00    +0.027 A 
ATOM     16  C   UNL     1      12.756  11.698  20.320  0.00  0.00    +0.024 A 
ATOM     17  C   UNL     1      11.418  10.713  22.599  0.00  0.00    +0.273 A 
ATOM     18  C   UNL     1      14.834   7.741  21.388  0.00  0.00    +0.220 C 
ATOM     19  C   UNL     1      11.969  12.105  22.565  0.00  0.00    +0.099 A 
ATOM     20  C   UNL     1      12.590  12.546  21.465  0.00  0.00    +0.030 A 
ENDROOT
BRANCH  19   8
ATOM      5  O   UNL     1      13.786  12.326  24.756  0.00  0.00    -0.269 OA
ATOM      8  N   UNL     1      11.806  12.885  23.671  0.00  0.00    -0.277 N 
ATOM     23  C   UNL     1      12.729  12.950  24.706  0.00  0.00    +0.255 C 
ATOM     31  H   UNL     1      10.885  13.289  23.820  0.00  0.00    +0.155 HD
BRANCH  23  27
ATOM      2  S   UNL     1      13.566  14.143  26.991  0.00  0.00    -0.092 S 
ATOM     27  C   UNL     1      12.388  13.876  25.817  0.00  0.00    +0.074 A 
ATOM     28  C   UNL     1      11.231  14.534  25.991  0.00  0.00    +0.021 A 
ATOM     29  C   UNL     1      11.293  15.325  27.175  0.00  0.00    +0.008 A 
ATOM     30  C   UNL     1      12.506  15.205  27.817  0.00  0.00    +0.046 A 
ENDBRANCH  23  27
ENDBRANCH  19   8
BRANCH  18  21
ATOM     21  C   UNL     1      16.032   8.643  21.237  0.00  0.00    +0.138 C 
BRANCH  21  22
ATOM      1  S   UNL     1      18.730   8.196  21.603  0.00  0.00    -0.101 S 
ATOM     22  C   UNL     1      17.219   7.789  20.928  0.00  0.00    -0.001 A 
ATOM     24  C   UNL     1      17.269   6.671  20.140  0.00  0.00    +0.011 A 
ATOM     25  C   UNL     1      18.585   6.128  20.086  0.00  0.00    +0.008 A 
ATOM     26  C   UNL     1      19.478   6.860  20.837  0.00  0.00    +0.045 A 
ENDBRANCH  21  22
ENDBRANCH  18  21
TORSDOF 4
ENDMDL
MODEL 3
REMARK VINA RESULT:      -6.6     27.666     28.893
REMARK  Name = 7155545
REMARK  4 active torsions:
REMARK  status: ('A' for Active; 'I' for Inactive)
REMARK    1  A    between atoms: N_8  and  C_19
REMARK    2  A    between atoms: C_18  and  C_21
REMARK    3  A    between atoms: C_21  and  C_22
REMARK    4  A    between atoms: C_23  and  C_27
REMARK                            x       y       z     vdW  Elec       q    Type
REMARK                         _______ _______ _______ _____ _____    ______ ____
ROOT
ATOM      3  O   UNL     1      -4.517 -12.940   9.839  0.00  0.00    -0.266 OA
ATOM      4  O   UNL     1      -5.930 -13.033  15.004  0.00  0.00    -0.275 OA
ATOM      6  N   UNL     1      -3.641 -12.709  14.781  0.00  0.00    -0.300 N 
ATOM      7  N   UNL     1      -3.081 -12.534  11.639  0.00  0.00    -0.310 N 
ATOM      9  C   UNL     1      -2.433 -14.344  13.329  0.00  0.00    +0.027 C 
ATOM     10  C   UNL     1      -1.555 -12.062  13.587  0.00  0.00    +0.054 C 
ATOM     11  C   UNL     1      -1.154 -13.532  13.498  0.00  0.00    +0.018 C 
ATOM     12  C   UNL     1      -3.372 -14.126  14.528  0.00  0.00    +0.113 C 
ATOM     13  C   UNL     1      -3.095 -13.958  12.001  0.00  0.00    +0.130 C 
ATOM     14  C   UNL     1      -2.452 -11.845  14.822  0.00  0.00    +0.117 C 
ATOM     15  C   UNL     1      -2.288 -11.617  12.335  0.00  0.00    +0.027 A 
ATOM     16  C   UNL     1      -2.200 -10.344  11.915  0.00  0.00    +0.024 A 
ATOM     17  C   UNL     1      -3.819 -12.165  10.495  0.00  0.00    +0.273 A 
ATOM     18  C   UNL     1      -4.945 -12.290  15.044  0.00  0.00    +0.220 C 
ATOM     19  C   UNL     1      -3.713 -10.732  10.074  0.00  0.00    +0.099 A 
ATOM     20  C   UNL     1      -2.929  -9.895  10.763  0.00  0.00    +0.030 A 
ENDROOT
BRANCH  19   8
ATOM      5  O   UNL     1      -6.380  -9.714  10.080  0.00  0.00    -0.269 OA
ATOM      8  N   UNL     1      -4.424 -10.331   8.982  0.00  0.00    -0.277 N 
ATOM     23  C   UNL     1      -5.721  -9.843   9.050  0.00  0.00    +0.255 C 
ATOM     31  H   UNL     1      -4.047 -10.576   8.070  0.00  0.00    +0.155 HD
BRANCH  23  27
ATOM      2  S   UNL     1      -7.622  -8.360   7.812  0.00  0.00    -0.092 S 
ATOM     27  C   UNL     1      -6.324  -9.433   7.756  0.00  0.00    +0.074 A 
ATOM     28  C   UNL     1      -5.945  -9.826   6.530  0.00  0.00    +0.021 A 
ATOM     29  C   UNL     1      -6.770  -9.212   5.543  0.00  0.00    +0.008 A 
ATOM     30  C   UNL     1      -7.724  -8.390   6.102  0.00  0.00    +0.046 A 
ENDBRANCH  23  27
ENDBRANCH  19   8
BRANCH  18  21
ATOM     21  C   UNL     1      -5.133 -10.835  15.388  0.00  0.00    +0.138 C 
BRANCH  21  22
ATOM      1  S   UNL     1      -7.055 -10.125  17.235  0.00  0.00    -0.101 S 
ATOM     22  C   UNL     1      -5.521 -10.747  16.828  0.00  0.00    -0.001 A 
ATOM     24  C   UNL     1      -4.784 -11.110  17.922  0.00  0.00    +0.011 A 
ATOM     25  C   UNL     1      -5.496 -10.874  19.134  0.00  0.00    +0.008 A 
ATOM     26  C   UNL     1      -6.745 -10.340  18.905  0.00  0.00    +0.045 A 
ENDBRANCH  21  22
ENDBRANCH  18  21
TORSDOF 4
ENDMDL
MODEL 4
REMARK VINA RESULT:      -6.1     12.779     16.411
REMARK  Name = 7155545
REMARK  4 active torsions:
REMARK  status: ('A' for Active; 'I' for Inactive)
REMARK    1  A    between atoms: N_8  and  C_19
REMARK    2  A    between atoms: C_18  and  C_21
REMARK    3  A    between atoms: C_21  and  C_22
REMARK    4  A    between atoms: C_23  and  C_27
REMARK                            x       y       z     vdW  Elec       q    Type
REMARK                         _______ _______ _______ _____ _____    ______ ____
ROOT
ATOM      3  O   UNL     1      10.031   7.580   1.821  0.00  0.00    -0.266 OA
ATOM      4  O   UNL     1      12.146  10.166   6.007  0.00  0.00    -0.275 OA
ATOM      6  N   UNL     1      10.577   8.603   6.710  0.00  0.00    -0.300 N 
ATOM      7  N   UNL     1       9.590   7.101   4.066  0.00  0.00    -0.310 N 
ATOM      9  C   UNL     1       8.338   8.718   5.606  0.00  0.00    +0.027 C 
ATOM     10  C   UNL     1       9.154   6.573   6.491  0.00  0.00    +0.054 C 
ATOM     11  C   UNL     1       7.918   7.458   6.355  0.00  0.00    +0.018 C 
ATOM     12  C   UNL     1       9.438   9.464   6.382  0.00  0.00    +0.113 C 
ATOM     13  C   UNL     1       8.791   8.327   4.195  0.00  0.00    +0.130 C 
ATOM     14  C   UNL     1      10.229   7.309   7.315  0.00  0.00    +0.117 C 
ATOM     15  C   UNL     1       9.714   6.202   5.130  0.00  0.00    +0.027 A 
ATOM     16  C   UNL     1      10.350   5.032   4.955  0.00  0.00    +0.024 A 
ATOM     17  C   UNL     1      10.130   6.828   2.792  0.00  0.00    +0.273 A 
ATOM     18  C   UNL     1      11.875   9.075   6.517  0.00  0.00    +0.220 C 
ATOM     19  C   UNL     1      10.852   5.525   2.646  0.00  0.00    +0.099 A 
ATOM     20  C   UNL     1      10.931   4.689   3.688  0.00  0.00    +0.030 A 
ENDROOT
BRANCH  19   8
ATOM      5  O   UNL     1       9.652   3.953   0.588  0.00  0.00    -0.269 OA
ATOM      8  N   UNL     1      11.402   5.230   1.434  0.00  0.00    -0.277 N 
ATOM     23  C   UNL     1      10.766   4.459   0.471  0.00  0.00    +0.255 C 
ATOM     31  H   UNL     1      12.391   5.434   1.313  0.00  0.00    +0.155 HD
BRANCH  23  27
ATOM      2  S   UNL     1      10.984   5.127  -2.146  0.00  0.00    -0.092 S 
ATOM     27  C   UNL     1      11.514   4.266  -0.798  0.00  0.00    +0.074 A 
ATOM     28  C   UNL     1      12.579   3.473  -0.994  0.00  0.00    +0.021 A 
ATOM     29  C   UNL     1      13.012   3.563  -2.348  0.00  0.00    +0.008 A 
ATOM     30  C   UNL     1      12.232   4.426  -3.086  0.00  0.00    +0.046 A 
ENDBRANCH  23  27
ENDBRANCH  19   8
BRANCH  18  21
ATOM     21  C   UNL     1      12.996   8.173   6.964  0.00  0.00    +0.138 C 
BRANCH  21  22
ATOM      1  S   UNL     1      15.508   8.079   5.827  0.00  0.00    -0.101 S 
ATOM     22  C   UNL     1      13.822   7.833   5.766  0.00  0.00    -0.001 A 
ATOM     24  C   UNL     1      13.398   7.328   4.567  0.00  0.00    +0.011 A 
ATOM     25  C   UNL     1      14.486   7.134   3.667  0.00  0.00    +0.008 A 
ATOM     26  C   UNL     1      15.691   7.502   4.225  0.00  0.00    +0.045 A 
ENDBRANCH  21  22
ENDBRANCH  18  21
TORSDOF 4
ENDMDL
MODEL 5
REMARK VINA RESULT:      -5.9     13.265     16.516
REMARK  Name = 7155545
REMARK  4 active torsions:
REMARK  status: ('A' for Active; 'I' for Inactive)
REMARK    1  A    between atoms: N_8  and  C_19
REMARK    2  A    between atoms: C_18  and  C_21
REMARK    3  A    between atoms: C_21  and  C_22
REMARK    4  A    between atoms: C_23  and  C_27
REMARK                            x       y       z     vdW  Elec       q    Type
REMARK                         _______ _______ _______ _____ _____    ______ ____
ROOT
ATOM      3  O   UNL     1      10.343   4.491   2.909  0.00  0.00    -0.266 OA
ATOM      4  O   UNL     1       7.561   8.623   4.875  0.00  0.00    -0.275 OA
ATOM      6  N   UNL     1       9.396   8.149   6.219  0.00  0.00    -0.300 N 
ATOM      7  N   UNL     1      10.963   5.775   4.761  0.00  0.00    -0.310 N 
ATOM      9  C   UNL     1       9.640   5.773   6.952  0.00  0.00    +0.027 C 
ATOM     10  C   UNL     1      11.636   7.194   6.732  0.00  0.00    +0.054 C 
ATOM     11  C   UNL     1      10.976   6.122   7.597  0.00  0.00    +0.018 C 
ATOM     12  C   UNL     1       8.738   7.018   6.876  0.00  0.00    +0.113 C 
ATOM     13  C   UNL     1       9.900   5.164   5.570  0.00  0.00    +0.130 C 
ATOM     14  C   UNL     1      10.749   8.454   6.706  0.00  0.00    +0.117 C 
ATOM     15  C   UNL     1      11.860   6.693   5.317  0.00  0.00    +0.027 A 
ATOM     16  C   UNL     1      12.894   7.151   4.593  0.00  0.00    +0.024 A 
ATOM     17  C   UNL     1      11.096   5.311   3.436  0.00  0.00    +0.273 A 
ATOM     18  C   UNL     1       8.698   8.896   5.270  0.00  0.00    +0.220 C 
ATOM     19  C   UNL     1      12.248   5.863   2.655  0.00  0.00    +0.099 A 
ATOM     20  C   UNL     1      13.089   6.727   3.235  0.00  0.00    +0.030 A 
ENDROOT
BRANCH  19   8
ATOM      5  O   UNL     1      13.718   3.578   1.782  0.00  0.00    -0.269 OA
ATOM      8  N   UNL     1      12.403   5.451   1.365  0.00  0.00    -0.277 N 
ATOM     23  C   UNL     1      13.132   4.327   1.003  0.00  0.00    +0.255 C 
ATOM     31  H   UNL     1      12.125   6.102   0.635  0.00  0.00    +0.155 HD
BRANCH  23  27
ATOM      2  S   UNL     1      14.328   4.815  -1.380  0.00  0.00    -0.092 S 
ATOM     27  C   UNL     1      13.168   4.022  -0.451  0.00  0.00    +0.074 A 
ATOM     28  C   UNL     1      12.368   3.174  -1.116  0.00  0.00    +0.021 A 
ATOM     29  C   UNL     1      12.717   3.156  -2.498  0.00  0.00    +0.008 A 
ATOM     30  C   UNL     1      13.766   4.003  -2.779  0.00  0.00    +0.046 A 
ENDBRANCH  23  27
ENDBRANCH  19   8
BRANCH  18  21
ATOM     21  C   UNL     1       9.404  10.102   4.705  0.00  0.00    +0.138 C 
BRANCH  21  22
ATOM      1  S   UNL     1      11.481  10.463   2.925  0.00  0.00    -0.101 S 
ATOM     22  C   UNL     1      10.032   9.705   3.409  0.00  0.00    -0.001 A 
ATOM     24  C   UNL     1       9.589   8.775   2.509  0.00  0.00    +0.011 A 
ATOM     25  C   UNL     1      10.462   8.676   1.386  0.00  0.00    +0.008 A 
ATOM     26  C   UNL     1      11.531   9.539   1.485  0.00  0.00    +0.045 A 
ENDBRANCH  21  22
ENDBRANCH  18  21
TORSDOF 4
ENDMDL
MODEL 6
REMARK VINA RESULT:      -5.9      4.439      7.200
REMARK  Name = 7155545
REMARK  4 active torsions:
REMARK  status: ('A' for Active; 'I' for Inactive)
REMARK    1  A    between atoms: N_8  and  C_19
REMARK    2  A    between atoms: C_18  and  C_21
REMARK    3  A    between atoms: C_21  and  C_22
REMARK    4  A    between atoms: C_23  and  C_27
REMARK                            x       y       z     vdW  Elec       q    Type
REMARK                         _______ _______ _______ _____ _____    ______ ____
ROOT
ATOM      3  O   UNL     1      17.368   9.740  20.302  0.00  0.00    -0.266 OA
ATOM      4  O   UNL     1      13.296  12.767  22.017  0.00  0.00    -0.275 OA
ATOM      6  N   UNL     1      12.531  11.058  20.641  0.00  0.00    -0.300 N 
ATOM      7  N   UNL     1      15.106   9.320  19.887  0.00  0.00    -0.310 N 
ATOM      9  C   UNL     1      13.660  10.842  18.423  0.00  0.00    +0.027 C 
ATOM     10  C   UNL     1      12.662   8.860  19.482  0.00  0.00    +0.054 C 
ATOM     11  C   UNL     1      12.854   9.579  18.148  0.00  0.00    +0.018 C 
ATOM     12  C   UNL     1      12.913  11.755  19.410  0.00  0.00    +0.113 C 
ATOM     13  C   UNL     1      15.046  10.444  18.942  0.00  0.00    +0.130 C 
ATOM     14  C   UNL     1      11.866   9.762  20.445  0.00  0.00    +0.117 C 
ATOM     15  C   UNL     1      13.997   8.495  20.103  0.00  0.00    +0.027 A 
ATOM     16  C   UNL     1      14.108   7.406  20.881  0.00  0.00    +0.024 A 
ATOM     17  C   UNL     1      16.360   9.055  20.476  0.00  0.00    +0.273 A 
ATOM     18  C   UNL     1      12.735  11.677  21.874  0.00  0.00    +0.220 C 
ATOM     19  C   UNL     1      16.434   7.845  21.355  0.00  0.00    +0.099 A 
ATOM     20  C   UNL     1      15.351   7.077  21.519  0.00  0.00    +0.030 A 
ENDROOT
BRANCH  19   8
ATOM      5  O   UNL     1      18.510   6.199  20.292  0.00  0.00    -0.269 OA
ATOM      8  N   UNL     1      17.624   7.562  21.956  0.00  0.00    -0.277 N 
ATOM     23  C   UNL     1      18.597   6.753  21.386  0.00  0.00    +0.255 C 
ATOM     31  H   UNL     1      17.716   7.809  22.938  0.00  0.00    +0.155 HD
BRANCH  23  27
ATOM      2  S   UNL     1      20.970   5.464  21.619  0.00  0.00    -0.092 S 
ATOM     27  C   UNL     1      19.840   6.580  22.181  0.00  0.00    +0.074 A 
ATOM     28  C   UNL     1      20.168   7.224  23.312  0.00  0.00    +0.021 A 
ATOM     29  C   UNL     1      21.443   6.783  23.773  0.00  0.00    +0.008 A 
ATOM     30  C   UNL     1      21.990   5.826  22.946  0.00  0.00    +0.046 A 
ENDBRANCH  23  27
ENDBRANCH  19   8
BRANCH  18  21
ATOM     21  C   UNL     1      12.232  10.942  23.091  0.00  0.00    +0.138 C 
BRANCH  21  22
ATOM      1  S   UNL     1      12.904  12.422  25.320  0.00  0.00    -0.101 S 
ATOM     22  C   UNL     1      11.807  11.957  24.102  0.00  0.00    -0.001 A 
ATOM     24  C   UNL     1      10.602  12.598  24.194  0.00  0.00    +0.011 A 
ATOM     25  C   UNL     1      10.573  13.500  25.297  0.00  0.00    +0.008 A 
ATOM     26  C   UNL     1      11.760  13.503  25.995  0.00  0.00    +0.045 A 
ENDBRANCH  21  22
ENDBRANCH  18  21
TORSDOF 4
ENDMDL
MODEL 7
REMARK VINA RESULT:      -5.7      4.073      6.614
REMARK  Name = 7155545
REMARK  4 active torsions:
REMARK  status: ('A' for Active; 'I' for Inactive)
REMARK    1  A    between atoms: N_8  and  C_19
REMARK    2  A    between atoms: C_18  and  C_21
REMARK    3  A    between atoms: C_21  and  C_22
REMARK    4  A    between atoms: C_23  and  C_27
REMARK                            x       y       z     vdW  Elec       q    Type
REMARK                         _______ _______ _______ _____ _____    ______ ____
ROOT
ATOM      3  O   UNL     1      13.930  11.288  22.407  0.00  0.00    -0.266 OA
ATOM      4  O   UNL     1      14.938   6.150  21.282  0.00  0.00    -0.275 OA
ATOM      6  N   UNL     1      13.372   7.025  19.807  0.00  0.00    -0.300 N 
ATOM      7  N   UNL     1      13.065  10.112  20.582  0.00  0.00    -0.310 N 
ATOM      9  C   UNL     1      11.410   8.177  20.840  0.00  0.00    +0.027 C 
ATOM     10  C   UNL     1      12.172   8.841  18.598  0.00  0.00    +0.054 C 
ATOM     11  C   UNL     1      10.932   8.584  19.451  0.00  0.00    +0.018 C 
ATOM     12  C   UNL     1      12.268   6.902  20.763  0.00  0.00    +0.113 C 
ATOM     13  C   UNL     1      12.173   9.350  21.466  0.00  0.00    +0.130 C 
ATOM     14  C   UNL     1      12.997   7.543  18.483  0.00  0.00    +0.117 C 
ATOM     15  C   UNL     1      13.028   9.943  19.194  0.00  0.00    +0.027 A 
ATOM     16  C   UNL     1      13.767  10.732  18.397  0.00  0.00    +0.024 A 
ATOM     17  C   UNL     1      13.877  11.090  21.193  0.00  0.00    +0.273 A 
ATOM     18  C   UNL     1      14.645   6.582  20.164  0.00  0.00    +0.220 C 
ATOM     19  C   UNL     1      14.704  11.932  20.271  0.00  0.00    +0.099 A 
ATOM     20  C   UNL     1      14.622  11.745  18.949  0.00  0.00    +0.030 A 
ENDROOT
BRANCH  19   8
ATOM      5  O   UNL     1      17.456  11.607  20.953  0.00  0.00    -0.269 OA
ATOM      8  N   UNL     1      15.514  12.880  20.824  0.00  0.00    -0.277 N 
ATOM     23  C   UNL     1      16.849  12.660  21.133  0.00  0.00    +0.255 C 
ATOM     31  H   UNL     1      15.065  13.716  21.189  0.00  0.00    +0.155 HD
BRANCH  23  27
ATOM      2  S   UNL     1      17.184  14.282  23.278  0.00  0.00    -0.092 S 
ATOM     27  C   UNL     1      17.577  13.821  21.707  0.00  0.00    +0.074 A 
ATOM     28  C   UNL     1      18.527  14.553  21.105  0.00  0.00    +0.021 A 
ATOM     29  C   UNL     1      18.983  15.578  21.983  0.00  0.00    +0.008 A 
ATOM     30  C   UNL     1      18.336  15.546  23.198  0.00  0.00    +0.046 A 
ENDBRANCH  23  27
ENDBRANCH  19   8
BRANCH  18  21
ATOM     21  C   UNL     1      15.709   6.653  19.099  0.00  0.00    +0.138 C 
BRANCH  21  22
ATOM      1  S   UNL     1      17.379   7.993  20.840  0.00  0.00    -0.101 S 
ATOM     22  C   UNL     1      17.040   6.703  19.778  0.00  0.00    -0.001 A 
ATOM     24  C   UNL     1      18.078   5.820  19.661  0.00  0.00    +0.011 A 
ATOM     25  C   UNL     1      19.187   6.207  20.467  0.00  0.00    +0.008 A 
ATOM     26  C   UNL     1      18.941   7.371  21.161  0.00  0.00    +0.045 A 
ENDBRANCH  21  22
ENDBRANCH  18  21
TORSDOF 4
ENDMDL
MODEL 8
REMARK VINA RESULT:      -5.7     26.271     28.430
REMARK  Name = 7155545
REMARK  4 active torsions:
REMARK  status: ('A' for Active; 'I' for Inactive)
REMARK    1  A    between atoms: N_8  and  C_19
REMARK    2  A    between atoms: C_18  and  C_21
REMARK    3  A    between atoms: C_21  and  C_22
REMARK    4  A    between atoms: C_23  and  C_27
REMARK                            x       y       z     vdW  Elec       q    Type
REMARK                         _______ _______ _______ _____ _____    ______ ____
ROOT
ATOM      3  O   UNL     1     -14.007   9.245  22.552  0.00  0.00    -0.266 OA
ATOM      4  O   UNL     1     -15.189  10.570  17.499  0.00  0.00    -0.275 OA
ATOM      6  N   UNL     1     -12.946   9.998  17.699  0.00  0.00    -0.300 N 
ATOM      7  N   UNL     1     -12.536   9.105  20.741  0.00  0.00    -0.310 N 
ATOM      9  C   UNL     1     -11.668  11.168  19.499  0.00  0.00    +0.027 C 
ATOM     10  C   UNL     1     -10.975   8.923  18.772  0.00  0.00    +0.054 C 
ATOM     11  C   UNL     1     -10.456  10.297  19.187  0.00  0.00    +0.018 C 
ATOM     12  C   UNL     1     -12.571  11.298  18.260  0.00  0.00    +0.113 C 
ATOM     13  C   UNL     1     -12.415  10.568  20.696  0.00  0.00    +0.130 C 
ATOM     14  C   UNL     1     -11.834   9.058  17.499  0.00  0.00    +0.117 C 
ATOM     15  C   UNL     1     -11.794   8.289  19.880  0.00  0.00    +0.027 A 
ATOM     16  C   UNL     1     -11.832   6.953  20.016  0.00  0.00    +0.024 A 
ATOM     17  C   UNL     1     -13.351   8.568  21.759  0.00  0.00    +0.273 A 
ATOM     18  C   UNL     1     -14.269   9.767  17.322  0.00  0.00    +0.220 C 
ATOM     19  C   UNL     1     -13.383   7.075  21.862  0.00  0.00    +0.099 A 
ATOM     20  C   UNL     1     -12.644   6.336  21.026  0.00  0.00    +0.030 A 
ENDROOT
BRANCH  19   8
ATOM      5  O   UNL     1     -14.949   4.703  21.592  0.00  0.00    -0.269 OA
ATOM      8  N   UNL     1     -14.171   6.516  22.824  0.00  0.00    -0.277 N 
ATOM     23  C   UNL     1     -14.910   5.357  22.631  0.00  0.00    +0.255 C 
ATOM     31  H   UNL     1     -14.361   7.079  23.649  0.00  0.00    +0.155 HD
BRANCH  23  27
ATOM      2  S   UNL     1     -17.075   5.755  24.213  0.00  0.00    -0.092 S 
ATOM     27  C   UNL     1     -15.690   4.887  23.805  0.00  0.00    +0.074 A 
ATOM     28  C   UNL     1     -15.410   3.834  24.588  0.00  0.00    +0.021 A 
ATOM     29  C   UNL     1     -16.396   3.708  25.609  0.00  0.00    +0.008 A 
ATOM     30  C   UNL     1     -17.360   4.689  25.523  0.00  0.00    +0.046 A 
ENDBRANCH  23  27
ENDBRANCH  19   8
BRANCH  18  21
ATOM     21  C   UNL     1     -14.564   8.443  16.666  0.00  0.00    +0.138 C 
BRANCH  21  22
ATOM      1  S   UNL     1     -16.977   7.112  16.802  0.00  0.00    -0.101 S 
ATOM     22  C   UNL     1     -15.552   7.714  17.518  0.00  0.00    -0.001 A 
ATOM     24  C   UNL     1     -15.474   7.448  18.858  0.00  0.00    +0.011 A 
ATOM     25  C   UNL     1     -16.615   6.728  19.316  0.00  0.00    +0.008 A 
ATOM     26  C   UNL     1     -17.511   6.479  18.300  0.00  0.00    +0.045 A 
ENDBRANCH  21  22
ENDBRANCH  18  21
TORSDOF 4
ENDMDL
MODEL 9
REMARK VINA RESULT:      -5.7     27.813     29.152
REMARK  Name = 7155545
REMARK  4 active torsions:
REMARK  status: ('A' for Active; 'I' for Inactive)
REMARK    1  A    between atoms: N_8  and  C_19
REMARK    2  A    between atoms: C_18  and  C_21
REMARK    3  A    between atoms: C_21  and  C_22
REMARK    4  A    between atoms: C_23  and  C_27
REMARK                            x       y       z     vdW  Elec       q    Type
REMARK                         _______ _______ _______ _____ _____    ______ ____
ROOT
ATOM      3  O   UNL     1      -5.984 -11.631   8.613  0.00  0.00    -0.266 OA
ATOM      4  O   UNL     1      -6.816 -12.140  13.879  0.00  0.00    -0.275 OA
ATOM      6  N   UNL     1      -4.594 -11.624  13.441  0.00  0.00    -0.300 N 
ATOM      7  N   UNL     1      -4.393 -11.221  10.276  0.00  0.00    -0.310 N 
ATOM      9  C   UNL     1      -3.437 -13.071  11.765  0.00  0.00    +0.027 C 
ATOM     10  C   UNL     1      -2.702 -10.745  12.083  0.00  0.00    +0.054 C 
ATOM     11  C   UNL     1      -2.209 -12.172  11.854  0.00  0.00    +0.018 C 
ATOM     12  C   UNL     1      -4.253 -12.998  13.067  0.00  0.00    +0.113 C 
ATOM     13  C   UNL     1      -4.265 -12.660  10.542  0.00  0.00    +0.130 C 
ATOM     14  C   UNL     1      -3.473 -10.673  13.416  0.00  0.00    +0.117 C 
ATOM     15  C   UNL     1      -3.597 -10.286  10.946  0.00  0.00    +0.027 A 
ATOM     16  C   UNL     1      -3.648  -8.988  10.606  0.00  0.00    +0.024 A 
ATOM     17  C   UNL     1      -5.277 -10.844   9.243  0.00  0.00    +0.273 A 
ATOM     18  C   UNL     1      -5.889 -11.326  13.866  0.00  0.00    +0.220 C 
ATOM     19  C   UNL     1      -5.321  -9.385   8.911  0.00  0.00    +0.099 A 
ATOM     20  C   UNL     1      -4.528  -8.530   9.568  0.00  0.00    +0.030 A 
ENDROOT
BRANCH  19   8
ATOM      5  O   UNL     1      -7.828  -8.076   9.291  0.00  0.00    -0.269 OA
ATOM      8  N   UNL     1      -6.173  -8.978   7.928  0.00  0.00    -0.277 N 
ATOM     23  C   UNL     1      -7.382  -8.344   8.178  0.00  0.00    +0.255 C 
ATOM     31  H   UNL     1      -5.993  -9.321   6.988  0.00  0.00    +0.155 HD
BRANCH  23  27
ATOM      2  S   UNL     1      -7.558  -8.410   5.474  0.00  0.00    -0.092 S 
ATOM     27  C   UNL     1      -8.165  -7.952   6.977  0.00  0.00    +0.074 A 
ATOM     28  C   UNL     1      -9.318  -7.266   6.956  0.00  0.00    +0.021 A 
ATOM     29  C   UNL     1      -9.757  -7.089   5.612  0.00  0.00    +0.008 A 
ATOM     30  C   UNL     1      -8.892  -7.662   4.704  0.00  0.00    +0.046 A 
ENDBRANCH  23  27
ENDBRANCH  19   8
BRANCH  18  21
ATOM     21  C   UNL     1      -6.142  -9.913  14.324  0.00  0.00    +0.138 C 
BRANCH  21  22
ATOM      1  S   UNL     1      -5.344 -10.559  16.885  0.00  0.00    -0.101 S 
ATOM     22  C   UNL     1      -6.489  -9.953  15.777  0.00  0.00    -0.001 A 
ATOM     24  C   UNL     1      -7.653  -9.555  16.375  0.00  0.00    +0.011 A 
ATOM     25  C   UNL     1      -7.609  -9.749  17.787  0.00  0.00    +0.008 A 
ATOM     26  C   UNL     1      -6.410 -10.289  18.197  0.00  0.00    +0.045 A 
ENDBRANCH  21  22
ENDBRANCH  18  21
TORSDOF 4
ENDMDL
MODEL 10
REMARK VINA RESULT:      -5.6     28.189     30.016
REMARK  Name = 7155545
REMARK  4 active torsions:
REMARK  status: ('A' for Active; 'I' for Inactive)
REMARK    1  A    between atoms: N_8  and  C_19
REMARK    2  A    between atoms: C_18  and  C_21
REMARK    3  A    between atoms: C_21  and  C_22
REMARK    4  A    between atoms: C_23  and  C_27
REMARK                            x       y       z     vdW  Elec       q    Type
REMARK                         _______ _______ _______ _____ _____    ______ ____
ROOT
ATOM      3  O   UNL     1      -8.367  -8.352  17.072  0.00  0.00    -0.266 OA
ATOM      4  O   UNL     1      -3.543 -10.579  16.398  0.00  0.00    -0.275 OA
ATOM      6  N   UNL     1      -4.989 -12.051  17.465  0.00  0.00    -0.300 N 
ATOM      7  N   UNL     1      -7.814 -10.560  17.604  0.00  0.00    -0.310 N 
ATOM      9  C   UNL     1      -6.177 -11.165  19.476  0.00  0.00    +0.027 C 
ATOM     10  C   UNL     1      -7.212 -12.948  18.136  0.00  0.00    +0.054 C 
ATOM     11  C   UNL     1      -6.973 -12.462  19.563  0.00  0.00    +0.018 C 
ATOM     12  C   UNL     1      -4.831 -11.405  18.770  0.00  0.00    +0.113 C 
ATOM     13  C   UNL     1      -7.025 -10.109  18.758  0.00  0.00    +0.130 C 
ATOM     14  C   UNL     1      -5.859 -13.236  17.455  0.00  0.00    +0.117 C 
ATOM     15  C   UNL     1      -7.984 -11.921  17.330  0.00  0.00    +0.027 A 
ATOM     16  C   UNL     1      -8.804 -12.313  16.340  0.00  0.00    +0.024 A 
ATOM     17  C   UNL     1      -8.472  -9.561  16.857  0.00  0.00    +0.273 A 
ATOM     18  C   UNL     1      -4.268 -11.577  16.369  0.00  0.00    +0.220 C 
ATOM     19  C   UNL     1      -9.356 -10.039  15.748  0.00  0.00    +0.099 A 
ATOM     20  C   UNL     1      -9.501 -11.352  15.534  0.00  0.00    +0.030 A 
ENDROOT
BRANCH  19   8
ATOM      5  O   UNL     1     -11.862  -8.814  16.354  0.00  0.00    -0.269 OA
ATOM      8  N   UNL     1      -9.999  -9.103  14.993  0.00  0.00    -0.277 N 
ATOM     23  C   UNL     1     -11.219  -8.543  15.343  0.00  0.00    +0.255 C 
ATOM     31  H   UNL     1      -9.651  -8.954  14.049  0.00  0.00    +0.155 HD
BRANCH  23  27
ATOM      2  S   UNL     1     -11.808  -5.927  14.948  0.00  0.00    -0.092 S 
ATOM     27  C   UNL     1     -11.752  -7.521  14.405  0.00  0.00    +0.074 A 
ATOM     28  C   UNL     1     -12.198  -7.727  13.157  0.00  0.00    +0.021 A 
ATOM     29  C   UNL     1     -12.625  -6.496  12.580  0.00  0.00    +0.008 A 
ATOM     30  C   UNL     1     -12.469  -5.436  13.447  0.00  0.00    +0.046 A 
ENDBRANCH  23  27
ENDBRANCH  19   8
BRANCH  18  21
ATOM     21  C   UNL     1      -4.408 -12.348  15.082  0.00  0.00    +0.138 C 
BRANCH  21  22
ATOM      1  S   UNL     1      -6.117 -10.501  13.949  0.00  0.00    -0.101 S 
ATOM     22  C   UNL     1      -4.649 -11.368  13.979  0.00  0.00    -0.001 A 
ATOM     24  C   UNL     1      -3.820 -11.052  12.938  0.00  0.00    +0.011 A 
ATOM     25  C   UNL     1      -4.401 -10.068  12.087  0.00  0.00    +0.008 A 
ATOM     26  C   UNL     1      -5.650  -9.681  12.521  0.00  0.00    +0.045 A 
ENDBRANCH  21  22
ENDBRANCH  18  21
TORSDOF 4
ENDMDL
