MODEL 1
REMARK VINA RESULT:      -6.6      0.000      0.000
REMARK  Name = 51136667
REMARK  8 active torsions:
REMARK  status: ('A' for Active; 'I' for Inactive)
REMARK    1  A    between atoms: O_2  and  C_21
REMARK    2  A    between atoms: O_4  and  C_29
REMARK    3  A    between atoms: O_4  and  C_30
REMARK    4  A    between atoms: C_7  and  C_13
REMARK    5  A    between atoms: C_8  and  C_15
REMARK    6  A    between atoms: C_12  and  C_14
REMARK    7  A    between atoms: C_13  and  C_20
REMARK    8  A    between atoms: C_15  and  C_21
REMARK                            x       y       z     vdW  Elec       q    Type
REMARK                         _______ _______ _______ _____ _____    ______ ____
ROOT
ATOM      1  O   UNL     1      -8.127 -11.334  18.628  0.00  0.00    -0.275 OA
ATOM      5  N   UNL     1      -6.390 -10.313  17.471  0.00  0.00    -0.301 N 
ATOM      7  C   UNL     1      -4.702 -10.280  15.648  0.00  0.00    +0.016 C 
ATOM      8  C   UNL     1      -3.614 -10.620  16.699  0.00  0.00    +0.006 C 
ATOM      9  C   UNL     1      -5.875  -9.550  16.327  0.00  0.00    +0.112 C 
ATOM     10  C   UNL     1      -4.207 -11.373  17.902  0.00  0.00    +0.023 C 
ATOM     11  C   UNL     1      -5.395 -10.622  18.497  0.00  0.00    +0.108 C 
ATOM     14  C   UNL     1      -7.714 -10.715  17.643  0.00  0.00    +0.219 C 
ENDROOT
BRANCH  14  12
ATOM     12  C   UNL     1      -8.672 -10.363  16.546  0.00  0.00    +0.075 C 
ATOM     16  C   UNL     1      -9.296  -8.988  16.807  0.00  0.00    +0.013 C 
ATOM     17  C   UNL     1      -9.832 -11.358  16.501  0.00  0.00    +0.013 C 
ATOM     18  C   UNL     1     -10.806  -9.209  16.806  0.00  0.00    +0.001 C 
ATOM     19  C   UNL     1     -10.969 -10.657  17.231  0.00  0.00    +0.001 C 
ENDBRANCH  14  12
BRANCH   7  13
ATOM     13  C   UNL     1      -5.213 -11.495  14.864  0.00  0.00    +0.061 C 
BRANCH  13  20
ATOM      6  N   UNL     1      -3.679 -12.469  13.294  0.00  0.00    -0.287 NA
ATOM     20  C   UNL     1      -4.556 -11.543  13.506  0.00  0.00    +0.044 C 
ATOM     22  C   UNL     1      -4.937 -10.530  12.489  0.00  0.00    -0.001 A 
ATOM     23  C   UNL     1      -4.060 -10.355  11.412  0.00  0.00    -0.033 A 
ATOM     24  C   UNL     1      -3.084 -12.552  11.956  0.00  0.00    +0.146 C 
ATOM     25  C   UNL     1      -2.807 -11.177  11.363  0.00  0.00    +0.059 C 
ATOM     26  C   UNL     1      -6.100  -9.764  12.588  0.00  0.00    +0.013 A 
ATOM     27  C   UNL     1      -4.342  -9.388  10.442  0.00  0.00    +0.050 A 
ATOM     28  C   UNL     1      -6.382  -8.812  11.606  0.00  0.00    +0.046 A 
ATOM     29  C   UNL     1      -5.504  -8.622  10.538  0.00  0.00    +0.120 A 
BRANCH  29   4
ATOM      4  O   UNL     1      -5.781  -7.686   9.589  0.00  0.00    -0.495 OA
ATOM     30  C   UNL     1      -6.981  -7.860   8.838  0.00  0.00    +0.277 C 
ENDBRANCH  29   4
ENDBRANCH  13  20
ENDBRANCH   7  13
BRANCH   8  15
ATOM     15  C   UNL     1      -2.431 -11.388  16.112  0.00  0.00    +0.124 C 
BRANCH  15  21
ATOM      3  O   UNL     1      -1.507  -9.927  14.394  0.00  0.00    -0.251 OA
ATOM     21  C   UNL     1      -1.423 -10.463  15.489  0.00  0.00    +0.305 C 
BRANCH  21   2
ATOM      2  O   UNL     1      -0.372 -10.296  16.332  0.00  0.00    -0.481 OA
ATOM     31  H   UNL     1      -0.664 -10.170  17.259  0.00  0.00    +0.295 HD
ENDBRANCH  21   2
ENDBRANCH  15  21
ENDBRANCH   8  15
TORSDOF 7
ENDMDL
MODEL 2
REMARK VINA RESULT:      -6.4     23.690     26.987
REMARK  Name = 51136667
REMARK  8 active torsions:
REMARK  status: ('A' for Active; 'I' for Inactive)
REMARK    1  A    between atoms: O_2  and  C_21
REMARK    2  A    between atoms: O_4  and  C_29
REMARK    3  A    between atoms: O_4  and  C_30
REMARK    4  A    between atoms: C_7  and  C_13
REMARK    5  A    between atoms: C_8  and  C_15
REMARK    6  A    between atoms: C_12  and  C_14
REMARK    7  A    between atoms: C_13  and  C_20
REMARK    8  A    between atoms: C_15  and  C_21
REMARK                            x       y       z     vdW  Elec       q    Type
REMARK                         _______ _______ _______ _____ _____    ______ ____
ROOT
ATOM      1  O   UNL     1      15.315   6.818   3.682  0.00  0.00    -0.275 OA
ATOM      5  N   UNL     1      13.504   7.006   2.239  0.00  0.00    -0.301 N 
ATOM      7  C   UNL     1      11.190   6.420   1.551  0.00  0.00    +0.016 C 
ATOM      8  C   UNL     1      11.788   5.502   0.454  0.00  0.00    +0.006 C 
ATOM      9  C   UNL     1      12.184   7.545   1.890  0.00  0.00    +0.112 C 
ATOM     10  C   UNL     1      13.191   5.002   0.839  0.00  0.00    +0.023 C 
ATOM     11  C   UNL     1      14.111   6.162   1.211  0.00  0.00    +0.108 C 
ATOM     14  C   UNL     1      14.193   7.263   3.424  0.00  0.00    +0.219 C 
ENDROOT
BRANCH  14  12
ATOM     12  C   UNL     1      13.503   8.135   4.428  0.00  0.00    +0.075 C 
ATOM     16  C   UNL     1      14.509   9.084   5.088  0.00  0.00    +0.013 C 
ATOM     17  C   UNL     1      12.906   7.292   5.556  0.00  0.00    +0.013 C 
ATOM     18  C   UNL     1      14.394   8.835   6.589  0.00  0.00    +0.001 C 
ATOM     19  C   UNL     1      13.916   7.398   6.690  0.00  0.00    +0.001 C 
ENDBRANCH  14  12
BRANCH   7  13
ATOM     13  C   UNL     1      10.771   5.676   2.826  0.00  0.00    +0.061 C 
BRANCH  13  20
ATOM      6  N   UNL     1       9.043   7.342   2.899  0.00  0.00    -0.287 NA
ATOM     20  C   UNL     1       9.732   6.478   3.570  0.00  0.00    +0.044 C 
ATOM     22  C   UNL     1       9.557   6.247   5.027  0.00  0.00    -0.001 A 
ATOM     23  C   UNL     1       8.889   7.244   5.749  0.00  0.00    -0.033 A 
ATOM     24  C   UNL     1       7.992   8.078   3.610  0.00  0.00    +0.146 C 
ATOM     25  C   UNL     1       8.416   8.466   5.020  0.00  0.00    +0.059 C 
ATOM     26  C   UNL     1      10.038   5.107   5.673  0.00  0.00    +0.013 A 
ATOM     27  C   UNL     1       8.727   7.105   7.130  0.00  0.00    +0.050 A 
ATOM     28  C   UNL     1       9.858   4.969   7.050  0.00  0.00    +0.046 A 
ATOM     29  C   UNL     1       9.207   5.966   7.778  0.00  0.00    +0.120 A 
BRANCH  29   4
ATOM      4  O   UNL     1       9.043   5.828   9.122  0.00  0.00    -0.495 OA
ATOM     30  C   UNL     1       9.413   4.576   9.695  0.00  0.00    +0.277 C 
ENDBRANCH  29   4
ENDBRANCH  13  20
ENDBRANCH   7  13
BRANCH   8  15
ATOM     15  C   UNL     1      10.879   4.328   0.091  0.00  0.00    +0.124 C 
BRANCH  15  21
ATOM      3  O   UNL     1      10.585   3.011  -1.939  0.00  0.00    -0.251 OA
ATOM     21  C   UNL     1      10.886   4.059  -1.388  0.00  0.00    +0.305 C 
BRANCH  21   2
ATOM      2  O   UNL     1      11.285   5.173  -2.055  0.00  0.00    -0.481 OA
ATOM     31  H   UNL     1      10.537   5.781  -2.232  0.00  0.00    +0.295 HD
ENDBRANCH  21   2
ENDBRANCH  15  21
ENDBRANCH   8  15
TORSDOF 7
ENDMDL
MODEL 3
REMARK VINA RESULT:      -6.4      1.942      2.838
REMARK  Name = 51136667
REMARK  8 active torsions:
REMARK  status: ('A' for Active; 'I' for Inactive)
REMARK    1  A    between atoms: O_2  and  C_21
REMARK    2  A    between atoms: O_4  and  C_29
REMARK    3  A    between atoms: O_4  and  C_30
REMARK    4  A    between atoms: C_7  and  C_13
REMARK    5  A    between atoms: C_8  and  C_15
REMARK    6  A    between atoms: C_12  and  C_14
REMARK    7  A    between atoms: C_13  and  C_20
REMARK    8  A    between atoms: C_15  and  C_21
REMARK                            x       y       z     vdW  Elec       q    Type
REMARK                         _______ _______ _______ _____ _____    ______ ____
ROOT
ATOM      1  O   UNL     1      -7.645 -12.311  20.059  0.00  0.00    -0.275 OA
ATOM      5  N   UNL     1      -6.464 -10.853  18.690  0.00  0.00    -0.301 N 
ATOM      7  C   UNL     1      -5.598 -10.163  16.465  0.00  0.00    +0.016 C 
ATOM      8  C   UNL     1      -4.197 -10.670  16.895  0.00  0.00    +0.006 C 
ATOM      9  C   UNL     1      -6.412  -9.762  17.709  0.00  0.00    +0.112 C 
ATOM     10  C   UNL     1      -4.298 -11.776  17.960  0.00  0.00    +0.023 C 
ATOM     11  C   UNL     1      -5.158 -11.332  19.140  0.00  0.00    +0.108 C 
ATOM     14  C   UNL     1      -7.628 -11.411  19.215  0.00  0.00    +0.219 C 
ENDROOT
BRANCH  14  12
ATOM     12  C   UNL     1      -8.926 -10.868  18.701  0.00  0.00    +0.075 C 
ATOM     16  C   UNL     1      -9.896 -10.622  19.861  0.00  0.00    +0.013 C 
ATOM     17  C   UNL     1      -9.609 -11.880  17.779  0.00  0.00    +0.013 C 
ATOM     18  C   UNL     1     -11.154 -11.419  19.529  0.00  0.00    +0.001 C 
ATOM     19  C   UNL     1     -10.653 -12.556  18.657  0.00  0.00    +0.001 C 
ENDBRANCH  14  12
BRANCH   7  13
ATOM     13  C   UNL     1      -6.388 -11.163  15.612  0.00  0.00    +0.061 C 
BRANCH  13  20
ATOM      6  N   UNL     1      -8.508 -10.167  15.083  0.00  0.00    -0.287 NA
ATOM     20  C   UNL     1      -7.309 -10.422  14.674  0.00  0.00    +0.044 C 
ATOM     22  C   UNL     1      -6.802 -10.029  13.333  0.00  0.00    -0.001 A 
ATOM     23  C   UNL     1      -7.761  -9.706  12.366  0.00  0.00    -0.033 A 
ATOM     24  C   UNL     1      -9.384  -9.395  14.195  0.00  0.00    +0.146 C 
ATOM     25  C   UNL     1      -9.213  -9.788  12.734  0.00  0.00    +0.059 C 
ATOM     26  C   UNL     1      -5.442  -9.993  13.023  0.00  0.00    +0.013 A 
ATOM     27  C   UNL     1      -7.351  -9.367  11.073  0.00  0.00    +0.050 A 
ATOM     28  C   UNL     1      -5.041  -9.638  11.734  0.00  0.00    +0.046 A 
ATOM     29  C   UNL     1      -5.992  -9.329  10.761  0.00  0.00    +0.120 A 
BRANCH  29   4
ATOM      4  O   UNL     1      -5.593  -8.993   9.503  0.00  0.00    -0.495 OA
ATOM     30  C   UNL     1      -4.190  -8.995   9.246  0.00  0.00    +0.277 C 
ENDBRANCH  29   4
ENDBRANCH  13  20
ENDBRANCH   7  13
BRANCH   8  15
ATOM     15  C   UNL     1      -3.339 -11.133  15.718  0.00  0.00    +0.124 C 
BRANCH  15  21
ATOM      3  O   UNL     1      -1.435  -9.796  14.992  0.00  0.00    -0.251 OA
ATOM     21  C   UNL     1      -1.948 -10.566  15.789  0.00  0.00    +0.305 C 
BRANCH  21   2
ATOM      2  O   UNL     1      -1.317 -11.040  16.895  0.00  0.00    -0.481 OA
ATOM     31  H   UNL     1      -0.992 -10.315  17.469  0.00  0.00    +0.295 HD
ENDBRANCH  21   2
ENDBRANCH  15  21
ENDBRANCH   8  15
TORSDOF 7
ENDMDL
MODEL 4
REMARK VINA RESULT:      -6.4     27.027     29.886
REMARK  Name = 51136667
REMARK  8 active torsions:
REMARK  status: ('A' for Active; 'I' for Inactive)
REMARK    1  A    between atoms: O_2  and  C_21
REMARK    2  A    between atoms: O_4  and  C_29
REMARK    3  A    between atoms: O_4  and  C_30
REMARK    4  A    between atoms: C_7  and  C_13
REMARK    5  A    between atoms: C_8  and  C_15
REMARK    6  A    between atoms: C_12  and  C_14
REMARK    7  A    between atoms: C_13  and  C_20
REMARK    8  A    between atoms: C_15  and  C_21
REMARK                            x       y       z     vdW  Elec       q    Type
REMARK                         _______ _______ _______ _____ _____    ______ ____
ROOT
ATOM      1  O   UNL     1      18.548  11.834  23.759  0.00  0.00    -0.275 OA
ATOM      5  N   UNL     1      17.877  10.639  21.883  0.00  0.00    -0.301 N 
ATOM      7  C   UNL     1      16.465   8.917  20.780  0.00  0.00    +0.016 C 
ATOM      8  C   UNL     1      17.692   7.970  20.770  0.00  0.00    +0.006 C 
ATOM      9  C   UNL     1      16.936  10.383  20.785  0.00  0.00    +0.112 C 
ATOM     10  C   UNL     1      18.675   8.307  21.905  0.00  0.00    +0.023 C 
ATOM     11  C   UNL     1      19.062   9.783  21.883  0.00  0.00    +0.108 C 
ATOM     14  C   UNL     1      17.728  11.622  22.861  0.00  0.00    +0.219 C 
ENDROOT
BRANCH  14  12
ATOM     12  C   UNL     1      16.485  12.455  22.794  0.00  0.00    +0.075 C 
ATOM     16  C   UNL     1      16.846  13.936  22.640  0.00  0.00    +0.013 C 
ATOM     17  C   UNL     1      15.688  12.342  24.093  0.00  0.00    +0.013 C 
ATOM     18  C   UNL     1      16.163  14.655  23.800  0.00  0.00    +0.001 C 
ATOM     19  C   UNL     1      16.053  13.593  24.879  0.00  0.00    +0.001 C 
ENDBRANCH  14  12
BRANCH   7  13
ATOM     13  C   UNL     1      15.493   8.666  21.940  0.00  0.00    +0.061 C 
BRANCH  13  20
ATOM      6  N   UNL     1      13.656  10.126  22.451  0.00  0.00    -0.287 NA
ATOM     20  C   UNL     1      14.145   9.265  21.620  0.00  0.00    +0.044 C 
ATOM     22  C   UNL     1      13.447   8.837  20.381  0.00  0.00    -0.001 A 
ATOM     23  C   UNL     1      12.073   9.098  20.308  0.00  0.00    -0.033 A 
ATOM     24  C   UNL     1      12.374  10.753  22.109  0.00  0.00    +0.146 C 
ATOM     25  C   UNL     1      11.404   9.768  21.471  0.00  0.00    +0.059 C 
ATOM     26  C   UNL     1      14.101   8.189  19.332  0.00  0.00    +0.013 A 
ATOM     27  C   UNL     1      11.350   8.683  19.186  0.00  0.00    +0.050 A 
ATOM     28  C   UNL     1      13.374   7.793  18.208  0.00  0.00    +0.046 A 
ATOM     29  C   UNL     1      12.003   8.036  18.136  0.00  0.00    +0.120 A 
BRANCH  29   4
ATOM      4  O   UNL     1      11.299   7.639  17.040  0.00  0.00    -0.495 OA
ATOM     30  C   UNL     1      10.582   8.647  16.330  0.00  0.00    +0.277 C 
ENDBRANCH  29   4
ENDBRANCH  13  20
ENDBRANCH   7  13
BRANCH   8  15
ATOM     15  C   UNL     1      17.310   6.491  20.810  0.00  0.00    +0.124 C 
BRANCH  15  21
ATOM      3  O   UNL     1      16.571   5.797  18.594  0.00  0.00    -0.251 OA
ATOM     21  C   UNL     1      17.434   5.850  19.456  0.00  0.00    +0.305 C 
BRANCH  21   2
ATOM      2  O   UNL     1      18.676   5.318  19.314  0.00  0.00    -0.481 OA
ATOM     31  H   UNL     1      18.722   4.697  18.557  0.00  0.00    +0.295 HD
ENDBRANCH  21   2
ENDBRANCH  15  21
ENDBRANCH   8  15
TORSDOF 7
ENDMDL
MODEL 5
REMARK VINA RESULT:      -6.2     19.587     21.437
REMARK  Name = 51136667
REMARK  8 active torsions:
REMARK  status: ('A' for Active; 'I' for Inactive)
REMARK    1  A    between atoms: O_2  and  C_21
REMARK    2  A    between atoms: O_4  and  C_29
REMARK    3  A    between atoms: O_4  and  C_30
REMARK    4  A    between atoms: C_7  and  C_13
REMARK    5  A    between atoms: C_8  and  C_15
REMARK    6  A    between atoms: C_12  and  C_14
REMARK    7  A    between atoms: C_13  and  C_20
REMARK    8  A    between atoms: C_15  and  C_21
REMARK                            x       y       z     vdW  Elec       q    Type
REMARK                         _______ _______ _______ _____ _____    ______ ____
ROOT
ATOM      1  O   UNL     1     -16.468   6.936  17.820  0.00  0.00    -0.275 OA
ATOM      5  N   UNL     1     -16.214   7.348  20.093  0.00  0.00    -0.301 N 
ATOM      7  C   UNL     1     -14.845   7.381  22.167  0.00  0.00    +0.016 C 
ATOM      8  C   UNL     1     -15.577   6.093  22.626  0.00  0.00    +0.006 C 
ATOM      9  C   UNL     1     -15.747   8.181  21.209  0.00  0.00    +0.112 C 
ATOM     10  C   UNL     1     -16.092   5.279  21.427  0.00  0.00    +0.023 C 
ATOM     11  C   UNL     1     -16.936   6.141  20.492  0.00  0.00    +0.108 C 
ATOM     14  C   UNL     1     -16.043   7.641  18.740  0.00  0.00    +0.219 C 
ENDROOT
BRANCH  14  12
ATOM     12  C   UNL     1     -15.289   8.893  18.413  0.00  0.00    +0.075 C 
ATOM     16  C   UNL     1     -16.263  10.042  18.135  0.00  0.00    +0.013 C 
ATOM     17  C   UNL     1     -14.465   8.711  17.138  0.00  0.00    +0.013 C 
ATOM     18  C   UNL     1     -15.911  10.560  16.744  0.00  0.00    +0.001 C 
ATOM     19  C   UNL     1     -15.304   9.358  16.044  0.00  0.00    +0.001 C 
ENDBRANCH  14  12
BRANCH   7  13
ATOM     13  C   UNL     1     -13.477   7.125  21.522  0.00  0.00    +0.061 C 
BRANCH  13  20
ATOM      6  N   UNL     1     -12.893   9.379  22.111  0.00  0.00    -0.287 NA
ATOM     20  C   UNL     1     -12.794   8.439  21.229  0.00  0.00    +0.044 C 
ATOM     22  C   UNL     1     -12.054   8.592  19.950  0.00  0.00    -0.001 A 
ATOM     23  C   UNL     1     -11.773   9.899  19.536  0.00  0.00    -0.033 A 
ATOM     24  C   UNL     1     -12.179  10.634  21.854  0.00  0.00    +0.146 C 
ATOM     25  C   UNL     1     -12.242  11.041  20.388  0.00  0.00    +0.059 C 
ATOM     26  C   UNL     1     -11.660   7.502  19.172  0.00  0.00    +0.013 A 
ATOM     27  C   UNL     1     -11.115  10.112  18.321  0.00  0.00    +0.050 A 
ATOM     28  C   UNL     1     -10.989   7.723  17.968  0.00  0.00    +0.046 A 
ATOM     29  C   UNL     1     -10.720   9.024  17.542  0.00  0.00    +0.120 A 
BRANCH  29   4
ATOM      4  O   UNL     1     -10.073   9.232  16.363  0.00  0.00    -0.495 OA
ATOM     30  C   UNL     1     -10.723   8.778  15.178  0.00  0.00    +0.277 C 
ENDBRANCH  29   4
ENDBRANCH  13  20
ENDBRANCH   7  13
BRANCH   8  15
ATOM     15  C   UNL     1     -14.729   5.217  23.548  0.00  0.00    +0.124 C 
BRANCH  15  21
ATOM      3  O   UNL     1     -16.329   4.569  25.269  0.00  0.00    -0.251 OA
ATOM     21  C   UNL     1     -15.580   4.273  24.351  0.00  0.00    +0.305 C 
BRANCH  21   2
ATOM      2  O   UNL     1     -15.399   3.002  23.905  0.00  0.00    -0.481 OA
ATOM     31  H   UNL     1     -16.209   2.644  23.486  0.00  0.00    +0.295 HD
ENDBRANCH  21   2
ENDBRANCH  15  21
ENDBRANCH   8  15
TORSDOF 7
ENDMDL
MODEL 6
REMARK VINA RESULT:      -6.2     23.788     26.630
REMARK  Name = 51136667
REMARK  8 active torsions:
REMARK  status: ('A' for Active; 'I' for Inactive)
REMARK    1  A    between atoms: O_2  and  C_21
REMARK    2  A    between atoms: O_4  and  C_29
REMARK    3  A    between atoms: O_4  and  C_30
REMARK    4  A    between atoms: C_7  and  C_13
REMARK    5  A    between atoms: C_8  and  C_15
REMARK    6  A    between atoms: C_12  and  C_14
REMARK    7  A    between atoms: C_13  and  C_20
REMARK    8  A    between atoms: C_15  and  C_21
REMARK                            x       y       z     vdW  Elec       q    Type
REMARK                         _______ _______ _______ _____ _____    ______ ____
ROOT
ATOM      1  O   UNL     1      12.204  10.369   4.973  0.00  0.00    -0.275 OA
ATOM      5  N   UNL     1      12.080   8.208   5.818  0.00  0.00    -0.301 N 
ATOM      7  C   UNL     1      10.887   6.052   6.135  0.00  0.00    +0.016 C 
ATOM      8  C   UNL     1      10.563   6.487   7.587  0.00  0.00    +0.006 C 
ATOM      9  C   UNL     1      12.171   6.752   5.654  0.00  0.00    +0.112 C 
ATOM     10  C   UNL     1      10.529   8.019   7.724  0.00  0.00    +0.023 C 
ATOM     11  C   UNL     1      11.808   8.653   7.184  0.00  0.00    +0.108 C 
ATOM     14  C   UNL     1      12.260   9.148   4.804  0.00  0.00    +0.219 C 
ENDROOT
BRANCH  14  12
ATOM     12  C   UNL     1      12.532   8.613   3.431  0.00  0.00    +0.075 C 
ATOM     16  C   UNL     1      14.031   8.351   3.251  0.00  0.00    +0.013 C 
ATOM     17  C   UNL     1      12.145   9.638   2.364  0.00  0.00    +0.013 C 
ATOM     18  C   UNL     1      14.450   9.154   2.023  0.00  0.00    +0.001 C 
ATOM     19  C   UNL     1      13.458  10.302   1.975  0.00  0.00    +0.001 C 
ENDBRANCH  14  12
BRANCH   7  13
ATOM     13  C   UNL     1       9.743   6.295   5.142  0.00  0.00    +0.061 C 
BRANCH  13  20
ATOM      6  N   UNL     1      10.657   4.574   3.737  0.00  0.00    -0.287 NA
ATOM     20  C   UNL     1      10.117   5.748   3.786  0.00  0.00    +0.044 C 
ATOM     22  C   UNL     1       9.856   6.578   2.581  0.00  0.00    -0.001 A 
ATOM     23  C   UNL     1      10.547   6.231   1.414  0.00  0.00    -0.033 A 
ATOM     24  C   UNL     1      10.964   4.018   2.415  0.00  0.00    +0.146 C 
ATOM     25  C   UNL     1      11.499   5.073   1.457  0.00  0.00    +0.059 C 
ATOM     26  C   UNL     1       8.982   7.667   2.591  0.00  0.00    +0.013 A 
ATOM     27  C   UNL     1      10.376   6.998   0.257  0.00  0.00    +0.050 A 
ATOM     28  C   UNL     1       8.805   8.416   1.427  0.00  0.00    +0.046 A 
ATOM     29  C   UNL     1       9.502   8.086   0.264  0.00  0.00    +0.120 A 
BRANCH  29   4
ATOM      4  O   UNL     1       9.331   8.827  -0.865  0.00  0.00    -0.495 OA
ATOM     30  C   UNL     1       7.990   9.083  -1.275  0.00  0.00    +0.277 C 
ENDBRANCH  29   4
ENDBRANCH  13  20
ENDBRANCH   7  13
BRANCH   8  15
ATOM     15  C   UNL     1       9.274   5.869   8.126  0.00  0.00    +0.124 C 
BRANCH  15  21
ATOM      3  O   UNL     1       9.171   4.670  10.245  0.00  0.00    -0.251 OA
ATOM     21  C   UNL     1       9.556   4.749   9.089  0.00  0.00    +0.305 C 
BRANCH  21   2
ATOM      2  O   UNL     1      10.321   3.806   8.482  0.00  0.00    -0.481 OA
ATOM     31  H   UNL     1      11.278   3.975   8.609  0.00  0.00    +0.295 HD
ENDBRANCH  21   2
ENDBRANCH  15  21
ENDBRANCH   8  15
TORSDOF 7
ENDMDL
MODEL 7
REMARK VINA RESULT:      -6.2     19.233     21.958
REMARK  Name = 51136667
REMARK  8 active torsions:
REMARK  status: ('A' for Active; 'I' for Inactive)
REMARK    1  A    between atoms: O_2  and  C_21
REMARK    2  A    between atoms: O_4  and  C_29
REMARK    3  A    between atoms: O_4  and  C_30
REMARK    4  A    between atoms: C_7  and  C_13
REMARK    5  A    between atoms: C_8  and  C_15
REMARK    6  A    between atoms: C_12  and  C_14
REMARK    7  A    between atoms: C_13  and  C_20
REMARK    8  A    between atoms: C_15  and  C_21
REMARK                            x       y       z     vdW  Elec       q    Type
REMARK                         _______ _______ _______ _____ _____    ______ ____
ROOT
ATOM      1  O   UNL     1     -12.121  11.377  22.538  0.00  0.00    -0.275 OA
ATOM      5  N   UNL     1     -12.624  10.632  20.395  0.00  0.00    -0.301 N 
ATOM      7  C   UNL     1     -12.924   8.813  18.730  0.00  0.00    +0.016 C 
ATOM      8  C   UNL     1     -11.549   9.191  18.123  0.00  0.00    +0.006 C 
ATOM      9  C   UNL     1     -13.547  10.041  19.419  0.00  0.00    +0.112 C 
ATOM     10  C   UNL     1     -10.634   9.854  19.167  0.00  0.00    +0.023 C 
ATOM     11  C   UNL     1     -11.328  11.031  19.848  0.00  0.00    +0.108 C 
ATOM     14  C   UNL     1     -12.906  10.854  21.743  0.00  0.00    +0.219 C 
ENDROOT
BRANCH  14  12
ATOM     12  C   UNL     1     -14.254  10.415  22.228  0.00  0.00    +0.075 C 
ATOM     16  C   UNL     1     -14.941  11.554  22.988  0.00  0.00    +0.013 C 
ATOM     17  C   UNL     1     -14.122   9.258  23.219  0.00  0.00    +0.013 C 
ATOM     18  C   UNL     1     -15.279  10.992  24.366  0.00  0.00    +0.001 C 
ATOM     19  C   UNL     1     -14.238   9.910  24.590  0.00  0.00    +0.001 C 
ENDBRANCH  14  12
BRANCH   7  13
ATOM     13  C   UNL     1     -12.872   7.627  19.701  0.00  0.00    +0.061 C 
BRANCH  13  20
ATOM      6  N   UNL     1     -15.200   7.446  19.141  0.00  0.00    -0.287 NA
ATOM     20  C   UNL     1     -14.270   7.130  19.981  0.00  0.00    +0.044 C 
ATOM     22  C   UNL     1     -14.510   6.318  21.201  0.00  0.00    -0.001 A 
ATOM     23  C   UNL     1     -15.837   6.207  21.634  0.00  0.00    -0.033 A 
ATOM     24  C   UNL     1     -16.546   6.914  19.381  0.00  0.00    +0.146 C 
ATOM     25  C   UNL     1     -16.909   6.915  20.860  0.00  0.00    +0.059 C 
ATOM     26  C   UNL     1     -13.480   5.697  21.909  0.00  0.00    +0.013 A 
ATOM     27  C   UNL     1     -16.126   5.489  22.798  0.00  0.00    +0.050 A 
ATOM     28  C   UNL     1     -13.779   4.969  23.062  0.00  0.00    +0.046 A 
ATOM     29  C   UNL     1     -15.097   4.868  23.507  0.00  0.00    +0.120 A 
BRANCH  29   4
ATOM      4  O   UNL     1     -15.380   4.163  24.637  0.00  0.00    -0.495 OA
ATOM     30  C   UNL     1     -16.641   4.410  25.256  0.00  0.00    +0.277 C 
ENDBRANCH  29   4
ENDBRANCH  13  20
ENDBRANCH   7  13
BRANCH   8  15
ATOM     15  C   UNL     1     -10.841   8.012  17.457  0.00  0.00    +0.124 C 
BRANCH  15  21
ATOM      3  O   UNL     1     -10.449   9.410  15.499  0.00  0.00    -0.251 OA
ATOM     21  C   UNL     1     -10.502   8.308  16.023  0.00  0.00    +0.305 C 
BRANCH  21   2
ATOM      2  O   UNL     1     -10.255   7.147  15.362  0.00  0.00    -0.481 OA
ATOM     31  H   UNL     1     -10.132   6.395  15.979  0.00  0.00    +0.295 HD
ENDBRANCH  21   2
ENDBRANCH  15  21
ENDBRANCH   8  15
TORSDOF 7
ENDMDL
MODEL 8
REMARK VINA RESULT:      -6.1     21.215     23.841
REMARK  Name = 51136667
REMARK  8 active torsions:
REMARK  status: ('A' for Active; 'I' for Inactive)
REMARK    1  A    between atoms: O_2  and  C_21
REMARK    2  A    between atoms: O_4  and  C_29
REMARK    3  A    between atoms: O_4  and  C_30
REMARK    4  A    between atoms: C_7  and  C_13
REMARK    5  A    between atoms: C_8  and  C_15
REMARK    6  A    between atoms: C_12  and  C_14
REMARK    7  A    between atoms: C_13  and  C_20
REMARK    8  A    between atoms: C_15  and  C_21
REMARK                            x       y       z     vdW  Elec       q    Type
REMARK                         _______ _______ _______ _____ _____    ______ ____
ROOT
ATOM      1  O   UNL     1     -12.333  13.052  26.675  0.00  0.00    -0.275 OA
ATOM      5  N   UNL     1     -13.851  12.242  25.114  0.00  0.00    -0.301 N 
ATOM      7  C   UNL     1     -14.382  11.061  22.993  0.00  0.00    +0.016 C 
ATOM      8  C   UNL     1     -14.661  12.438  22.339  0.00  0.00    +0.006 C 
ATOM      9  C   UNL     1     -14.621  11.146  24.512  0.00  0.00    +0.112 C 
ATOM     10  C   UNL     1     -13.874  13.563  23.033  0.00  0.00    +0.023 C 
ATOM     11  C   UNL     1     -14.114  13.560  24.540  0.00  0.00    +0.108 C 
ATOM     14  C   UNL     1     -12.949  12.110  26.169  0.00  0.00    +0.219 C 
ENDROOT
BRANCH  14  12
ATOM     12  C   UNL     1     -12.731  10.726  26.699  0.00  0.00    +0.075 C 
ATOM     16  C   UNL     1     -12.547  10.762  28.220  0.00  0.00    +0.013 C 
ATOM     17  C   UNL     1     -11.447  10.123  26.127  0.00  0.00    +0.013 C 
ATOM     18  C   UNL     1     -11.206  10.089  28.494  0.00  0.00    +0.001 C 
ATOM     19  C   UNL     1     -10.409  10.320  27.223  0.00  0.00    +0.001 C 
ENDBRANCH  14  12
BRANCH   7  13
ATOM     13  C   UNL     1     -12.982  10.505  22.704  0.00  0.00    +0.061 C 
BRANCH  13  20
ATOM      6  N   UNL     1     -13.859   8.286  22.421  0.00  0.00    -0.287 NA
ATOM     20  C   UNL     1     -13.093   9.209  21.938  0.00  0.00    +0.044 C 
ATOM     22  C   UNL     1     -12.318   9.052  20.680  0.00  0.00    -0.001 A 
ATOM     23  C   UNL     1     -12.133   7.745  20.212  0.00  0.00    -0.033 A 
ATOM     24  C   UNL     1     -14.013   7.050  21.647  0.00  0.00    +0.146 C 
ATOM     25  C   UNL     1     -12.705   6.608  21.004  0.00  0.00    +0.059 C 
ATOM     26  C   UNL     1     -11.777  10.136  19.987  0.00  0.00    +0.013 A 
ATOM     27  C   UNL     1     -11.378   7.527  19.055  0.00  0.00    +0.050 A 
ATOM     28  C   UNL     1     -11.039   9.910  18.824  0.00  0.00    +0.046 A 
ATOM     29  C   UNL     1     -10.837   8.610  18.361  0.00  0.00    +0.120 A 
BRANCH  29   4
ATOM      4  O   UNL     1     -10.109   8.396  17.231  0.00  0.00    -0.495 OA
ATOM     30  C   UNL     1     -10.459   9.162  16.080  0.00  0.00    +0.277 C 
ENDBRANCH  29   4
ENDBRANCH  13  20
ENDBRANCH   7  13
BRANCH   8  15
ATOM     15  C   UNL     1     -14.403  12.451  20.833  0.00  0.00    +0.124 C 
BRANCH  15  21
ATOM      3  O   UNL     1     -15.188  10.706  19.323  0.00  0.00    -0.251 OA
ATOM     21  C   UNL     1     -15.419  11.629  20.090  0.00  0.00    +0.305 C 
BRANCH  21   2
ATOM      2  O   UNL     1     -16.670  12.063  20.393  0.00  0.00    -0.481 OA
ATOM     31  H   UNL     1     -17.280  11.318  20.576  0.00  0.00    +0.295 HD
ENDBRANCH  21   2
ENDBRANCH  15  21
ENDBRANCH   8  15
TORSDOF 7
ENDMDL
MODEL 9
REMARK VINA RESULT:      -6.1     25.137     28.074
REMARK  Name = 51136667
REMARK  8 active torsions:
REMARK  status: ('A' for Active; 'I' for Inactive)
REMARK    1  A    between atoms: O_2  and  C_21
REMARK    2  A    between atoms: O_4  and  C_29
REMARK    3  A    between atoms: O_4  and  C_30
REMARK    4  A    between atoms: C_7  and  C_13
REMARK    5  A    between atoms: C_8  and  C_15
REMARK    6  A    between atoms: C_12  and  C_14
REMARK    7  A    between atoms: C_13  and  C_20
REMARK    8  A    between atoms: C_15  and  C_21
REMARK                            x       y       z     vdW  Elec       q    Type
REMARK                         _______ _______ _______ _____ _____    ______ ____
ROOT
ATOM      1  O   UNL     1      15.072  10.263   6.371  0.00  0.00    -0.275 OA
ATOM      5  N   UNL     1      13.473   8.582   6.500  0.00  0.00    -0.301 N 
ATOM      7  C   UNL     1      11.808   7.067   5.449  0.00  0.00    +0.016 C 
ATOM      8  C   UNL     1      10.683   7.983   5.996  0.00  0.00    +0.006 C 
ATOM      9  C   UNL     1      13.057   7.183   6.341  0.00  0.00    +0.112 C 
ATOM     10  C   UNL     1      11.178   9.426   6.195  0.00  0.00    +0.023 C 
ATOM     11  C   UNL     1      12.445   9.467   7.045  0.00  0.00    +0.108 C 
ATOM     14  C   UNL     1      14.739   9.087   6.204  0.00  0.00    +0.219 C 
ENDROOT
BRANCH  14  12
ATOM     12  C   UNL     1      15.736   8.118   5.646  0.00  0.00    +0.075 C 
ATOM     16  C   UNL     1      17.143   8.455   6.149  0.00  0.00    +0.013 C 
ATOM     17  C   UNL     1      15.791   8.216   4.121  0.00  0.00    +0.013 C 
ATOM     18  C   UNL     1      17.999   8.640   4.900  0.00  0.00    +0.001 C 
ATOM     19  C   UNL     1      17.010   9.081   3.836  0.00  0.00    +0.001 C 
ENDBRANCH  14  12
BRANCH   7  13
ATOM     13  C   UNL     1      12.173   7.335   3.983  0.00  0.00    +0.061 C 
BRANCH  13  20
ATOM      6  N   UNL     1      10.764   5.544   3.223  0.00  0.00    -0.287 NA
ATOM     20  C   UNL     1      11.932   6.094   3.159  0.00  0.00    +0.044 C 
ATOM     22  C   UNL     1      13.041   5.561   2.326  0.00  0.00    -0.001 A 
ATOM     23  C   UNL     1      12.926   4.234   1.895  0.00  0.00    -0.033 A 
ATOM     24  C   UNL     1      10.512   4.373   2.377  0.00  0.00    +0.146 C 
ATOM     25  C   UNL     1      11.718   3.446   2.305  0.00  0.00    +0.059 C 
ATOM     26  C   UNL     1      14.164   6.320   1.990  0.00  0.00    +0.013 A 
ATOM     27  C   UNL     1      13.954   3.660   1.142  0.00  0.00    +0.050 A 
ATOM     28  C   UNL     1      15.179   5.744   1.224  0.00  0.00    +0.046 A 
ATOM     29  C   UNL     1      15.076   4.418   0.804  0.00  0.00    +0.120 A 
BRANCH  29   4
ATOM      4  O   UNL     1      16.075   3.860   0.064  0.00  0.00    -0.495 OA
ATOM     30  C   UNL     1      16.536   4.600  -1.064  0.00  0.00    +0.277 C 
ENDBRANCH  29   4
ENDBRANCH  13  20
ENDBRANCH   7  13
BRANCH   8  15
ATOM     15  C   UNL     1       9.419   7.960   5.138  0.00  0.00    +0.124 C 
BRANCH  15  21
ATOM      3  O   UNL     1       7.949   6.029   5.360  0.00  0.00    -0.251 OA
ATOM     21  C   UNL     1       8.343   7.114   5.759  0.00  0.00    +0.305 C 
BRANCH  21   2
ATOM      2  O   UNL     1       7.849   7.737   6.861  0.00  0.00    -0.481 OA
ATOM     31  H   UNL     1       8.416   7.592   7.647  0.00  0.00    +0.295 HD
ENDBRANCH  21   2
ENDBRANCH  15  21
ENDBRANCH   8  15
TORSDOF 7
ENDMDL
MODEL 10
REMARK VINA RESULT:      -6.1     18.869     22.149
REMARK  Name = 51136667
REMARK  8 active torsions:
REMARK  status: ('A' for Active; 'I' for Inactive)
REMARK    1  A    between atoms: O_2  and  C_21
REMARK    2  A    between atoms: O_4  and  C_29
REMARK    3  A    between atoms: O_4  and  C_30
REMARK    4  A    between atoms: C_7  and  C_13
REMARK    5  A    between atoms: C_8  and  C_15
REMARK    6  A    between atoms: C_12  and  C_14
REMARK    7  A    between atoms: C_13  and  C_20
REMARK    8  A    between atoms: C_15  and  C_21
REMARK                            x       y       z     vdW  Elec       q    Type
REMARK                         _______ _______ _______ _____ _____    ______ ____
ROOT
ATOM      1  O   UNL     1       3.157 -11.474  34.774  0.00  0.00    -0.275 OA
ATOM      5  N   UNL     1       4.770 -12.720  33.658  0.00  0.00    -0.301 N 
ATOM      7  C   UNL     1       6.372 -13.043  31.787  0.00  0.00    +0.016 C 
ATOM      8  C   UNL     1       5.366 -14.032  31.144  0.00  0.00    +0.006 C 
ATOM      9  C   UNL     1       6.167 -13.007  33.312  0.00  0.00    +0.112 C 
ATOM     10  C   UNL     1       3.921 -13.727  31.574  0.00  0.00    +0.023 C 
ATOM     11  C   UNL     1       3.797 -13.655  33.094  0.00  0.00    +0.108 C 
ATOM     14  C   UNL     1       4.338 -11.678  34.477  0.00  0.00    +0.219 C 
ENDROOT
BRANCH  14  12
ATOM     12  C   UNL     1       5.395 -10.761  35.013  0.00  0.00    +0.075 C 
ATOM     16  C   UNL     1       5.737 -11.134  36.459  0.00  0.00    +0.013 C 
ATOM     17  C   UNL     1       4.891  -9.318  35.050  0.00  0.00    +0.013 C 
ATOM     18  C   UNL     1       5.518  -9.866  37.279  0.00  0.00    +0.001 C 
ATOM     19  C   UNL     1       4.471  -9.095  36.497  0.00  0.00    +0.001 C 
ENDBRANCH  14  12
BRANCH   7  13
ATOM     13  C   UNL     1       6.308 -11.625  31.206  0.00  0.00    +0.061 C 
BRANCH  13  20
ATOM      6  N   UNL     1       8.691 -11.466  31.463  0.00  0.00    -0.287 NA
ATOM     20  C   UNL     1       7.555 -10.861  31.581  0.00  0.00    +0.044 C 
ATOM     22  C   UNL     1       7.419  -9.465  32.071  0.00  0.00    -0.001 A 
ATOM     23  C   UNL     1       8.512  -8.929  32.763  0.00  0.00    -0.033 A 
ATOM     24  C   UNL     1       9.906 -10.704  31.770  0.00  0.00    +0.146 C 
ATOM     25  C   UNL     1       9.723  -9.790  32.974  0.00  0.00    +0.059 C 
ATOM     26  C   UNL     1       6.263  -8.707  31.878  0.00  0.00    +0.013 A 
ATOM     27  C   UNL     1       8.433  -7.635  33.284  0.00  0.00    +0.050 A 
ATOM     28  C   UNL     1       6.198  -7.409  32.388  0.00  0.00    +0.046 A 
ATOM     29  C   UNL     1       7.278  -6.876  33.092  0.00  0.00    +0.120 A 
BRANCH  29   4
ATOM      4  O   UNL     1       7.204  -5.612  33.594  0.00  0.00    -0.495 OA
ATOM     30  C   UNL     1       8.431  -4.991  33.969  0.00  0.00    +0.277 C 
ENDBRANCH  29   4
ENDBRANCH  13  20
ENDBRANCH   7  13
BRANCH   8  15
ATOM     15  C   UNL     1       5.473 -14.095  29.621  0.00  0.00    +0.124 C 
BRANCH  15  21
ATOM      3  O   UNL     1       4.859 -16.413  29.188  0.00  0.00    -0.251 OA
ATOM     21  C   UNL     1       4.650 -15.217  29.053  0.00  0.00    +0.305 C 
BRANCH  21   2
ATOM      2  O   UNL     1       3.608 -14.708  28.345  0.00  0.00    -0.481 OA
ATOM     31  H   UNL     1       3.814 -14.643  27.389  0.00  0.00    +0.295 HD
ENDBRANCH  21   2
ENDBRANCH  15  21
ENDBRANCH   8  15
TORSDOF 7
ENDMDL
