MODEL 1
REMARK VINA RESULT:      -7.8      0.000      0.000
REMARK  Name = 11884543
REMARK  5 active torsions:
REMARK  status: ('A' for Active; 'I' for Inactive)
REMARK    1  A    between atoms: O_4  and  C_29
REMARK    2  A    between atoms: O_4  and  C_34
REMARK    3  A    between atoms: N_7  and  C_19
REMARK    4  A    between atoms: N_8  and  C_28
REMARK    5  A    between atoms: C_18  and  C_21
REMARK                            x       y       z     vdW  Elec       q    Type
REMARK                         _______ _______ _______ _____ _____    ______ ____
ROOT
ATOM      1  O   UNL     1      15.634   5.930  19.244  0.00  0.00    -0.266 OA
ATOM      2  O   UNL     1      12.780   9.786  17.307  0.00  0.00    -0.270 OA
ATOM      5  N   UNL     1      12.414   9.723  19.617  0.00  0.00    -0.297 N 
ATOM      6  N   UNL     1      14.392   7.423  20.543  0.00  0.00    -0.310 N 
ATOM      9  C   UNL     1      11.831   7.478  20.521  0.00  0.00    +0.027 C 
ATOM     10  C   UNL     1      13.080   9.075  21.920  0.00  0.00    +0.054 C 
ATOM     11  C   UNL     1      11.972   8.021  21.939  0.00  0.00    +0.018 C 
ATOM     12  C   UNL     1      11.464   8.612  19.546  0.00  0.00    +0.113 C 
ATOM     13  C   UNL     1      13.138   6.779  20.128  0.00  0.00    +0.130 C 
ATOM     14  C   UNL     1      12.681  10.225  20.974  0.00  0.00    +0.117 C 
ATOM     15  C   UNL     1      14.396   8.474  21.466  0.00  0.00    +0.027 A 
ATOM     16  C   UNL     1      15.559   8.970  21.920  0.00  0.00    +0.024 A 
ATOM     17  C   UNL     1      15.586   6.865  20.044  0.00  0.00    +0.273 A 
ATOM     18  C   UNL     1      13.000  10.202  18.443  0.00  0.00    +0.247 C 
ATOM     19  C   UNL     1      16.860   7.466  20.553  0.00  0.00    +0.100 A 
ATOM     20  C   UNL     1      16.814   8.456  21.450  0.00  0.00    +0.030 A 
ENDROOT
BRANCH  19   7
ATOM      3  O   UNL     1      18.978   6.394  22.120  0.00  0.00    -0.252 OA
ATOM      7  N   UNL     1      18.038   6.966  20.079  0.00  0.00    -0.265 N 
ATOM      8  N   UNL     1      20.127   6.017  20.108  0.00  0.00    -0.266 N 
ATOM     24  C   UNL     1      19.052   6.448  20.895  0.00  0.00    +0.308 C 
ATOM     35  H   UNL     1      18.287   7.204  19.123  0.00  0.00    +0.157 HD
ATOM     36  H   UNL     1      20.031   6.133  19.103  0.00  0.00    +0.156 HD
BRANCH   8  28
ATOM     28  C   UNL     1      21.342   5.436  20.541  0.00  0.00    +0.077 A 
ATOM     29  C   UNL     1      22.506   6.188  20.549  0.00  0.00    +0.141 A 
ATOM     30  C   UNL     1      21.338   4.111  20.951  0.00  0.00    +0.027 A 
ATOM     31  C   UNL     1      23.696   5.601  20.979  0.00  0.00    +0.047 A 
ATOM     32  C   UNL     1      22.529   3.524  21.380  0.00  0.00    +0.002 A 
ATOM     33  C   UNL     1      23.707   4.270  21.394  0.00  0.00    +0.004 A 
BRANCH  29   4
ATOM      4  O   UNL     1      22.517   7.491  20.148  0.00  0.00    -0.493 OA
ATOM     34  C   UNL     1      22.467   8.483  21.170  0.00  0.00    +0.277 C 
ENDBRANCH  29   4
ENDBRANCH   8  28
ENDBRANCH  19   7
BRANCH  18  21
ATOM     21  C   UNL     1      13.981  11.286  18.559  0.00  0.00    +0.037 A 
ATOM     22  C   UNL     1      13.570  12.610  18.430  0.00  0.00    +0.013 A 
ATOM     23  C   UNL     1      15.320  10.986  18.799  0.00  0.00    +0.013 A 
ATOM     25  C   UNL     1      14.503  13.641  18.542  0.00  0.00    +0.001 A 
ATOM     26  C   UNL     1      16.253  12.016  18.911  0.00  0.00    +0.001 A 
ATOM     27  C   UNL     1      15.844  13.344  18.782  0.00  0.00    +0.000 A 
ENDBRANCH  18  21
TORSDOF 4
ENDMDL
MODEL 2
REMARK VINA RESULT:      -7.7      4.551      8.639
REMARK  Name = 11884543
REMARK  5 active torsions:
REMARK  status: ('A' for Active; 'I' for Inactive)
REMARK    1  A    between atoms: O_4  and  C_29
REMARK    2  A    between atoms: O_4  and  C_34
REMARK    3  A    between atoms: N_7  and  C_19
REMARK    4  A    between atoms: N_8  and  C_28
REMARK    5  A    between atoms: C_18  and  C_21
REMARK                            x       y       z     vdW  Elec       q    Type
REMARK                         _______ _______ _______ _____ _____    ______ ____
ROOT
ATOM      1  O   UNL     1      13.038   9.041  16.724  0.00  0.00    -0.266 OA
ATOM      2  O   UNL     1      10.577   8.210  21.198  0.00  0.00    -0.270 OA
ATOM      5  N   UNL     1      12.875   8.184  21.637  0.00  0.00    -0.297 N 
ATOM      6  N   UNL     1      14.103   8.886  18.797  0.00  0.00    -0.310 N 
ATOM      9  C   UNL     1      14.208   6.707  20.140  0.00  0.00    +0.027 C 
ATOM     10  C   UNL     1      15.219   8.758  21.053  0.00  0.00    +0.054 C 
ATOM     11  C   UNL     1      15.491   7.291  20.720  0.00  0.00    +0.018 C 
ATOM     12  C   UNL     1      13.061   6.812  21.162  0.00  0.00    +0.113 C 
ATOM     13  C   UNL     1      13.881   7.433  18.830  0.00  0.00    +0.130 C 
ATOM     14  C   UNL     1      14.100   8.848  22.109  0.00  0.00    +0.117 C 
ATOM     15  C   UNL     1      14.815   9.533  19.813  0.00  0.00    +0.027 A 
ATOM     16  C   UNL     1      15.108  10.840  19.707  0.00  0.00    +0.024 A 
ATOM     17  C   UNL     1      13.653   9.571  17.651  0.00  0.00    +0.273 A 
ATOM     18  C   UNL     1      11.603   8.760  21.592  0.00  0.00    +0.247 C 
ATOM     19  C   UNL     1      13.974  11.031  17.584  0.00  0.00    +0.100 A 
ATOM     20  C   UNL     1      14.675  11.602  18.569  0.00  0.00    +0.030 A 
ENDROOT
BRANCH  19   7
ATOM      3  O   UNL     1      15.368  11.354  15.126  0.00  0.00    -0.252 OA
ATOM      7  N   UNL     1      13.539  11.734  16.499  0.00  0.00    -0.265 N 
ATOM      8  N   UNL     1      13.549  12.641  14.391  0.00  0.00    -0.266 N 
ATOM     24  C   UNL     1      14.265  11.863  15.308  0.00  0.00    +0.308 C 
ATOM     35  H   UNL     1      12.775  12.387  16.650  0.00  0.00    +0.157 HD
ATOM     36  H   UNL     1      12.645  12.991  14.698  0.00  0.00    +0.156 HD
BRANCH   8  28
ATOM     28  C   UNL     1      13.930  13.007  13.079  0.00  0.00    +0.077 A 
ATOM     29  C   UNL     1      13.170  12.593  11.996  0.00  0.00    +0.141 A 
ATOM     30  C   UNL     1      15.067  13.780  12.906  0.00  0.00    +0.027 A 
ATOM     31  C   UNL     1      13.558  12.962  10.707  0.00  0.00    +0.047 A 
ATOM     32  C   UNL     1      15.456  14.148  11.618  0.00  0.00    +0.002 A 
ATOM     33  C   UNL     1      14.700  13.739  10.519  0.00  0.00    +0.004 A 
BRANCH  29   4
ATOM      4  O   UNL     1      12.049  11.834  12.158  0.00  0.00    -0.493 OA
ATOM     34  C   UNL     1      10.928  12.153  11.338  0.00  0.00    +0.277 C 
ENDBRANCH  29   4
ENDBRANCH   8  28
ENDBRANCH  19   7
BRANCH  18  21
ATOM     21  C   UNL     1      11.465  10.152  22.033  0.00  0.00    +0.037 A 
ATOM     22  C   UNL     1      11.044  10.429  23.331  0.00  0.00    +0.013 A 
ATOM     23  C   UNL     1      11.758  11.190  21.152  0.00  0.00    +0.013 A 
ATOM     25  C   UNL     1      10.914  11.753  23.750  0.00  0.00    +0.001 A 
ATOM     26  C   UNL     1      11.628  12.514  21.571  0.00  0.00    +0.001 A 
ATOM     27  C   UNL     1      11.206  12.795  22.871  0.00  0.00    +0.000 A 
ENDBRANCH  18  21
TORSDOF 4
ENDMDL
MODEL 3
REMARK VINA RESULT:      -7.5     28.573     31.637
REMARK  Name = 11884543
REMARK  5 active torsions:
REMARK  status: ('A' for Active; 'I' for Inactive)
REMARK    1  A    between atoms: O_4  and  C_29
REMARK    2  A    between atoms: O_4  and  C_34
REMARK    3  A    between atoms: N_7  and  C_19
REMARK    4  A    between atoms: N_8  and  C_28
REMARK    5  A    between atoms: C_18  and  C_21
REMARK                            x       y       z     vdW  Elec       q    Type
REMARK                         _______ _______ _______ _____ _____    ______ ____
ROOT
ATOM      1  O   UNL     1      -6.414  -9.630  13.974  0.00  0.00    -0.266 OA
ATOM      2  O   UNL     1      -5.504 -14.508  12.511  0.00  0.00    -0.270 OA
ATOM      5  N   UNL     1      -3.435 -13.437  12.736  0.00  0.00    -0.297 N 
ATOM      6  N   UNL     1      -4.282 -10.569  13.796  0.00  0.00    -0.310 N 
ATOM      9  C   UNL     1      -3.255 -11.255  11.552  0.00  0.00    +0.027 C 
ATOM     10  C   UNL     1      -1.999 -11.623  13.637  0.00  0.00    +0.054 C 
ATOM     11  C   UNL     1      -1.921 -10.998  12.244  0.00  0.00    +0.018 C 
ATOM     12  C   UNL     1      -3.518 -12.768  11.437  0.00  0.00    +0.113 C 
ATOM     13  C   UNL     1      -4.363 -10.534  12.328  0.00  0.00    +0.130 C 
ATOM     14  C   UNL     1      -2.219 -13.143  13.509  0.00  0.00    +0.117 C 
ATOM     15  C   UNL     1      -3.126 -11.011  14.448  0.00  0.00    +0.027 A 
ATOM     16  C   UNL     1      -3.029 -10.926  15.785  0.00  0.00    +0.024 A 
ATOM     17  C   UNL     1      -5.382 -10.046  14.504  0.00  0.00    +0.273 A 
ATOM     18  C   UNL     1      -4.485 -14.260  13.153  0.00  0.00    +0.247 C 
ATOM     19  C   UNL     1      -5.246  -9.995  15.994  0.00  0.00    +0.100 A 
ATOM     20  C   UNL     1      -4.114 -10.410  16.571  0.00  0.00    +0.030 A 
ENDROOT
BRANCH  19   7
ATOM      3  O   UNL     1      -7.554 -11.460  16.780  0.00  0.00    -0.252 OA
ATOM      7  N   UNL     1      -6.297  -9.512  16.717  0.00  0.00    -0.265 N 
ATOM      8  N   UNL     1      -8.312  -9.495  17.816  0.00  0.00    -0.266 N 
ATOM     24  C   UNL     1      -7.414 -10.277  17.080  0.00  0.00    +0.308 C 
ATOM     35  H   UNL     1      -6.386  -8.502  16.782  0.00  0.00    +0.157 HD
ATOM     36  H   UNL     1      -8.047  -8.527  17.979  0.00  0.00    +0.156 HD
BRANCH   8  28
ATOM     28  C   UNL     1      -9.555  -9.886  18.366  0.00  0.00    +0.077 A 
ATOM     29  C   UNL     1      -9.594 -10.753  19.446  0.00  0.00    +0.141 A 
ATOM     30  C   UNL     1     -10.720  -9.387  17.803  0.00  0.00    +0.027 A 
ATOM     31  C   UNL     1     -10.827 -11.130  19.978  0.00  0.00    +0.047 A 
ATOM     32  C   UNL     1     -11.953  -9.765  18.334  0.00  0.00    +0.002 A 
ATOM     33  C   UNL     1     -12.006 -10.636  19.421  0.00  0.00    +0.004 A 
BRANCH  29   4
ATOM      4  O   UNL     1      -8.453 -11.248  20.006  0.00  0.00    -0.493 OA
ATOM     34  C   UNL     1      -8.245 -12.655  19.915  0.00  0.00    +0.277 C 
ENDBRANCH  29   4
ENDBRANCH   8  28
ENDBRANCH  19   7
BRANCH  18  21
ATOM     21  C   UNL     1      -4.387 -14.876  14.480  0.00  0.00    +0.037 A 
ATOM     22  C   UNL     1      -4.902 -14.215  15.591  0.00  0.00    +0.013 A 
ATOM     23  C   UNL     1      -3.781 -16.123  14.622  0.00  0.00    +0.013 A 
ATOM     25  C   UNL     1      -4.811 -14.802  16.853  0.00  0.00    +0.001 A 
ATOM     26  C   UNL     1      -3.689 -16.710  15.884  0.00  0.00    +0.001 A 
ATOM     27  C   UNL     1      -4.204 -16.049  16.999  0.00  0.00    +0.000 A 
ENDBRANCH  18  21
TORSDOF 4
ENDMDL
MODEL 4
REMARK VINA RESULT:      -7.5      3.882      8.721
REMARK  Name = 11884543
REMARK  5 active torsions:
REMARK  status: ('A' for Active; 'I' for Inactive)
REMARK    1  A    between atoms: O_4  and  C_29
REMARK    2  A    between atoms: O_4  and  C_34
REMARK    3  A    between atoms: N_7  and  C_19
REMARK    4  A    between atoms: N_8  and  C_28
REMARK    5  A    between atoms: C_18  and  C_21
REMARK                            x       y       z     vdW  Elec       q    Type
REMARK                         _______ _______ _______ _____ _____    ______ ____
ROOT
ATOM      1  O   UNL     1      13.727  11.883  18.272  0.00  0.00    -0.266 OA
ATOM      2  O   UNL     1      15.656   9.141  22.213  0.00  0.00    -0.270 OA
ATOM      5  N   UNL     1      13.785   7.995  21.400  0.00  0.00    -0.297 N 
ATOM      6  N   UNL     1      12.933   9.784  18.922  0.00  0.00    -0.310 N 
ATOM      9  C   UNL     1      11.735   9.386  21.151  0.00  0.00    +0.027 C 
ATOM     10  C   UNL     1      12.128   7.500  19.618  0.00  0.00    +0.054 C 
ATOM     11  C   UNL     1      11.053   8.236  20.417  0.00  0.00    +0.018 C 
ATOM     12  C   UNL     1      12.822   8.848  22.099  0.00  0.00    +0.113 C 
ATOM     13  C   UNL     1      12.304  10.365  20.117  0.00  0.00    +0.130 C 
ATOM     14  C   UNL     1      13.187   6.929  20.581  0.00  0.00    +0.117 C 
ATOM     15  C   UNL     1      12.793   8.425  18.617  0.00  0.00    +0.027 A 
ATOM     16  C   UNL     1      13.278   7.938  17.462  0.00  0.00    +0.024 A 
ATOM     17  C   UNL     1      13.594  10.677  18.055  0.00  0.00    +0.273 A 
ATOM     18  C   UNL     1      15.152   8.251  21.530  0.00  0.00    +0.247 C 
ATOM     19  C   UNL     1      14.144  10.089  16.793  0.00  0.00    +0.100 A 
ATOM     20  C   UNL     1      13.968   8.789  16.535  0.00  0.00    +0.030 A 
ENDROOT
BRANCH  19   7
ATOM      3  O   UNL     1      13.132  11.131  14.347  0.00  0.00    -0.252 OA
ATOM      7  N   UNL     1      14.807  10.918  15.936  0.00  0.00    -0.265 N 
ATOM      8  N   UNL     1      15.191  12.229  14.092  0.00  0.00    -0.266 N 
ATOM     24  C   UNL     1      14.263  11.406  14.741  0.00  0.00    +0.308 C 
ATOM     35  H   UNL     1      15.815  10.985  16.048  0.00  0.00    +0.157 HD
ATOM     36  H   UNL     1      16.089  12.354  14.551  0.00  0.00    +0.156 HD
BRANCH   8  28
ATOM     28  C   UNL     1      15.035  12.913  12.863  0.00  0.00    +0.077 A 
ATOM     29  C   UNL     1      14.311  14.093  12.814  0.00  0.00    +0.141 A 
ATOM     30  C   UNL     1      15.616  12.378  11.724  0.00  0.00    +0.027 A 
ATOM     31  C   UNL     1      14.166  14.757  11.596  0.00  0.00    +0.047 A 
ATOM     32  C   UNL     1      15.471  13.041  10.505  0.00  0.00    +0.002 A 
ATOM     33  C   UNL     1      14.745  14.230  10.442  0.00  0.00    +0.004 A 
BRANCH  29   4
ATOM      4  O   UNL     1      13.737  14.626  13.931  0.00  0.00    -0.493 OA
ATOM     34  C   UNL     1      12.316  14.744  13.933  0.00  0.00    +0.277 C 
ENDBRANCH  29   4
ENDBRANCH   8  28
ENDBRANCH  19   7
BRANCH  18  21
ATOM     21  C   UNL     1      16.083   7.404  20.779  0.00  0.00    +0.037 A 
ATOM     22  C   UNL     1      15.726   6.931  19.518  0.00  0.00    +0.013 A 
ATOM     23  C   UNL     1      17.321   7.077  21.328  0.00  0.00    +0.013 A 
ATOM     25  C   UNL     1      16.613   6.126  18.803  0.00  0.00    +0.001 A 
ATOM     26  C   UNL     1      18.207   6.273  20.612  0.00  0.00    +0.001 A 
ATOM     27  C   UNL     1      17.853   5.797  19.350  0.00  0.00    +0.000 A 
ENDBRANCH  18  21
TORSDOF 4
ENDMDL
MODEL 5
REMARK VINA RESULT:      -7.1     16.129     18.953
REMARK  Name = 11884543
REMARK  5 active torsions:
REMARK  status: ('A' for Active; 'I' for Inactive)
REMARK    1  A    between atoms: O_4  and  C_29
REMARK    2  A    between atoms: O_4  and  C_34
REMARK    3  A    between atoms: N_7  and  C_19
REMARK    4  A    between atoms: N_8  and  C_28
REMARK    5  A    between atoms: C_18  and  C_21
REMARK                            x       y       z     vdW  Elec       q    Type
REMARK                         _______ _______ _______ _____ _____    ______ ____
ROOT
ATOM      1  O   UNL     1      11.891   9.324   2.463  0.00  0.00    -0.266 OA
ATOM      2  O   UNL     1      12.656   7.518   7.250  0.00  0.00    -0.270 OA
ATOM      5  N   UNL     1      10.611   8.655   7.239  0.00  0.00    -0.297 N 
ATOM      6  N   UNL     1      10.325   9.482   4.190  0.00  0.00    -0.310 N 
ATOM      9  C   UNL     1      10.693  10.943   6.262  0.00  0.00    +0.027 C 
ATOM     10  C   UNL     1       8.640   9.598   6.059  0.00  0.00    +0.054 C 
ATOM     11  C   UNL     1       9.170  11.010   6.311  0.00  0.00    +0.018 C 
ATOM     12  C   UNL     1      11.222   9.980   7.340  0.00  0.00    +0.113 C 
ATOM     13  C   UNL     1      11.125  10.523   4.852  0.00  0.00    +0.130 C 
ATOM     14  C   UNL     1       9.141   8.654   7.169  0.00  0.00    +0.117 C 
ATOM     15  C   UNL     1       9.089   9.080   4.706  0.00  0.00    +0.027 A 
ATOM     16  C   UNL     1       8.321   8.213   4.025  0.00  0.00    +0.024 A 
ATOM     17  C   UNL     1      10.817   8.988   2.965  0.00  0.00    +0.273 A 
ATOM     18  C   UNL     1      11.427   7.522   7.193  0.00  0.00    +0.247 C 
ATOM     19  C   UNL     1       9.945   8.002   2.252  0.00  0.00    +0.100 A 
ATOM     20  C   UNL     1       8.762   7.663   2.774  0.00  0.00    +0.030 A 
ENDROOT
BRANCH  19   7
ATOM      3  O   UNL     1      10.251   5.242   1.639  0.00  0.00    -0.252 OA
ATOM      7  N   UNL     1      10.395   7.485   1.072  0.00  0.00    -0.265 N 
ATOM      8  N   UNL     1      11.011   5.910  -0.479  0.00  0.00    -0.266 N 
ATOM     24  C   UNL     1      10.528   6.114   0.819  0.00  0.00    +0.308 C 
ATOM     35  H   UNL     1      10.881   8.122   0.446  0.00  0.00    +0.157 HD
ATOM     36  H   UNL     1      11.193   6.742  -1.034  0.00  0.00    +0.156 HD
BRANCH   8  28
ATOM     28  C   UNL     1      11.284   4.679  -1.121  0.00  0.00    +0.077 A 
ATOM     29  C   UNL     1      12.362   3.909  -0.714  0.00  0.00    +0.141 A 
ATOM     30  C   UNL     1      10.456   4.269  -2.154  0.00  0.00    +0.027 A 
ATOM     31  C   UNL     1      12.619   2.698  -1.356  0.00  0.00    +0.047 A 
ATOM     32  C   UNL     1      10.713   3.058  -2.797  0.00  0.00    +0.002 A 
ATOM     33  C   UNL     1      11.794   2.273  -2.397  0.00  0.00    +0.004 A 
BRANCH  29   4
ATOM      4  O   UNL     1      13.180   4.306   0.302  0.00  0.00    -0.493 OA
ATOM     34  C   UNL     1      13.314   3.418   1.409  0.00  0.00    +0.277 C 
ENDBRANCH  29   4
ENDBRANCH   8  28
ENDBRANCH  19   7
BRANCH  18  21
ATOM     21  C   UNL     1      10.780   6.215   7.044  0.00  0.00    +0.037 A 
ATOM     22  C   UNL     1      10.497   5.722   5.773  0.00  0.00    +0.013 A 
ATOM     23  C   UNL     1      10.453   5.471   8.176  0.00  0.00    +0.013 A 
ATOM     25  C   UNL     1       9.882   4.478   5.632  0.00  0.00    +0.001 A 
ATOM     26  C   UNL     1       9.838   4.228   8.035  0.00  0.00    +0.001 A 
ATOM     27  C   UNL     1       9.553   3.731   6.763  0.00  0.00    +0.000 A 
ENDBRANCH  18  21
TORSDOF 4
ENDMDL
MODEL 6
REMARK VINA RESULT:      -7.0     28.549     31.662
REMARK  Name = 11884543
REMARK  5 active torsions:
REMARK  status: ('A' for Active; 'I' for Inactive)
REMARK    1  A    between atoms: O_4  and  C_29
REMARK    2  A    between atoms: O_4  and  C_34
REMARK    3  A    between atoms: N_7  and  C_19
REMARK    4  A    between atoms: N_8  and  C_28
REMARK    5  A    between atoms: C_18  and  C_21
REMARK                            x       y       z     vdW  Elec       q    Type
REMARK                         _______ _______ _______ _____ _____    ______ ____
ROOT
ATOM      1  O   UNL     1      -5.166 -11.451  16.619  0.00  0.00    -0.266 OA
ATOM      2  O   UNL     1      -1.795 -10.093  12.937  0.00  0.00    -0.270 OA
ATOM      5  N   UNL     1      -2.755 -12.131  12.303  0.00  0.00    -0.297 N 
ATOM      6  N   UNL     1      -4.871 -12.618  14.617  0.00  0.00    -0.310 N 
ATOM      9  C   UNL     1      -2.720 -13.893  14.061  0.00  0.00    +0.027 C 
ATOM     10  C   UNL     1      -4.562 -13.829  12.429  0.00  0.00    +0.054 C 
ATOM     11  C   UNL     1      -3.626 -14.763  13.197  0.00  0.00    +0.018 C 
ATOM     12  C   UNL     1      -1.901 -12.931  13.181  0.00  0.00    +0.113 C 
ATOM     13  C   UNL     1      -3.582 -13.146  15.086  0.00  0.00    +0.130 C 
ATOM     14  C   UNL     1      -3.734 -12.901  11.520  0.00  0.00    +0.117 C 
ATOM     15  C   UNL     1      -5.402 -12.997  13.379  0.00  0.00    +0.027 A 
ATOM     16  C   UNL     1      -6.633 -12.596  13.020  0.00  0.00    +0.024 A 
ATOM     17  C   UNL     1      -5.585 -11.798  15.513  0.00  0.00    +0.273 A 
ATOM     18  C   UNL     1      -2.611 -10.741  12.283  0.00  0.00    +0.247 C 
ATOM     19  C   UNL     1      -6.940 -11.349  15.063  0.00  0.00    +0.100 A 
ATOM     20  C   UNL     1      -7.414 -11.753  13.881  0.00  0.00    +0.030 A 
ENDROOT
BRANCH  19   7
ATOM      3  O   UNL     1      -9.245 -12.090  16.556  0.00  0.00    -0.252 OA
ATOM      7  N   UNL     1      -7.655 -10.537  15.895  0.00  0.00    -0.265 N 
ATOM      8  N   UNL     1      -9.288  -9.889  17.371  0.00  0.00    -0.266 N 
ATOM     24  C   UNL     1      -8.786 -10.952  16.610  0.00  0.00    +0.308 C 
ATOM     35  H   UNL     1      -7.506  -9.536  15.801  0.00  0.00    +0.157 HD
ATOM     36  H   UNL     1      -8.791  -9.005  17.304  0.00  0.00    +0.156 HD
BRANCH   8  28
ATOM     28  C   UNL     1     -10.414  -9.891  18.228  0.00  0.00    +0.077 A 
ATOM     29  C   UNL     1     -10.316 -10.431  19.500  0.00  0.00    +0.141 A 
ATOM     30  C   UNL     1     -11.603  -9.346  17.767  0.00  0.00    +0.027 A 
ATOM     31  C   UNL     1     -11.434 -10.425  20.334  0.00  0.00    +0.047 A 
ATOM     32  C   UNL     1     -12.722  -9.341  18.601  0.00  0.00    +0.002 A 
ATOM     33  C   UNL     1     -12.636  -9.881  19.884  0.00  0.00    +0.004 A 
BRANCH  29   4
ATOM      4  O   UNL     1      -9.150 -10.968  19.960  0.00  0.00    -0.493 OA
ATOM     34  C   UNL     1      -9.081 -12.389  20.044  0.00  0.00    +0.277 C 
ENDBRANCH  29   4
ENDBRANCH   8  28
ENDBRANCH  19   7
BRANCH  18  21
ATOM     21  C   UNL     1      -3.516  -9.970  11.426  0.00  0.00    +0.037 A 
ATOM     22  C   UNL     1      -3.100  -9.574  10.158  0.00  0.00    +0.013 A 
ATOM     23  C   UNL     1      -4.790  -9.639  11.883  0.00  0.00    +0.013 A 
ATOM     25  C   UNL     1      -3.961  -8.841   9.341  0.00  0.00    +0.001 A 
ATOM     26  C   UNL     1      -5.651  -8.906  11.067  0.00  0.00    +0.001 A 
ATOM     27  C   UNL     1      -5.237  -8.508   9.796  0.00  0.00    +0.000 A 
ENDBRANCH  18  21
TORSDOF 4
ENDMDL
MODEL 7
REMARK VINA RESULT:      -6.8     17.020     19.787
REMARK  Name = 11884543
REMARK  5 active torsions:
REMARK  status: ('A' for Active; 'I' for Inactive)
REMARK    1  A    between atoms: O_4  and  C_29
REMARK    2  A    between atoms: O_4  and  C_34
REMARK    3  A    between atoms: N_7  and  C_19
REMARK    4  A    between atoms: N_8  and  C_28
REMARK    5  A    between atoms: C_18  and  C_21
REMARK                            x       y       z     vdW  Elec       q    Type
REMARK                         _______ _______ _______ _____ _____    ______ ____
ROOT
ATOM      1  O   UNL     1       8.668   7.979   2.446  0.00  0.00    -0.266 OA
ATOM      2  O   UNL     1      11.573  10.390   5.984  0.00  0.00    -0.270 OA
ATOM      5  N   UNL     1      10.964   8.309   6.864  0.00  0.00    -0.297 N 
ATOM      6  N   UNL     1       9.370   7.006   4.450  0.00  0.00    -0.310 N 
ATOM      9  C   UNL     1       8.532   7.793   6.740  0.00  0.00    +0.027 C 
ATOM     10  C   UNL     1      10.179   5.968   6.599  0.00  0.00    +0.054 C 
ATOM     11  C   UNL     1       8.821   6.362   7.180  0.00  0.00    +0.018 C 
ATOM     12  C   UNL     1       9.625   8.745   7.259  0.00  0.00    +0.113 C 
ATOM     13  C   UNL     1       8.417   7.827   5.211  0.00  0.00    +0.130 C 
ATOM     14  C   UNL     1      11.271   6.901   7.160  0.00  0.00    +0.117 C 
ATOM     15  C   UNL     1      10.168   6.048   5.084  0.00  0.00    +0.027 A 
ATOM     16  C   UNL     1      10.947   5.229   4.358  0.00  0.00    +0.024 A 
ATOM     17  C   UNL     1       9.365   7.162   3.050  0.00  0.00    +0.273 A 
ATOM     18  C   UNL     1      11.824   9.213   6.234  0.00  0.00    +0.247 C 
ATOM     19  C   UNL     1      10.267   6.250   2.279  0.00  0.00    +0.100 A 
ATOM     20  C   UNL     1      10.997   5.336   2.927  0.00  0.00    +0.030 A 
ENDROOT
BRANCH  19   7
ATOM      3  O   UNL     1       9.549   4.260   0.378  0.00  0.00    -0.252 OA
ATOM      7  N   UNL     1      10.305   6.383   0.922  0.00  0.00    -0.265 N 
ATOM      8  N   UNL     1      10.089   5.819  -1.292  0.00  0.00    -0.266 N 
ATOM     24  C   UNL     1       9.940   5.370   0.026  0.00  0.00    +0.308 C 
ATOM     35  H   UNL     1      10.850   7.157   0.551  0.00  0.00    +0.157 HD
ATOM     36  H   UNL     1      10.426   6.770  -1.415  0.00  0.00    +0.156 HD
BRANCH   8  28
ATOM     28  C   UNL     1       9.829   5.107  -2.486  0.00  0.00    +0.077 A 
ATOM     29  C   UNL     1      10.712   4.130  -2.917  0.00  0.00    +0.141 A 
ATOM     30  C   UNL     1       8.682   5.407  -3.205  0.00  0.00    +0.027 A 
ATOM     31  C   UNL     1      10.442   3.435  -4.097  0.00  0.00    +0.047 A 
ATOM     32  C   UNL     1       8.412   4.714  -4.385  0.00  0.00    +0.002 A 
ATOM     33  C   UNL     1       9.293   3.728  -4.830  0.00  0.00    +0.004 A 
BRANCH  29   4
ATOM      4  O   UNL     1      11.842   3.828  -2.215  0.00  0.00    -0.493 OA
ATOM     34  C   UNL     1      12.178   2.449  -2.094  0.00  0.00    +0.277 C 
ENDBRANCH  29   4
ENDBRANCH   8  28
ENDBRANCH  19   7
BRANCH  18  21
ATOM     21  C   UNL     1      13.141   8.726   5.811  0.00  0.00    +0.037 A 
ATOM     22  C   UNL     1      13.273   8.043   4.605  0.00  0.00    +0.013 A 
ATOM     23  C   UNL     1      14.254   8.950   6.617  0.00  0.00    +0.013 A 
ATOM     25  C   UNL     1      14.525   7.582   4.202  0.00  0.00    +0.001 A 
ATOM     26  C   UNL     1      15.507   8.488   6.214  0.00  0.00    +0.001 A 
ATOM     27  C   UNL     1      15.643   7.804   5.006  0.00  0.00    +0.000 A 
ENDBRANCH  18  21
TORSDOF 4
ENDMDL
MODEL 8
REMARK VINA RESULT:      -6.7     24.343     29.114
REMARK  Name = 11884543
REMARK  5 active torsions:
REMARK  status: ('A' for Active; 'I' for Inactive)
REMARK    1  A    between atoms: O_4  and  C_29
REMARK    2  A    between atoms: O_4  and  C_34
REMARK    3  A    between atoms: N_7  and  C_19
REMARK    4  A    between atoms: N_8  and  C_28
REMARK    5  A    between atoms: C_18  and  C_21
REMARK                            x       y       z     vdW  Elec       q    Type
REMARK                         _______ _______ _______ _____ _____    ______ ____
ROOT
ATOM      1  O   UNL     1      -4.667   9.578  35.636  0.00  0.00    -0.266 OA
ATOM      2  O   UNL     1      -0.166   7.275  36.736  0.00  0.00    -0.270 OA
ATOM      5  N   UNL     1      -0.379   9.128  38.148  0.00  0.00    -0.297 N 
ATOM      6  N   UNL     1      -3.258  10.220  37.386  0.00  0.00    -0.310 N 
ATOM      9  C   UNL     1      -0.950  11.260  36.996  0.00  0.00    +0.027 C 
ATOM     10  C   UNL     1      -1.742  10.860  39.293  0.00  0.00    +0.054 C 
ATOM     11  C   UNL     1      -1.176  11.922  38.351  0.00  0.00    +0.018 C 
ATOM     12  C   UNL     1       0.042  10.091  37.130  0.00  0.00    +0.113 C 
ATOM     13  C   UNL     1      -2.303  10.807  36.436  0.00  0.00    +0.130 C 
ATOM     14  C   UNL     1      -0.721   9.716  39.453  0.00  0.00    +0.117 C 
ATOM     15  C   UNL     1      -3.052  10.305  38.767  0.00  0.00    +0.027 A 
ATOM     16  C   UNL     1      -3.992   9.866  39.621  0.00  0.00    +0.024 A 
ATOM     17  C   UNL     1      -4.432   9.661  36.843  0.00  0.00    +0.273 A 
ATOM     18  C   UNL     1      -0.450   7.771  37.824  0.00  0.00    +0.247 C 
ATOM     19  C   UNL     1      -5.442   9.157  37.827  0.00  0.00    +0.100 A 
ATOM     20  C   UNL     1      -5.209   9.278  39.137  0.00  0.00    +0.030 A 
ENDROOT
BRANCH  19   7
ATOM      3  O   UNL     1      -7.962  10.445  37.539  0.00  0.00    -0.252 OA
ATOM      7  N   UNL     1      -6.584   8.591  37.339  0.00  0.00    -0.265 N 
ATOM      8  N   UNL     1      -8.777   8.416  36.685  0.00  0.00    -0.266 N 
ATOM     24  C   UNL     1      -7.803   9.270  37.217  0.00  0.00    +0.308 C 
ATOM     35  H   UNL     1      -6.611   7.576  37.295  0.00  0.00    +0.157 HD
ATOM     36  H   UNL     1      -8.483   7.466  36.472  0.00  0.00    +0.156 HD
BRANCH   8  28
ATOM     28  C   UNL     1     -10.132   8.710  36.407  0.00  0.00    +0.077 A 
ATOM     29  C   UNL     1     -10.458   9.525  35.335  0.00  0.00    +0.141 A 
ATOM     30  C   UNL     1     -11.113   8.171  37.225  0.00  0.00    +0.027 A 
ATOM     31  C   UNL     1     -11.799   9.807  35.073  0.00  0.00    +0.047 A 
ATOM     32  C   UNL     1     -12.454   8.453  36.964  0.00  0.00    +0.002 A 
ATOM     33  C   UNL     1     -12.796   9.271  35.887  0.00  0.00    +0.004 A 
BRANCH  29   4
ATOM      4  O   UNL     1      -9.499  10.059  34.526  0.00  0.00    -0.493 OA
ATOM     34  C   UNL     1      -9.707   9.953  33.120  0.00  0.00    +0.277 C 
ENDBRANCH  29   4
ENDBRANCH   8  28
ENDBRANCH  19   7
BRANCH  18  21
ATOM     21  C   UNL     1      -0.921   6.843  38.857  0.00  0.00    +0.037 A 
ATOM     22  C   UNL     1      -2.266   6.832  39.218  0.00  0.00    +0.013 A 
ATOM     23  C   UNL     1      -0.020   5.976  39.472  0.00  0.00    +0.013 A 
ATOM     25  C   UNL     1      -2.713   5.948  40.200  0.00  0.00    +0.001 A 
ATOM     26  C   UNL     1      -0.468   5.092  40.454  0.00  0.00    +0.001 A 
ATOM     27  C   UNL     1      -1.815   5.078  40.818  0.00  0.00    +0.000 A 
ENDBRANCH  18  21
TORSDOF 4
ENDMDL
MODEL 9
REMARK VINA RESULT:      -6.6     21.569     24.095
REMARK  Name = 11884543
REMARK  5 active torsions:
REMARK  status: ('A' for Active; 'I' for Inactive)
REMARK    1  A    between atoms: O_4  and  C_29
REMARK    2  A    between atoms: O_4  and  C_34
REMARK    3  A    between atoms: N_7  and  C_19
REMARK    4  A    between atoms: N_8  and  C_28
REMARK    5  A    between atoms: C_18  and  C_21
REMARK                            x       y       z     vdW  Elec       q    Type
REMARK                         _______ _______ _______ _____ _____    ______ ____
ROOT
ATOM      1  O   UNL     1       5.955  -9.708  34.538  0.00  0.00    -0.266 OA
ATOM      2  O   UNL     1      10.179 -12.486  33.441  0.00  0.00    -0.270 OA
ATOM      5  N   UNL     1       8.844 -12.436  31.520  0.00  0.00    -0.297 N 
ATOM      6  N   UNL     1       6.457 -10.550  32.418  0.00  0.00    -0.310 N 
ATOM      9  C   UNL     1       6.461 -13.056  31.888  0.00  0.00    +0.027 C 
ATOM     10  C   UNL     1       7.047 -11.432  30.132  0.00  0.00    +0.054 C 
ATOM     11  C   UNL     1       6.135 -12.613  30.466  0.00  0.00    +0.018 C 
ATOM     12  C   UNL     1       7.937 -13.483  31.991  0.00  0.00    +0.113 C 
ATOM     13  C   UNL     1       6.123 -11.913  32.853  0.00  0.00    +0.130 C 
ATOM     14  C   UNL     1       8.519 -11.883  30.196  0.00  0.00    +0.117 C 
ATOM     15  C   UNL     1       6.823 -10.281  31.094  0.00  0.00    +0.027 A 
ATOM     16  C   UNL     1       7.011  -9.014  30.689  0.00  0.00    +0.024 A 
ATOM     17  C   UNL     1       6.292  -9.522  33.368  0.00  0.00    +0.273 A 
ATOM     18  C   UNL     1       9.904 -12.028  32.334  0.00  0.00    +0.247 C 
ATOM     19  C   UNL     1       6.539  -8.127  32.883  0.00  0.00    +0.100 A 
ATOM     20  C   UNL     1       6.867  -7.917  31.605  0.00  0.00    +0.030 A 
ENDROOT
BRANCH  19   7
ATOM      3  O   UNL     1       8.646  -6.903  34.349  0.00  0.00    -0.252 OA
ATOM      7  N   UNL     1       6.408  -7.106  33.779  0.00  0.00    -0.265 N 
ATOM      8  N   UNL     1       7.019  -5.514  35.314  0.00  0.00    -0.266 N 
ATOM     24  C   UNL     1       7.481  -6.536  34.477  0.00  0.00    +0.308 C 
ATOM     35  H   UNL     1       5.473  -6.921  34.132  0.00  0.00    +0.157 HD
ATOM     36  H   UNL     1       6.019  -5.333  35.305  0.00  0.00    +0.156 HD
BRANCH   8  28
ATOM     28  C   UNL     1       7.777  -4.694  36.183  0.00  0.00    +0.077 A 
ATOM     29  C   UNL     1       7.158  -4.046  37.240  0.00  0.00    +0.141 A 
ATOM     30  C   UNL     1       9.137  -4.557  35.952  0.00  0.00    +0.027 A 
ATOM     31  C   UNL     1       7.919  -3.241  38.089  0.00  0.00    +0.047 A 
ATOM     32  C   UNL     1       9.898  -3.751  36.800  0.00  0.00    +0.002 A 
ATOM     33  C   UNL     1       9.287  -3.094  37.868  0.00  0.00    +0.004 A 
BRANCH  29   4
ATOM      4  O   UNL     1       5.821  -4.176  37.474  0.00  0.00    -0.493 OA
ATOM     34  C   UNL     1       4.994  -3.067  37.133  0.00  0.00    +0.277 C 
ENDBRANCH  29   4
ENDBRANCH   8  28
ENDBRANCH  19   7
BRANCH  18  21
ATOM     21  C   UNL     1      10.764 -10.944  31.848  0.00  0.00    +0.037 A 
ATOM     22  C   UNL     1      11.872 -11.240  31.058  0.00  0.00    +0.013 A 
ATOM     23  C   UNL     1      10.467  -9.623  32.176  0.00  0.00    +0.013 A 
ATOM     25  C   UNL     1      12.689 -10.209  30.595  0.00  0.00    +0.001 A 
ATOM     26  C   UNL     1      11.284  -8.592  31.713  0.00  0.00    +0.001 A 
ATOM     27  C   UNL     1      12.395  -8.885  30.922  0.00  0.00    +0.000 A 
ENDBRANCH  18  21
TORSDOF 4
ENDMDL
MODEL 10
REMARK VINA RESULT:      -6.5     28.173     31.612
REMARK  Name = 11884543
REMARK  5 active torsions:
REMARK  status: ('A' for Active; 'I' for Inactive)
REMARK    1  A    between atoms: O_4  and  C_29
REMARK    2  A    between atoms: O_4  and  C_34
REMARK    3  A    between atoms: N_7  and  C_19
REMARK    4  A    between atoms: N_8  and  C_28
REMARK    5  A    between atoms: C_18  and  C_21
REMARK                            x       y       z     vdW  Elec       q    Type
REMARK                         _______ _______ _______ _____ _____    ______ ____
ROOT
ATOM      1  O   UNL     1      -7.298 -14.712  17.016  0.00  0.00    -0.266 OA
ATOM      2  O   UNL     1     -11.702 -12.137  16.155  0.00  0.00    -0.270 OA
ATOM      5  N   UNL     1     -11.342 -12.172  18.466  0.00  0.00    -0.297 N 
ATOM      6  N   UNL     1      -8.533 -13.632  18.679  0.00  0.00    -0.310 N 
ATOM      9  C   UNL     1     -10.856 -14.423  19.413  0.00  0.00    +0.027 C 
ATOM     10  C   UNL     1      -9.861 -12.421  20.445  0.00  0.00    +0.054 C 
ATOM     11  C   UNL     1     -10.500 -13.777  20.747  0.00  0.00    +0.018 C 
ATOM     12  C   UNL     1     -11.845 -13.536  18.634  0.00  0.00    +0.113 C 
ATOM     13  C   UNL     1      -9.565 -14.677  18.626  0.00  0.00    +0.130 C 
ATOM     14  C   UNL     1     -10.875 -11.527  19.704  0.00  0.00    +0.117 C 
ATOM     15  C   UNL     1      -8.611 -12.583  19.602  0.00  0.00    +0.027 A 
ATOM     16  C   UNL     1      -7.601 -11.704  19.714  0.00  0.00    +0.024 A 
ATOM     17  C   UNL     1      -7.420 -13.795  17.831  0.00  0.00    +0.273 A 
ATOM     18  C   UNL     1     -11.314 -11.601  17.192  0.00  0.00    +0.247 C 
ATOM     19  C   UNL     1      -6.329 -12.779  17.967  0.00  0.00    +0.100 A 
ATOM     20  C   UNL     1      -6.439 -11.806  18.876  0.00  0.00    +0.030 A 
ENDROOT
BRANCH  19   7
ATOM      3  O   UNL     1      -5.847 -11.274  15.602  0.00  0.00    -0.252 OA
ATOM      7  N   UNL     1      -5.243 -12.892  17.149  0.00  0.00    -0.265 N 
ATOM      8  N   UNL     1      -3.845 -12.478  15.377  0.00  0.00    -0.266 N 
ATOM     24  C   UNL     1      -5.052 -12.125  15.992  0.00  0.00    +0.308 C 
ATOM     35  H   UNL     1      -4.677 -13.730  17.249  0.00  0.00    +0.157 HD
ATOM     36  H   UNL     1      -3.298 -13.206  15.829  0.00  0.00    +0.156 HD
BRANCH   8  28
ATOM     28  C   UNL     1      -3.285 -11.943  14.193  0.00  0.00    +0.077 A 
ATOM     29  C   UNL     1      -2.485 -10.813  14.252  0.00  0.00    +0.141 A 
ATOM     30  C   UNL     1      -3.555 -12.570  12.986  0.00  0.00    +0.027 A 
ATOM     31  C   UNL     1      -1.940 -10.298  13.076  0.00  0.00    +0.047 A 
ATOM     32  C   UNL     1      -3.011 -12.055  11.810  0.00  0.00    +0.002 A 
ATOM     33  C   UNL     1      -2.204 -10.918  11.856  0.00  0.00    +0.004 A 
BRANCH  29   4
ATOM      4  O   UNL     1      -2.215 -10.191  15.436  0.00  0.00    -0.493 OA
ATOM     34  C   UNL     1      -0.883 -10.297  15.932  0.00  0.00    +0.277 C 
ENDBRANCH  29   4
ENDBRANCH   8  28
ENDBRANCH  19   7
BRANCH  18  21
ATOM     21  C   UNL     1     -10.761 -10.251  17.057  0.00  0.00    +0.037 A 
ATOM     22  C   UNL     1     -11.604  -9.145  17.130  0.00  0.00    +0.013 A 
ATOM     23  C   UNL     1      -9.392 -10.079  16.859  0.00  0.00    +0.013 A 
ATOM     25  C   UNL     1     -11.077  -7.860  17.004  0.00  0.00    +0.001 A 
ATOM     26  C   UNL     1      -8.865  -8.794  16.732  0.00  0.00    +0.001 A 
ATOM     27  C   UNL     1      -9.707  -7.685  16.805  0.00  0.00    +0.000 A 
ENDBRANCH  18  21
TORSDOF 4
ENDMDL
