MODEL 1
REMARK VINA RESULT:      -6.1      0.000      0.000
REMARK  Name = 45783454
REMARK  9 active torsions:
REMARK  status: ('A' for Active; 'I' for Inactive)
REMARK    1  A    between atoms: O_3  and  C_22
REMARK    2  A    between atoms: O_3  and  C_25
REMARK    3  A    between atoms: O_4  and  C_26
REMARK    4  A    between atoms: O_4  and  C_27
REMARK    5  A    between atoms: N_5  and  C_13
REMARK    6  A    between atoms: C_9  and  C_14
REMARK    7  A    between atoms: C_13  and  C_15
REMARK    8  A    between atoms: C_17  and  C_20
REMARK    9  A    between atoms: C_25  and  C_26
REMARK                            x       y       z     vdW  Elec       q    Type
REMARK                         _______ _______ _______ _____ _____    ______ ____
ROOT
ATOM      2  O   UNL     1      -4.182 -11.315  17.861  0.00  0.00    -0.336 OA
ATOM      6  N   UNL     1      -5.458 -10.510  16.206  0.00  0.00    -0.189 NA
ATOM      7  N   UNL     1      -5.417 -11.000  18.440  0.00  0.00    -0.054 NA
ATOM     14  C   UNL     1      -4.291 -10.996  16.544  0.00  0.00    +0.245 A 
ATOM     17  C   UNL     1      -6.116 -10.531  17.401  0.00  0.00    +0.221 A 
ENDROOT
BRANCH  17  20
ATOM      8  N   UNL     1      -8.245 -10.771  18.387  0.00  0.00    -0.252 NA
ATOM     20  C   UNL     1      -7.470 -10.074  17.524  0.00  0.00    +0.115 A 
ATOM     21  C   UNL     1      -7.911  -8.987  16.789  0.00  0.00    +0.077 A 
ATOM     22  C   UNL     1      -9.233  -8.587  16.946  0.00  0.00    +0.124 A 
ATOM     23  C   UNL     1      -9.526 -10.352  18.513  0.00  0.00    +0.115 A 
ATOM     24  C   UNL     1     -10.062  -9.278  17.823  0.00  0.00    +0.065 A 
BRANCH  22   3
ATOM      3  O   UNL     1      -9.714  -7.525  16.246  0.00  0.00    -0.490 OA
BRANCH   3  25
ATOM     25  C   UNL     1     -10.893  -6.897  16.746  0.00  0.00    +0.257 C 
BRANCH  25  26
ATOM     26  C   UNL     1     -11.729  -6.411  15.578  0.00  0.00    +0.200 C 
BRANCH  26   4
ATOM      4  O   UNL     1     -13.093  -6.349  15.977  0.00  0.00    -0.380 OA
ATOM     27  C   UNL     1     -13.961  -6.279  14.855  0.00  0.00    +0.194 C 
ENDBRANCH  26   4
ENDBRANCH  25  26
ENDBRANCH   3  25
ENDBRANCH  22   3
ENDBRANCH  17  20
BRANCH  14   9
ATOM      5  N   UNL     1      -3.118 -10.521  14.402  0.00  0.00    -0.287 NA
ATOM      9  C   UNL     1      -3.070 -11.249  15.686  0.00  0.00    +0.146 C 
ATOM     10  C   UNL     1      -1.765 -10.776  16.354  0.00  0.00    +0.030 C 
ATOM     11  C   UNL     1      -1.121  -9.833  15.346  0.00  0.00    +0.017 C 
ATOM     12  C   UNL     1      -1.729 -10.255  14.025  0.00  0.00    +0.085 C 
BRANCH   5  13
ATOM     13  C   UNL     1      -3.841 -11.240  13.361  0.00  0.00    +0.127 C 
BRANCH  13  15
ATOM      1  S   UNL     1      -5.962  -9.651  12.517  0.00  0.00    -0.100 S 
ATOM     15  C   UNL     1      -4.394 -10.308  12.316  0.00  0.00    +0.004 A 
ATOM     16  C   UNL     1      -3.798  -9.875  11.151  0.00  0.00    +0.012 A 
ATOM     18  C   UNL     1      -4.640  -8.994  10.415  0.00  0.00    +0.008 A 
ATOM     19  C   UNL     1      -5.847  -8.785  11.044  0.00  0.00    +0.045 A 
ENDBRANCH  13  15
ENDBRANCH   5  13
ENDBRANCH  14   9
TORSDOF 8
ENDMDL
MODEL 2
REMARK VINA RESULT:      -5.9     18.318     19.753
REMARK  Name = 45783454
REMARK  9 active torsions:
REMARK  status: ('A' for Active; 'I' for Inactive)
REMARK    1  A    between atoms: O_3  and  C_22
REMARK    2  A    between atoms: O_3  and  C_25
REMARK    3  A    between atoms: O_4  and  C_26
REMARK    4  A    between atoms: O_4  and  C_27
REMARK    5  A    between atoms: N_5  and  C_13
REMARK    6  A    between atoms: C_9  and  C_14
REMARK    7  A    between atoms: C_13  and  C_15
REMARK    8  A    between atoms: C_17  and  C_20
REMARK    9  A    between atoms: C_25  and  C_26
REMARK                            x       y       z     vdW  Elec       q    Type
REMARK                         _______ _______ _______ _____ _____    ______ ____
ROOT
ATOM      2  O   UNL     1     -16.552   3.536  22.194  0.00  0.00    -0.336 OA
ATOM      6  N   UNL     1     -16.656   4.660  24.129  0.00  0.00    -0.189 NA
ATOM      7  N   UNL     1     -16.481   2.573  23.209  0.00  0.00    -0.054 NA
ATOM     14  C   UNL     1     -16.653   4.737  22.823  0.00  0.00    +0.245 A 
ATOM     17  C   UNL     1     -16.549   3.313  24.320  0.00  0.00    +0.221 A 
ENDROOT
BRANCH  17  20
ATOM      8  N   UNL     1     -16.845   1.430  25.709  0.00  0.00    -0.252 NA
ATOM     20  C   UNL     1     -16.511   2.739  25.633  0.00  0.00    +0.115 A 
ATOM     21  C   UNL     1     -16.148   3.511  26.724  0.00  0.00    +0.077 A 
ATOM     22  C   UNL     1     -16.128   2.905  27.975  0.00  0.00    +0.124 A 
ATOM     23  C   UNL     1     -16.814   0.874  26.942  0.00  0.00    +0.115 A 
ATOM     24  C   UNL     1     -16.466   1.561  28.094  0.00  0.00    +0.065 A 
BRANCH  22   3
ATOM      3  O   UNL     1     -15.779   3.621  29.077  0.00  0.00    -0.490 OA
BRANCH   3  25
ATOM     25  C   UNL     1     -15.402   2.883  30.238  0.00  0.00    +0.257 C 
BRANCH  25  26
ATOM     26  C   UNL     1     -13.889   2.859  30.339  0.00  0.00    +0.200 C 
BRANCH  26   4
ATOM      4  O   UNL     1     -13.489   1.687  31.040  0.00  0.00    -0.380 OA
ATOM     27  C   UNL     1     -13.681   0.519  30.255  0.00  0.00    +0.194 C 
ENDBRANCH  26   4
ENDBRANCH  25  26
ENDBRANCH   3  25
ENDBRANCH  22   3
ENDBRANCH  17  20
BRANCH  14   9
ATOM      5  N   UNL     1     -15.464   6.282  21.277  0.00  0.00    -0.287 NA
ATOM      9  C   UNL     1     -16.746   5.958  21.932  0.00  0.00    +0.146 C 
ATOM     10  C   UNL     1     -17.741   5.773  20.772  0.00  0.00    +0.030 C 
ATOM     11  C   UNL     1     -16.943   6.072  19.510  0.00  0.00    +0.017 C 
ATOM     12  C   UNL     1     -15.799   6.931  20.009  0.00  0.00    +0.085 C 
BRANCH   5  13
ATOM     13  C   UNL     1     -14.590   7.108  22.101  0.00  0.00    +0.127 C 
BRANCH  13  15
ATOM      1  S   UNL     1     -13.112   9.175  20.970  0.00  0.00    -0.100 S 
ATOM     15  C   UNL     1     -13.349   7.524  21.359  0.00  0.00    +0.004 A 
ATOM     16  C   UNL     1     -12.309   6.736  20.916  0.00  0.00    +0.012 A 
ATOM     18  C   UNL     1     -11.306   7.496  20.249  0.00  0.00    +0.008 A 
ATOM     19  C   UNL     1     -11.616   8.838  20.207  0.00  0.00    +0.045 A 
ENDBRANCH  13  15
ENDBRANCH   5  13
ENDBRANCH  14   9
TORSDOF 8
ENDMDL
MODEL 3
REMARK VINA RESULT:      -5.8     25.002     27.697
REMARK  Name = 45783454
REMARK  9 active torsions:
REMARK  status: ('A' for Active; 'I' for Inactive)
REMARK    1  A    between atoms: O_3  and  C_22
REMARK    2  A    between atoms: O_3  and  C_25
REMARK    3  A    between atoms: O_4  and  C_26
REMARK    4  A    between atoms: O_4  and  C_27
REMARK    5  A    between atoms: N_5  and  C_13
REMARK    6  A    between atoms: C_9  and  C_14
REMARK    7  A    between atoms: C_13  and  C_15
REMARK    8  A    between atoms: C_17  and  C_20
REMARK    9  A    between atoms: C_25  and  C_26
REMARK                            x       y       z     vdW  Elec       q    Type
REMARK                         _______ _______ _______ _____ _____    ______ ____
ROOT
ATOM      2  O   UNL     1      11.213   6.997   3.967  0.00  0.00    -0.336 OA
ATOM      6  N   UNL     1      10.961   4.796   3.633  0.00  0.00    -0.189 NA
ATOM      7  N   UNL     1      11.748   6.731   2.701  0.00  0.00    -0.054 NA
ATOM     14  C   UNL     1      10.772   5.803   4.447  0.00  0.00    +0.245 A 
ATOM     17  C   UNL     1      11.563   5.414   2.575  0.00  0.00    +0.221 A 
ENDROOT
BRANCH  17  20
ATOM      8  N   UNL     1      13.283   4.373   1.341  0.00  0.00    -0.252 NA
ATOM     20  C   UNL     1      11.968   4.685   1.408  0.00  0.00    +0.115 A 
ATOM     21  C   UNL     1      11.040   4.343   0.439  0.00  0.00    +0.077 A 
ATOM     22  C   UNL     1      11.486   3.637  -0.672  0.00  0.00    +0.124 A 
ATOM     23  C   UNL     1      13.681   3.687   0.246  0.00  0.00    +0.115 A 
ATOM     24  C   UNL     1      12.831   3.299  -0.778  0.00  0.00    +0.065 A 
BRANCH  22   3
ATOM      3  O   UNL     1      10.613   3.279  -1.651  0.00  0.00    -0.490 OA
BRANCH   3  25
ATOM     25  C   UNL     1      11.170   2.847  -2.891  0.00  0.00    +0.257 C 
BRANCH  25  26
ATOM     26  C   UNL     1      10.045   2.575  -3.871  0.00  0.00    +0.200 C 
BRANCH  26   4
ATOM      4  O   UNL     1       8.933   3.400  -3.541  0.00  0.00    -0.380 OA
ATOM     27  C   UNL     1       8.862   4.540  -4.385  0.00  0.00    +0.194 C 
ENDBRANCH  26   4
ENDBRANCH  25  26
ENDBRANCH   3  25
ENDBRANCH  22   3
ENDBRANCH  17  20
BRANCH  14   9
ATOM      5  N   UNL     1      10.661   6.910   6.673  0.00  0.00    -0.287 NA
ATOM      9  C   UNL     1      10.139   5.821   5.822  0.00  0.00    +0.146 C 
ATOM     10  C   UNL     1       8.619   6.059   5.774  0.00  0.00    +0.030 C 
ATOM     11  C   UNL     1       8.375   7.262   6.674  0.00  0.00    +0.017 C 
ATOM     12  C   UNL     1       9.580   7.272   7.590  0.00  0.00    +0.085 C 
BRANCH   5  13
ATOM     13  C   UNL     1      11.884   6.550   7.380  0.00  0.00    +0.127 C 
BRANCH  13  15
ATOM      1  S   UNL     1      12.848   9.110   6.872  0.00  0.00    -0.100 S 
ATOM     15  C   UNL     1      13.046   7.411   6.963  0.00  0.00    +0.004 A 
ATOM     16  C   UNL     1      14.323   7.021   6.622  0.00  0.00    +0.012 A 
ATOM     18  C   UNL     1      15.148   8.131   6.281  0.00  0.00    +0.008 A 
ATOM     19  C   UNL     1      14.472   9.327   6.375  0.00  0.00    +0.045 A 
ENDBRANCH  13  15
ENDBRANCH   5  13
ENDBRANCH  14   9
TORSDOF 8
ENDMDL
MODEL 4
REMARK VINA RESULT:      -5.8      1.585      2.188
REMARK  Name = 45783454
REMARK  9 active torsions:
REMARK  status: ('A' for Active; 'I' for Inactive)
REMARK    1  A    between atoms: O_3  and  C_22
REMARK    2  A    between atoms: O_3  and  C_25
REMARK    3  A    between atoms: O_4  and  C_26
REMARK    4  A    between atoms: O_4  and  C_27
REMARK    5  A    between atoms: N_5  and  C_13
REMARK    6  A    between atoms: C_9  and  C_14
REMARK    7  A    between atoms: C_13  and  C_15
REMARK    8  A    between atoms: C_17  and  C_20
REMARK    9  A    between atoms: C_25  and  C_26
REMARK                            x       y       z     vdW  Elec       q    Type
REMARK                         _______ _______ _______ _____ _____    ______ ____
ROOT
ATOM      2  O   UNL     1      -5.099  -9.694  15.802  0.00  0.00    -0.336 OA
ATOM      6  N   UNL     1      -5.231 -11.618  16.941  0.00  0.00    -0.189 NA
ATOM      7  N   UNL     1      -6.286  -9.628  16.542  0.00  0.00    -0.054 NA
ATOM     14  C   UNL     1      -4.540 -10.899  16.095  0.00  0.00    +0.245 A 
ATOM     17  C   UNL     1      -6.294 -10.798  17.188  0.00  0.00    +0.221 A 
ENDROOT
BRANCH  17  20
ATOM      8  N   UNL     1      -7.068 -12.213  18.908  0.00  0.00    -0.252 NA
ATOM     20  C   UNL     1      -7.348 -11.179  18.083  0.00  0.00    +0.115 A 
ATOM     21  C   UNL     1      -8.556 -10.503  18.068  0.00  0.00    +0.077 A 
ATOM     22  C   UNL     1      -9.543 -10.913  18.957  0.00  0.00    +0.124 A 
ATOM     23  C   UNL     1      -8.053 -12.585  19.758  0.00  0.00    +0.115 A 
ATOM     24  C   UNL     1      -9.295 -11.974  19.821  0.00  0.00    +0.065 A 
BRANCH  22   3
ATOM      3  O   UNL     1     -10.747 -10.281  18.981  0.00  0.00    -0.490 OA
BRANCH   3  25
ATOM     25  C   UNL     1     -11.683 -10.628  17.961  0.00  0.00    +0.257 C 
BRANCH  25  26
ATOM     26  C   UNL     1     -11.974  -9.402  17.118  0.00  0.00    +0.200 C 
BRANCH  26   4
ATOM      4  O   UNL     1     -11.280  -8.287  17.665  0.00  0.00    -0.380 OA
ATOM     27  C   UNL     1     -10.648  -7.518  16.652  0.00  0.00    +0.194 C 
ENDBRANCH  26   4
ENDBRANCH  25  26
ENDBRANCH   3  25
ENDBRANCH  22   3
ENDBRANCH  17  20
BRANCH  14   9
ATOM      5  N   UNL     1      -3.063 -10.496  14.133  0.00  0.00    -0.287 NA
ATOM      9  C   UNL     1      -3.227 -11.216  15.411  0.00  0.00    +0.146 C 
ATOM     10  C   UNL     1      -2.004 -10.803  16.251  0.00  0.00    +0.030 C 
ATOM     11  C   UNL     1      -1.183  -9.900  15.341  0.00  0.00    +0.017 C 
ATOM     12  C   UNL     1      -1.625 -10.301  13.949  0.00  0.00    +0.085 C 
BRANCH   5  13
ATOM     13  C   UNL     1      -3.672 -11.187  13.003  0.00  0.00    +0.127 C 
BRANCH  13  15
ATOM      1  S   UNL     1      -5.470  -9.421  11.826  0.00  0.00    -0.100 S 
ATOM     15  C   UNL     1      -3.971 -10.247  11.866  0.00  0.00    +0.004 A 
ATOM     16  C   UNL     1      -3.177  -9.928  10.785  0.00  0.00    +0.012 A 
ATOM     18  C   UNL     1      -3.809  -8.994   9.914  0.00  0.00    +0.008 A 
ATOM     19  C   UNL     1      -5.061  -8.634  10.361  0.00  0.00    +0.045 A 
ENDBRANCH  13  15
ENDBRANCH   5  13
ENDBRANCH  14   9
TORSDOF 8
ENDMDL
MODEL 5
REMARK VINA RESULT:      -5.7      2.753      8.213
REMARK  Name = 45783454
REMARK  9 active torsions:
REMARK  status: ('A' for Active; 'I' for Inactive)
REMARK    1  A    between atoms: O_3  and  C_22
REMARK    2  A    between atoms: O_3  and  C_25
REMARK    3  A    between atoms: O_4  and  C_26
REMARK    4  A    between atoms: O_4  and  C_27
REMARK    5  A    between atoms: N_5  and  C_13
REMARK    6  A    between atoms: C_9  and  C_14
REMARK    7  A    between atoms: C_13  and  C_15
REMARK    8  A    between atoms: C_17  and  C_20
REMARK    9  A    between atoms: C_25  and  C_26
REMARK                            x       y       z     vdW  Elec       q    Type
REMARK                         _______ _______ _______ _____ _____    ______ ____
ROOT
ATOM      2  O   UNL     1      -8.772  -9.892  12.731  0.00  0.00    -0.336 OA
ATOM      6  N   UNL     1      -6.789  -9.794  13.768  0.00  0.00    -0.189 NA
ATOM      7  N   UNL     1      -7.805  -9.840  11.719  0.00  0.00    -0.054 NA
ATOM     14  C   UNL     1      -8.089  -9.860  13.906  0.00  0.00    +0.245 A 
ATOM     17  C   UNL     1      -6.662  -9.784  12.410  0.00  0.00    +0.221 A 
ENDROOT
BRANCH  17  20
ATOM      8  N   UNL     1      -5.278  -8.835  10.752  0.00  0.00    -0.252 NA
ATOM     20  C   UNL     1      -5.378  -9.715  11.774  0.00  0.00    +0.115 A 
ATOM     21  C   UNL     1      -4.337 -10.517  12.211  0.00  0.00    +0.077 A 
ATOM     22  C   UNL     1      -3.114 -10.411  11.559  0.00  0.00    +0.124 A 
ATOM     23  C   UNL     1      -4.073  -8.759  10.141  0.00  0.00    +0.115 A 
ATOM     24  C   UNL     1      -2.972  -9.518  10.503  0.00  0.00    +0.065 A 
BRANCH  22   3
ATOM      3  O   UNL     1      -2.061 -11.177  11.952  0.00  0.00    -0.490 OA
BRANCH   3  25
ATOM     25  C   UNL     1      -2.362 -12.397  12.629  0.00  0.00    +0.257 C 
BRANCH  25  26
ATOM     26  C   UNL     1      -1.474 -12.515  13.852  0.00  0.00    +0.200 C 
BRANCH  26   4
ATOM      4  O   UNL     1      -2.125 -11.901  14.959  0.00  0.00    -0.380 OA
ATOM     27  C   UNL     1      -1.414 -10.759  15.413  0.00  0.00    +0.194 C 
ENDBRANCH  26   4
ENDBRANCH  25  26
ENDBRANCH   3  25
ENDBRANCH  22   3
ENDBRANCH  17  20
BRANCH  14   9
ATOM      5  N   UNL     1      -8.097 -10.068  16.385  0.00  0.00    -0.287 NA
ATOM      9  C   UNL     1      -8.920  -9.907  15.170  0.00  0.00    +0.146 C 
ATOM     10  C   UNL     1      -9.716  -8.610  15.407  0.00  0.00    +0.030 C 
ATOM     11  C   UNL     1      -9.319  -8.149  16.803  0.00  0.00    +0.017 C 
ATOM     12  C   UNL     1      -8.830  -9.417  17.471  0.00  0.00    +0.085 C 
BRANCH   5  13
ATOM     13  C   UNL     1      -7.788 -11.459  16.689  0.00  0.00    +0.127 C 
BRANCH  13  15
ATOM      1  S   UNL     1      -5.087 -10.802  16.796  0.00  0.00    -0.100 S 
ATOM     15  C   UNL     1      -6.474 -11.597  17.410  0.00  0.00    +0.004 A 
ATOM     16  C   UNL     1      -6.196 -12.307  18.558  0.00  0.00    +0.012 A 
ATOM     18  C   UNL     1      -4.827 -12.198  18.937  0.00  0.00    +0.008 A 
ATOM     19  C   UNL     1      -4.110 -11.408  18.066  0.00  0.00    +0.045 A 
ENDBRANCH  13  15
ENDBRANCH   5  13
ENDBRANCH  14   9
TORSDOF 8
ENDMDL
MODEL 6
REMARK VINA RESULT:      -5.7      2.584      7.689
REMARK  Name = 45783454
REMARK  9 active torsions:
REMARK  status: ('A' for Active; 'I' for Inactive)
REMARK    1  A    between atoms: O_3  and  C_22
REMARK    2  A    between atoms: O_3  and  C_25
REMARK    3  A    between atoms: O_4  and  C_26
REMARK    4  A    between atoms: O_4  and  C_27
REMARK    5  A    between atoms: N_5  and  C_13
REMARK    6  A    between atoms: C_9  and  C_14
REMARK    7  A    between atoms: C_13  and  C_15
REMARK    8  A    between atoms: C_17  and  C_20
REMARK    9  A    between atoms: C_25  and  C_26
REMARK                            x       y       z     vdW  Elec       q    Type
REMARK                         _______ _______ _______ _____ _____    ______ ____
ROOT
ATOM      2  O   UNL     1      -7.734 -10.868  15.798  0.00  0.00    -0.336 OA
ATOM      6  N   UNL     1      -6.020 -10.167  17.058  0.00  0.00    -0.189 NA
ATOM      7  N   UNL     1      -6.579 -11.067  15.031  0.00  0.00    -0.054 NA
ATOM     14  C   UNL     1      -7.315 -10.335  16.976  0.00  0.00    +0.245 A 
ATOM     17  C   UNL     1      -5.610 -10.630  15.842  0.00  0.00    +0.221 A 
ENDROOT
BRANCH  17  20
ATOM      8  N   UNL     1      -3.343 -10.666  16.491  0.00  0.00    -0.252 NA
ATOM     20  C   UNL     1      -4.226 -10.641  15.467  0.00  0.00    +0.115 A 
ATOM     21  C   UNL     1      -3.863 -10.628  14.130  0.00  0.00    +0.077 A 
ATOM     22  C   UNL     1      -2.508 -10.639  13.823  0.00  0.00    +0.124 A 
ATOM     23  C   UNL     1      -2.033 -10.676  16.154  0.00  0.00    +0.115 A 
ATOM     24  C   UNL     1      -1.569 -10.663  14.848  0.00  0.00    +0.065 A 
BRANCH  22   3
ATOM      3  O   UNL     1      -2.101 -10.626  12.525  0.00  0.00    -0.490 OA
BRANCH   3  25
ATOM     25  C   UNL     1      -3.114 -10.497  11.528  0.00  0.00    +0.257 C 
BRANCH  25  26
ATOM     26  C   UNL     1      -2.691  -9.440  10.527  0.00  0.00    +0.200 C 
BRANCH  26   4
ATOM      4  O   UNL     1      -3.835  -8.692  10.132  0.00  0.00    -0.380 OA
ATOM     27  C   UNL     1      -4.423  -9.222   8.952  0.00  0.00    +0.194 C 
ENDBRANCH  26   4
ENDBRANCH  25  26
ENDBRANCH   3  25
ENDBRANCH  22   3
ENDBRANCH  17  20
BRANCH  14   9
ATOM      5  N   UNL     1      -9.588  -9.410  17.387  0.00  0.00    -0.287 NA
ATOM      9  C   UNL     1      -8.391 -10.024  17.995  0.00  0.00    +0.146 C 
ATOM     10  C   UNL     1      -8.917 -11.284  18.707  0.00  0.00    +0.030 C 
ATOM     11  C   UNL     1     -10.424 -11.261  18.496  0.00  0.00    +0.017 C 
ATOM     12  C   UNL     1     -10.723  -9.801  18.224  0.00  0.00    +0.085 C 
BRANCH   5  13
ATOM     13  C   UNL     1      -9.484  -7.964  17.246  0.00  0.00    +0.127 C 
BRANCH  13  15
ATOM      1  S   UNL     1     -10.801  -8.304  14.819  0.00  0.00    -0.100 S 
ATOM     15  C   UNL     1     -10.478  -7.424  16.253  0.00  0.00    +0.004 A 
ATOM     16  C   UNL     1     -11.214  -6.261  16.321  0.00  0.00    +0.012 A 
ATOM     18  C   UNL     1     -12.052  -6.090  15.183  0.00  0.00    +0.008 A 
ATOM     19  C   UNL     1     -11.927  -7.128  14.287  0.00  0.00    +0.045 A 
ENDBRANCH  13  15
ENDBRANCH   5  13
ENDBRANCH  14   9
TORSDOF 8
ENDMDL
MODEL 7
REMARK VINA RESULT:      -5.6      3.150      7.438
REMARK  Name = 45783454
REMARK  9 active torsions:
REMARK  status: ('A' for Active; 'I' for Inactive)
REMARK    1  A    between atoms: O_3  and  C_22
REMARK    2  A    between atoms: O_3  and  C_25
REMARK    3  A    between atoms: O_4  and  C_26
REMARK    4  A    between atoms: O_4  and  C_27
REMARK    5  A    between atoms: N_5  and  C_13
REMARK    6  A    between atoms: C_9  and  C_14
REMARK    7  A    between atoms: C_13  and  C_15
REMARK    8  A    between atoms: C_17  and  C_20
REMARK    9  A    between atoms: C_25  and  C_26
REMARK                            x       y       z     vdW  Elec       q    Type
REMARK                         _______ _______ _______ _____ _____    ______ ____
ROOT
ATOM      2  O   UNL     1      -4.520 -12.198  16.707  0.00  0.00    -0.336 OA
ATOM      6  N   UNL     1      -4.760 -10.190  15.745  0.00  0.00    -0.189 NA
ATOM      7  N   UNL     1      -3.912 -12.293  15.450  0.00  0.00    -0.054 NA
ATOM     14  C   UNL     1      -4.994 -10.927  16.801  0.00  0.00    +0.245 A 
ATOM     17  C   UNL     1      -4.094 -11.070  14.943  0.00  0.00    +0.221 A 
ENDROOT
BRANCH  17  20
ATOM      8  N   UNL     1      -2.289 -10.780  13.452  0.00  0.00    -0.252 NA
ATOM     20  C   UNL     1      -3.626 -10.697  13.639  0.00  0.00    +0.115 A 
ATOM     21  C   UNL     1      -4.521 -10.285  12.666  0.00  0.00    +0.077 A 
ATOM     22  C   UNL     1      -4.014  -9.934  11.421  0.00  0.00    +0.124 A 
ATOM     23  C   UNL     1      -1.832 -10.431  12.228  0.00  0.00    +0.115 A 
ATOM     24  C   UNL     1      -2.645 -10.006  11.189  0.00  0.00    +0.065 A 
BRANCH  22   3
ATOM      3  O   UNL     1      -4.853  -9.523  10.432  0.00  0.00    -0.490 OA
BRANCH   3  25
ATOM     25  C   UNL     1      -4.297  -9.387   9.124  0.00  0.00    +0.257 C 
BRANCH  25  26
ATOM     26  C   UNL     1      -4.853 -10.483   8.235  0.00  0.00    +0.200 C 
BRANCH  26   4
ATOM      4  O   UNL     1      -5.211  -9.923   6.977  0.00  0.00    -0.380 OA
ATOM     27  C   UNL     1      -6.607  -9.680   6.893  0.00  0.00    +0.194 C 
ENDBRANCH  26   4
ENDBRANCH  25  26
ENDBRANCH   3  25
ENDBRANCH  22   3
ENDBRANCH  17  20
BRANCH  14   9
ATOM      5  N   UNL     1      -7.169 -10.479  17.923  0.00  0.00    -0.287 NA
ATOM      9  C   UNL     1      -5.704 -10.564  18.087  0.00  0.00    +0.146 C 
ATOM     10  C   UNL     1      -5.496 -11.612  19.197  0.00  0.00    +0.030 C 
ATOM     11  C   UNL     1      -6.898 -12.013  19.634  0.00  0.00    +0.017 C 
ATOM     12  C   UNL     1      -7.751 -10.833  19.218  0.00  0.00    +0.085 C 
BRANCH   5  13
ATOM     13  C   UNL     1      -7.620  -9.174  17.456  0.00  0.00    +0.127 C 
BRANCH  13  15
ATOM      1  S   UNL     1      -9.664 -10.406  16.028  0.00  0.00    -0.100 S 
ATOM     15  C   UNL     1      -9.076  -9.187  17.078  0.00  0.00    +0.004 A 
ATOM     16  C   UNL     1     -10.071  -8.317  17.467  0.00  0.00    +0.012 A 
ATOM     18  C   UNL     1     -11.332  -8.655  16.896  0.00  0.00    +0.008 A 
ATOM     19  C   UNL     1     -11.253  -9.771  16.092  0.00  0.00    +0.045 A 
ENDBRANCH  13  15
ENDBRANCH   5  13
ENDBRANCH  14   9
TORSDOF 8
ENDMDL
MODEL 8
REMARK VINA RESULT:      -5.6     18.555     20.304
REMARK  Name = 45783454
REMARK  9 active torsions:
REMARK  status: ('A' for Active; 'I' for Inactive)
REMARK    1  A    between atoms: O_3  and  C_22
REMARK    2  A    between atoms: O_3  and  C_25
REMARK    3  A    between atoms: O_4  and  C_26
REMARK    4  A    between atoms: O_4  and  C_27
REMARK    5  A    between atoms: N_5  and  C_13
REMARK    6  A    between atoms: C_9  and  C_14
REMARK    7  A    between atoms: C_13  and  C_15
REMARK    8  A    between atoms: C_17  and  C_20
REMARK    9  A    between atoms: C_25  and  C_26
REMARK                            x       y       z     vdW  Elec       q    Type
REMARK                         _______ _______ _______ _____ _____    ______ ____
ROOT
ATOM      2  O   UNL     1     -12.117   6.310  21.191  0.00  0.00    -0.336 OA
ATOM      6  N   UNL     1     -14.297   6.824  21.236  0.00  0.00    -0.189 NA
ATOM      7  N   UNL     1     -12.737   5.314  21.955  0.00  0.00    -0.054 NA
ATOM     14  C   UNL     1     -13.107   7.159  20.806  0.00  0.00    +0.245 A 
ATOM     17  C   UNL     1     -14.020   5.686  21.936  0.00  0.00    +0.221 A 
ENDROOT
BRANCH  17  20
ATOM      8  N   UNL     1     -16.149   4.671  21.867  0.00  0.00    -0.252 NA
ATOM     20  C   UNL     1     -15.049   4.945  22.606  0.00  0.00    +0.115 A 
ATOM     21  C   UNL     1     -14.884   4.555  23.925  0.00  0.00    +0.077 A 
ATOM     22  C   UNL     1     -15.913   3.839  24.526  0.00  0.00    +0.124 A 
ATOM     23  C   UNL     1     -17.129   3.973  22.486  0.00  0.00    +0.115 A 
ATOM     24  C   UNL     1     -17.060   3.539  23.799  0.00  0.00    +0.065 A 
BRANCH  22   3
ATOM      3  O   UNL     1     -15.799   3.434  25.819  0.00  0.00    -0.490 OA
BRANCH   3  25
ATOM     25  C   UNL     1     -16.668   4.046  26.771  0.00  0.00    +0.257 C 
BRANCH  25  26
ATOM     26  C   UNL     1     -16.609   3.265  28.069  0.00  0.00    +0.200 C 
BRANCH  26   4
ATOM      4  O   UNL     1     -15.246   3.054  28.422  0.00  0.00    -0.380 OA
ATOM     27  C   UNL     1     -15.117   2.070  29.438  0.00  0.00    +0.194 C 
ENDBRANCH  26   4
ENDBRANCH  25  26
ENDBRANCH   3  25
ENDBRANCH  22   3
ENDBRANCH  17  20
BRANCH  14   9
ATOM      5  N   UNL     1     -12.150   9.455  20.757  0.00  0.00    -0.287 NA
ATOM      9  C   UNL     1     -12.690   8.339  19.955  0.00  0.00    +0.146 C 
ATOM     10  C   UNL     1     -11.563   7.989  18.965  0.00  0.00    +0.030 C 
ATOM     11  C   UNL     1     -10.459   8.999  19.246  0.00  0.00    +0.017 C 
ATOM     12  C   UNL     1     -11.189  10.152  19.901  0.00  0.00    +0.085 C 
BRANCH   5  13
ATOM     13  C   UNL     1     -13.183  10.350  21.264  0.00  0.00    +0.127 C 
BRANCH  13  15
ATOM      1  S   UNL     1     -14.288   9.771  23.751  0.00  0.00    -0.100 S 
ATOM     15  C   UNL     1     -13.102  10.508  22.759  0.00  0.00    +0.004 A 
ATOM     16  C   UNL     1     -12.165  11.197  23.500  0.00  0.00    +0.012 A 
ATOM     18  C   UNL     1     -12.426  11.118  24.898  0.00  0.00    +0.008 A 
ATOM     19  C   UNL     1     -13.550  10.373  25.174  0.00  0.00    +0.045 A 
ENDBRANCH  13  15
ENDBRANCH   5  13
ENDBRANCH  14   9
TORSDOF 8
ENDMDL
MODEL 9
REMARK VINA RESULT:      -5.6      2.018      2.516
REMARK  Name = 45783454
REMARK  9 active torsions:
REMARK  status: ('A' for Active; 'I' for Inactive)
REMARK    1  A    between atoms: O_3  and  C_22
REMARK    2  A    between atoms: O_3  and  C_25
REMARK    3  A    between atoms: O_4  and  C_26
REMARK    4  A    between atoms: O_4  and  C_27
REMARK    5  A    between atoms: N_5  and  C_13
REMARK    6  A    between atoms: C_9  and  C_14
REMARK    7  A    between atoms: C_13  and  C_15
REMARK    8  A    between atoms: C_17  and  C_20
REMARK    9  A    between atoms: C_25  and  C_26
REMARK                            x       y       z     vdW  Elec       q    Type
REMARK                         _______ _______ _______ _____ _____    ______ ____
ROOT
ATOM      2  O   UNL     1      -7.042 -11.729  14.366  0.00  0.00    -0.336 OA
ATOM      6  N   UNL     1      -6.676 -10.004  15.747  0.00  0.00    -0.189 NA
ATOM      7  N   UNL     1      -8.271 -11.072  14.503  0.00  0.00    -0.054 NA
ATOM     14  C   UNL     1      -6.158 -11.036  15.131  0.00  0.00    +0.245 A 
ATOM     17  C   UNL     1      -7.974 -10.066  15.331  0.00  0.00    +0.221 A 
ENDROOT
BRANCH  17  20
ATOM      8  N   UNL     1      -8.941  -8.821  17.086  0.00  0.00    -0.252 NA
ATOM     20  C   UNL     1      -8.951  -9.109  15.765  0.00  0.00    +0.115 A 
ATOM     21  C   UNL     1      -9.826  -8.542  14.854  0.00  0.00    +0.077 A 
ATOM     22  C   UNL     1     -10.753  -7.620  15.327  0.00  0.00    +0.124 A 
ATOM     23  C   UNL     1      -9.856  -7.920  17.510  0.00  0.00    +0.115 A 
ATOM     24  C   UNL     1     -10.775  -7.298  16.680  0.00  0.00    +0.065 A 
BRANCH  22   3
ATOM      3  O   UNL     1     -11.635  -7.036  14.472  0.00  0.00    -0.490 OA
BRANCH   3  25
ATOM     25  C   UNL     1     -12.157  -5.763  14.848  0.00  0.00    +0.257 C 
BRANCH  25  26
ATOM     26  C   UNL     1     -12.967  -5.201  13.696  0.00  0.00    +0.200 C 
BRANCH  26   4
ATOM      4  O   UNL     1     -12.085  -4.844  12.639  0.00  0.00    -0.380 OA
ATOM     27  C   UNL     1     -12.265  -3.493  12.242  0.00  0.00    +0.194 C 
ENDBRANCH  26   4
ENDBRANCH  25  26
ENDBRANCH   3  25
ENDBRANCH  22   3
ENDBRANCH  17  20
BRANCH  14   9
ATOM      5  N   UNL     1      -3.866 -10.861  14.177  0.00  0.00    -0.287 NA
ATOM      9  C   UNL     1      -4.735 -11.552  15.151  0.00  0.00    +0.146 C 
ATOM     10  C   UNL     1      -4.044 -11.337  16.511  0.00  0.00    +0.030 C 
ATOM     11  C   UNL     1      -2.768 -10.570  16.193  0.00  0.00    +0.017 C 
ATOM     12  C   UNL     1      -2.513 -10.892  14.735  0.00  0.00    +0.085 C 
BRANCH   5  13
ATOM     13  C   UNL     1      -3.923 -11.444  12.843  0.00  0.00    +0.127 C 
BRANCH  13  15
ATOM      1  S   UNL     1      -5.412  -9.446  11.607  0.00  0.00    -0.100 S 
ATOM     15  C   UNL     1      -3.992 -10.388  11.772  0.00  0.00    +0.004 A 
ATOM     16  C   UNL     1      -3.031 -10.041  10.847  0.00  0.00    +0.012 A 
ATOM     18  C   UNL     1      -3.468  -8.988   9.992  0.00  0.00    +0.008 A 
ATOM     19  C   UNL     1      -4.744  -8.570  10.295  0.00  0.00    +0.045 A 
ENDBRANCH  13  15
ENDBRANCH   5  13
ENDBRANCH  14   9
TORSDOF 8
ENDMDL
MODEL 10
REMARK VINA RESULT:      -5.6      2.575      3.943
REMARK  Name = 45783454
REMARK  9 active torsions:
REMARK  status: ('A' for Active; 'I' for Inactive)
REMARK    1  A    between atoms: O_3  and  C_22
REMARK    2  A    between atoms: O_3  and  C_25
REMARK    3  A    between atoms: O_4  and  C_26
REMARK    4  A    between atoms: O_4  and  C_27
REMARK    5  A    between atoms: N_5  and  C_13
REMARK    6  A    between atoms: C_9  and  C_14
REMARK    7  A    between atoms: C_13  and  C_15
REMARK    8  A    between atoms: C_17  and  C_20
REMARK    9  A    between atoms: C_25  and  C_26
REMARK                            x       y       z     vdW  Elec       q    Type
REMARK                         _______ _______ _______ _____ _____    ______ ____
ROOT
ATOM      2  O   UNL     1      -1.715 -10.473  14.542  0.00  0.00    -0.336 OA
ATOM      6  N   UNL     1      -3.872 -11.073  14.617  0.00  0.00    -0.189 NA
ATOM      7  N   UNL     1      -2.077 -10.461  15.895  0.00  0.00    -0.054 NA
ATOM     14  C   UNL     1      -2.830 -10.844  13.859  0.00  0.00    +0.245 A 
ATOM     17  C   UNL     1      -3.362 -10.825  15.858  0.00  0.00    +0.221 A 
ENDROOT
BRANCH  17  20
ATOM      8  N   UNL     1      -3.626 -11.690  18.037  0.00  0.00    -0.252 NA
ATOM     20  C   UNL     1      -4.164 -10.949  17.041  0.00  0.00    +0.115 A 
ATOM     21  C   UNL     1      -5.401 -10.332  17.115  0.00  0.00    +0.077 A 
ATOM     22  C   UNL     1      -6.137 -10.485  18.284  0.00  0.00    +0.124 A 
ATOM     23  C   UNL     1      -4.370 -11.816  19.159  0.00  0.00    +0.115 A 
ATOM     24  C   UNL     1      -5.619 -11.240  19.331  0.00  0.00    +0.065 A 
BRANCH  22   3
ATOM      3  O   UNL     1      -7.359  -9.899  18.405  0.00  0.00    -0.490 OA
BRANCH   3  25
ATOM     25  C   UNL     1      -7.875  -9.232  17.254  0.00  0.00    +0.257 C 
BRANCH  25  26
ATOM     26  C   UNL     1      -9.389  -9.315  17.272  0.00  0.00    +0.200 C 
BRANCH  26   4
ATOM      4  O   UNL     1      -9.787 -10.344  18.170  0.00  0.00    -0.380 OA
ATOM     27  C   UNL     1     -10.798  -9.897  19.061  0.00  0.00    +0.194 C 
ENDBRANCH  26   4
ENDBRANCH  25  26
ENDBRANCH   3  25
ENDBRANCH  22   3
ENDBRANCH  17  20
BRANCH  14   9
ATOM      5  N   UNL     1      -3.898 -10.441  11.648  0.00  0.00    -0.287 NA
ATOM      9  C   UNL     1      -2.699 -10.936  12.353  0.00  0.00    +0.146 C 
ATOM     10  C   UNL     1      -1.542 -10.081  11.804  0.00  0.00    +0.030 C 
ATOM     11  C   UNL     1      -2.177  -9.178  10.755  0.00  0.00    +0.017 C 
ATOM     12  C   UNL     1      -3.435  -9.922  10.360  0.00  0.00    +0.085 C 
BRANCH   5  13
ATOM     13  C   UNL     1      -4.933 -11.455  11.491  0.00  0.00    +0.127 C 
BRANCH  13  15
ATOM      1  S   UNL     1      -7.085 -10.327  12.846  0.00  0.00    -0.100 S 
ATOM     15  C   UNL     1      -6.307 -10.847  11.411  0.00  0.00    +0.004 A 
ATOM     16  C   UNL     1      -7.085 -10.629  10.294  0.00  0.00    +0.012 A 
ATOM     18  C   UNL     1      -8.335 -10.030  10.621  0.00  0.00    +0.008 A 
ATOM     19  C   UNL     1      -8.466  -9.811  11.975  0.00  0.00    +0.045 A 
ENDBRANCH  13  15
ENDBRANCH   5  13
ENDBRANCH  14   9
TORSDOF 8
ENDMDL
