MODEL 1
REMARK VINA RESULT:      -7.6      0.000      0.000
REMARK  Name = 40777693
REMARK  10 active torsions:
REMARK  status: ('A' for Active; 'I' for Inactive)
REMARK    1  A    between atoms: O_2  and  C_9
REMARK    2  A    between atoms: O_2  and  C_18
REMARK    3  A    between atoms: N_4  and  C_17
REMARK    4  A    between atoms: N_6  and  C_19
REMARK    5  A    between atoms: C_7  and  C_10
REMARK    6  A    between atoms: C_13  and  C_15
REMARK    7  A    between atoms: C_14  and  C_16
REMARK    8  A    between atoms: C_19  and  C_24
REMARK    9  A    between atoms: C_19  and  C_26
REMARK   10  A    between atoms: C_25  and  C_29
REMARK                            x       y       z     vdW  Elec       q    Type
REMARK                         _______ _______ _______ _____ _____    ______ ____
ROOT
ATOM      7  C   UNL     1     -15.837   6.235  22.188  0.00  0.00    +0.049 C 
ATOM      8  C   UNL     1     -15.790   5.921  23.696  0.00  0.00    +0.061 C 
ATOM      9  C   UNL     1     -16.837   4.827  23.928  0.00  0.00    +0.202 C 
ATOM     11  C   UNL     1     -16.475   5.001  21.619  0.00  0.00    -0.019 C 
ATOM     12  C   UNL     1     -17.013   4.233  22.571  0.00  0.00    +0.013 C 
ENDROOT
BRANCH   7  10
ATOM      4  N   UNL     1     -12.828   7.467  20.501  0.00  0.00    -0.236 N 
ATOM      5  N   UNL     1     -12.244   6.454  21.161  0.00  0.00    -0.171 NA
ATOM     10  C   UNL     1     -14.482   6.565  21.605  0.00  0.00    +0.003 A 
ATOM     13  C   UNL     1     -14.168   7.577  20.732  0.00  0.00    +0.046 A 
ATOM     14  C   UNL     1     -13.259   5.906  21.835  0.00  0.00    +0.064 A 
ATOM     15  C   UNL     1     -15.015   8.618  20.114  0.00  0.00    +0.066 C 
ATOM     16  C   UNL     1     -13.009   4.737  22.698  0.00  0.00    +0.068 C 
BRANCH   4  17
ATOM      1 CL   UNL     1     -10.485   8.084  16.008  0.00  0.00    -0.083 Cl
ATOM     17  C   UNL     1     -12.060   8.287  19.671  0.00  0.00    +0.067 A 
ATOM     20  C   UNL     1     -11.692   7.845  18.401  0.00  0.00    +0.048 A 
ATOM     21  C   UNL     1     -11.660   9.547  20.115  0.00  0.00    +0.028 A 
ATOM     22  C   UNL     1     -10.923   8.663  17.574  0.00  0.00    +0.046 A 
ATOM     23  C   UNL     1     -10.892  10.366  19.288  0.00  0.00    +0.007 A 
ATOM     25  C   UNL     1     -10.523   9.924  18.017  0.00  0.00    -0.032 A 
ATOM     29  C   UNL     1      -9.699  10.831  17.161  0.00  0.00    +0.045 C 
ENDBRANCH   4  17
ENDBRANCH   7  10
BRANCH   9   2
ATOM      2  O   UNL     1     -16.342   3.869  24.847  0.00  0.00    -0.443 OA
BRANCH   2  18
ATOM      3  O   UNL     1     -18.206   3.844  26.188  0.00  0.00    -0.226 OA
ATOM      6  N   UNL     1     -16.071   3.657  27.077  0.00  0.00    -0.275 N 
ATOM     18  C   UNL     1     -16.988   3.794  26.056  0.00  0.00    +0.401 C 
ATOM     33  H   UNL     1     -15.090   3.588  26.823  0.00  0.00    +0.153 HD
BRANCH   6  19
ATOM     19  C   UNL     1     -16.434   3.550  28.472  0.00  0.00    +0.103 C 
ATOM     26  C   UNL     1     -16.485   4.938  29.108  0.00  0.00    +0.033 C 
BRANCH  19  24
ATOM     24  C   UNL     1     -15.516   2.604  29.214  0.00  0.00    -0.027 A 
ATOM     27  C   UNL     1     -15.722   1.226  29.134  0.00  0.00    +0.005 A 
ATOM     28  C   UNL     1     -14.463   3.108  29.977  0.00  0.00    +0.005 A 
ATOM     30  C   UNL     1     -14.875   0.354  29.817  0.00  0.00    +0.000 A 
ATOM     31  C   UNL     1     -13.616   2.236  30.661  0.00  0.00    +0.000 A 
ATOM     32  C   UNL     1     -13.823   0.859  30.581  0.00  0.00    +0.000 A 
ENDBRANCH  19  24
ENDBRANCH   6  19
ENDBRANCH   2  18
ENDBRANCH   9   2
TORSDOF 6
ENDMDL
MODEL 2
REMARK VINA RESULT:      -7.5     18.692     20.339
REMARK  Name = 40777693
REMARK  10 active torsions:
REMARK  status: ('A' for Active; 'I' for Inactive)
REMARK    1  A    between atoms: O_2  and  C_9
REMARK    2  A    between atoms: O_2  and  C_18
REMARK    3  A    between atoms: N_4  and  C_17
REMARK    4  A    between atoms: N_6  and  C_19
REMARK    5  A    between atoms: C_7  and  C_10
REMARK    6  A    between atoms: C_13  and  C_15
REMARK    7  A    between atoms: C_14  and  C_16
REMARK    8  A    between atoms: C_19  and  C_24
REMARK    9  A    between atoms: C_19  and  C_26
REMARK   10  A    between atoms: C_25  and  C_29
REMARK                            x       y       z     vdW  Elec       q    Type
REMARK                         _______ _______ _______ _____ _____    ______ ____
ROOT
ATOM      7  C   UNL     1      -5.241 -12.934  17.963  0.00  0.00    +0.049 C 
ATOM      8  C   UNL     1      -6.690 -12.488  18.240  0.00  0.00    +0.061 C 
ATOM      9  C   UNL     1      -6.654 -11.764  19.589  0.00  0.00    +0.202 C 
ATOM     11  C   UNL     1      -4.445 -12.020  18.849  0.00  0.00    -0.019 C 
ATOM     12  C   UNL     1      -5.219 -11.379  19.730  0.00  0.00    +0.013 C 
ENDROOT
BRANCH   7  10
ATOM      4  N   UNL     1      -4.413 -12.204  14.470  0.00  0.00    -0.236 N 
ATOM      5  N   UNL     1      -4.237 -13.534  14.407  0.00  0.00    -0.171 NA
ATOM     10  C   UNL     1      -4.866 -12.869  16.500  0.00  0.00    +0.003 A 
ATOM     13  C   UNL     1      -4.789 -11.755  15.702  0.00  0.00    +0.046 A 
ATOM     14  C   UNL     1      -4.515 -13.936  15.650  0.00  0.00    +0.064 A 
ATOM     15  C   UNL     1      -5.038 -10.331  16.004  0.00  0.00    +0.066 C 
ATOM     16  C   UNL     1      -4.431 -15.369  15.985  0.00  0.00    +0.068 C 
BRANCH   4  17
ATOM      1 CL   UNL     1      -1.131  -9.609  11.546  0.00  0.00    -0.083 Cl
ATOM     17  C   UNL     1      -4.208 -11.424  13.331  0.00  0.00    +0.067 A 
ATOM     20  C   UNL     1      -2.930 -10.955  13.027  0.00  0.00    +0.048 A 
ATOM     21  C   UNL     1      -5.282 -11.112  12.498  0.00  0.00    +0.028 A 
ATOM     22  C   UNL     1      -2.726 -10.173  11.890  0.00  0.00    +0.046 A 
ATOM     23  C   UNL     1      -5.078 -10.331  11.360  0.00  0.00    +0.007 A 
ATOM     25  C   UNL     1      -3.800  -9.862  11.056  0.00  0.00    -0.032 A 
ATOM     29  C   UNL     1      -3.623  -9.028   9.828  0.00  0.00    +0.045 C 
ENDBRANCH   4  17
ENDBRANCH   7  10
BRANCH   9   2
ATOM      2  O   UNL     1      -7.490 -10.621  19.549  0.00  0.00    -0.443 OA
BRANCH   2  18
ATOM      3  O   UNL     1      -9.434 -11.625  20.246  0.00  0.00    -0.226 OA
ATOM      6  N   UNL     1      -9.416 -10.107  18.492  0.00  0.00    -0.275 N 
ATOM     18  C   UNL     1      -8.841 -10.856  19.497  0.00  0.00    +0.401 C 
ATOM     33  H   UNL     1      -8.813  -9.477  17.971  0.00  0.00    +0.153 HD
BRANCH   6  19
ATOM     19  C   UNL     1     -10.827 -10.130  18.181  0.00  0.00    +0.103 C 
ATOM     26  C   UNL     1     -11.182 -11.423  17.449  0.00  0.00    +0.033 C 
BRANCH  19  24
ATOM     24  C   UNL     1     -11.247  -8.895  17.415  0.00  0.00    -0.027 A 
ATOM     27  C   UNL     1     -12.553  -8.779  16.940  0.00  0.00    +0.005 A 
ATOM     28  C   UNL     1     -10.327  -7.872  17.184  0.00  0.00    +0.005 A 
ATOM     30  C   UNL     1     -12.940  -7.639  16.235  0.00  0.00    +0.000 A 
ATOM     31  C   UNL     1     -10.714  -6.733  16.478  0.00  0.00    +0.000 A 
ATOM     32  C   UNL     1     -12.020  -6.617  16.003  0.00  0.00    +0.000 A 
ENDBRANCH  19  24
ENDBRANCH   6  19
ENDBRANCH   2  18
ENDBRANCH   9   2
TORSDOF 6
ENDMDL
MODEL 3
REMARK VINA RESULT:      -7.5     20.266     21.907
REMARK  Name = 40777693
REMARK  10 active torsions:
REMARK  status: ('A' for Active; 'I' for Inactive)
REMARK    1  A    between atoms: O_2  and  C_9
REMARK    2  A    between atoms: O_2  and  C_18
REMARK    3  A    between atoms: N_4  and  C_17
REMARK    4  A    between atoms: N_6  and  C_19
REMARK    5  A    between atoms: C_7  and  C_10
REMARK    6  A    between atoms: C_13  and  C_15
REMARK    7  A    between atoms: C_14  and  C_16
REMARK    8  A    between atoms: C_19  and  C_24
REMARK    9  A    between atoms: C_19  and  C_26
REMARK   10  A    between atoms: C_25  and  C_29
REMARK                            x       y       z     vdW  Elec       q    Type
REMARK                         _______ _______ _______ _____ _____    ______ ____
ROOT
ATOM      7  C   UNL     1      -4.353 -12.035  12.128  0.00  0.00    +0.049 C 
ATOM      8  C   UNL     1      -3.887 -11.443  13.473  0.00  0.00    +0.061 C 
ATOM      9  C   UNL     1      -2.934 -12.478  14.078  0.00  0.00    +0.202 C 
ATOM     11  C   UNL     1      -3.284 -13.046  11.831  0.00  0.00    -0.019 C 
ATOM     12  C   UNL     1      -2.508 -13.280  12.894  0.00  0.00    +0.013 C 
ENDROOT
BRANCH   7  10
ATOM      4  N   UNL     1      -5.351  -9.731   9.462  0.00  0.00    -0.236 N 
ATOM      5  N   UNL     1      -4.109  -9.250   9.639  0.00  0.00    -0.171 NA
ATOM     10  C   UNL     1      -4.544 -10.992  11.052  0.00  0.00    +0.003 A 
ATOM     13  C   UNL     1      -5.661 -10.774  10.284  0.00  0.00    +0.046 A 
ATOM     14  C   UNL     1      -3.621 -10.024  10.612  0.00  0.00    +0.064 A 
ATOM     15  C   UNL     1      -6.970 -11.459  10.266  0.00  0.00    +0.066 C 
ATOM     16  C   UNL     1      -2.247  -9.799  11.096  0.00  0.00    +0.068 C 
BRANCH   4  17
ATOM      1 CL   UNL     1      -8.844  -6.182   8.341  0.00  0.00    -0.083 Cl
ATOM     17  C   UNL     1      -6.185  -9.156   8.501  0.00  0.00    +0.067 A 
ATOM     20  C   UNL     1      -7.006  -8.081   8.842  0.00  0.00    +0.048 A 
ATOM     21  C   UNL     1      -6.198  -9.659   7.200  0.00  0.00    +0.028 A 
ATOM     22  C   UNL     1      -7.841  -7.510   7.882  0.00  0.00    +0.046 A 
ATOM     23  C   UNL     1      -7.032  -9.086   6.240  0.00  0.00    +0.007 A 
ATOM     25  C   UNL     1      -7.854  -8.012   6.581  0.00  0.00    -0.032 A 
ATOM     29  C   UNL     1      -8.734  -7.427   5.523  0.00  0.00    +0.045 C 
ENDBRANCH   4  17
ENDBRANCH   7  10
BRANCH   9   2
ATOM      2  O   UNL     1      -1.829 -11.826  14.681  0.00  0.00    -0.443 OA
BRANCH   2  18
ATOM      3  O   UNL     1      -1.592  -9.946  15.977  0.00  0.00    -0.226 OA
ATOM      6  N   UNL     1      -3.033 -11.661  16.581  0.00  0.00    -0.275 N 
ATOM     18  C   UNL     1      -2.106 -11.040  15.771  0.00  0.00    +0.401 C 
ATOM     33  H   UNL     1      -3.410 -12.552  16.270  0.00  0.00    +0.153 HD
BRANCH   6  19
ATOM     19  C   UNL     1      -3.535 -11.088  17.810  0.00  0.00    +0.103 C 
ATOM     26  C   UNL     1      -3.394 -12.093  18.952  0.00  0.00    +0.033 C 
BRANCH  19  24
ATOM     24  C   UNL     1      -4.953 -10.586  17.650  0.00  0.00    -0.027 A 
ATOM     27  C   UNL     1      -5.869 -10.739  18.690  0.00  0.00    +0.005 A 
ATOM     28  C   UNL     1      -5.344  -9.969  16.461  0.00  0.00    +0.005 A 
ATOM     30  C   UNL     1      -7.176 -10.275  18.543  0.00  0.00    +0.000 A 
ATOM     31  C   UNL     1      -6.652  -9.506  16.313  0.00  0.00    +0.000 A 
ATOM     32  C   UNL     1      -7.568  -9.659  17.353  0.00  0.00    +0.000 A 
ENDBRANCH  19  24
ENDBRANCH   6  19
ENDBRANCH   2  18
ENDBRANCH   9   2
TORSDOF 6
ENDMDL
MODEL 4
REMARK VINA RESULT:      -7.5     19.121     20.674
REMARK  Name = 40777693
REMARK  10 active torsions:
REMARK  status: ('A' for Active; 'I' for Inactive)
REMARK    1  A    between atoms: O_2  and  C_9
REMARK    2  A    between atoms: O_2  and  C_18
REMARK    3  A    between atoms: N_4  and  C_17
REMARK    4  A    between atoms: N_6  and  C_19
REMARK    5  A    between atoms: C_7  and  C_10
REMARK    6  A    between atoms: C_13  and  C_15
REMARK    7  A    between atoms: C_14  and  C_16
REMARK    8  A    between atoms: C_19  and  C_24
REMARK    9  A    between atoms: C_19  and  C_26
REMARK   10  A    between atoms: C_25  and  C_29
REMARK                            x       y       z     vdW  Elec       q    Type
REMARK                         _______ _______ _______ _____ _____    ______ ____
ROOT
ATOM      7  C   UNL     1      -3.744 -11.046  16.996  0.00  0.00    +0.049 C 
ATOM      8  C   UNL     1      -4.355 -12.430  17.290  0.00  0.00    +0.061 C 
ATOM      9  C   UNL     1      -5.426 -12.195  18.360  0.00  0.00    +0.202 C 
ATOM     11  C   UNL     1      -4.809 -10.109  17.487  0.00  0.00    -0.019 C 
ATOM     12  C   UNL     1      -5.728 -10.740  18.225  0.00  0.00    +0.013 C 
ENDROOT
BRANCH   7  10
ATOM      4  N   UNL     1      -3.382 -10.713  13.366  0.00  0.00    -0.236 N 
ATOM      5  N   UNL     1      -2.109 -10.428  13.686  0.00  0.00    -0.171 NA
ATOM     10  C   UNL     1      -3.365 -10.857  15.546  0.00  0.00    +0.003 A 
ATOM     13  C   UNL     1      -4.176 -10.977  14.444  0.00  0.00    +0.046 A 
ATOM     14  C   UNL     1      -2.104 -10.517  15.019  0.00  0.00    +0.064 A 
ATOM     15  C   UNL     1      -5.609 -11.314  14.331  0.00  0.00    +0.066 C 
ATOM     16  C   UNL     1      -0.853 -10.265  15.757  0.00  0.00    +0.068 C 
BRANCH   4  17
ATOM      1 CL   UNL     1      -5.654  -8.237   9.524  0.00  0.00    -0.083 Cl
ATOM     17  C   UNL     1      -3.775 -10.717  12.027  0.00  0.00    +0.067 A 
ATOM     20  C   UNL     1      -4.438  -9.614  11.491  0.00  0.00    +0.048 A 
ATOM     21  C   UNL     1      -3.505 -11.826  11.226  0.00  0.00    +0.028 A 
ATOM     22  C   UNL     1      -4.834  -9.620  10.153  0.00  0.00    +0.046 A 
ATOM     23  C   UNL     1      -3.899 -11.832   9.888  0.00  0.00    +0.007 A 
ATOM     25  C   UNL     1      -4.563 -10.728   9.351  0.00  0.00    -0.032 A 
ATOM     29  C   UNL     1      -4.969 -10.774   7.913  0.00  0.00    +0.045 C 
ENDBRANCH   4  17
ENDBRANCH   7  10
BRANCH   9   2
ATOM      2  O   UNL     1      -6.569 -12.985  18.084  0.00  0.00    -0.443 OA
BRANCH   2  18
ATOM      3  O   UNL     1      -7.867 -12.822  19.971  0.00  0.00    -0.226 OA
ATOM      6  N   UNL     1      -8.648 -12.126  17.900  0.00  0.00    -0.275 N 
ATOM     18  C   UNL     1      -7.715 -12.658  18.766  0.00  0.00    +0.401 C 
ATOM     33  H   UNL     1      -8.375 -12.008  16.929  0.00  0.00    +0.153 HD
BRANCH   6  19
ATOM     19  C   UNL     1      -9.960 -11.681  18.310  0.00  0.00    +0.103 C 
ATOM     26  C   UNL     1     -11.022 -12.671  17.835  0.00  0.00    +0.033 C 
BRANCH  19  24
ATOM     24  C   UNL     1     -10.235 -10.266  17.849  0.00  0.00    -0.027 A 
ATOM     27  C   UNL     1      -9.174  -9.404  17.572  0.00  0.00    +0.005 A 
ATOM     28  C   UNL     1     -11.550  -9.824  17.701  0.00  0.00    +0.005 A 
ATOM     30  C   UNL     1      -9.428  -8.101  17.146  0.00  0.00    +0.000 A 
ATOM     31  C   UNL     1     -11.804  -8.520  17.277  0.00  0.00    +0.000 A 
ATOM     32  C   UNL     1     -10.743  -7.658  16.999  0.00  0.00    +0.000 A 
ENDBRANCH  19  24
ENDBRANCH   6  19
ENDBRANCH   2  18
ENDBRANCH   9   2
TORSDOF 6
ENDMDL
MODEL 5
REMARK VINA RESULT:      -7.4     31.478     35.189
REMARK  Name = 40777693
REMARK  10 active torsions:
REMARK  status: ('A' for Active; 'I' for Inactive)
REMARK    1  A    between atoms: O_2  and  C_9
REMARK    2  A    between atoms: O_2  and  C_18
REMARK    3  A    between atoms: N_4  and  C_17
REMARK    4  A    between atoms: N_6  and  C_19
REMARK    5  A    between atoms: C_7  and  C_10
REMARK    6  A    between atoms: C_13  and  C_15
REMARK    7  A    between atoms: C_14  and  C_16
REMARK    8  A    between atoms: C_19  and  C_24
REMARK    9  A    between atoms: C_19  and  C_26
REMARK   10  A    between atoms: C_25  and  C_29
REMARK                            x       y       z     vdW  Elec       q    Type
REMARK                         _______ _______ _______ _____ _____    ______ ____
ROOT
ATOM      7  C   UNL     1      19.817   7.478  21.628  0.00  0.00    +0.049 C 
ATOM      8  C   UNL     1      20.999   7.666  20.657  0.00  0.00    +0.061 C 
ATOM      9  C   UNL     1      22.226   7.098  21.376  0.00  0.00    +0.202 C 
ATOM     11  C   UNL     1      20.318   6.398  22.543  0.00  0.00    -0.019 C 
ATOM     12  C   UNL     1      21.630   6.189  22.398  0.00  0.00    +0.013 C 
ENDROOT
BRANCH   7  10
ATOM      4  N   UNL     1      16.464   7.175  20.186  0.00  0.00    -0.236 N 
ATOM      5  N   UNL     1      16.983   6.068  19.631  0.00  0.00    -0.171 NA
ATOM     10  C   UNL     1      18.517   7.153  20.930  0.00  0.00    +0.003 A 
ATOM     13  C   UNL     1      17.342   7.862  20.973  0.00  0.00    +0.046 A 
ATOM     14  C   UNL     1      18.238   6.059  20.089  0.00  0.00    +0.064 A 
ATOM     15  C   UNL     1      16.990   9.109  21.683  0.00  0.00    +0.066 C 
ATOM     16  C   UNL     1      19.147   4.970  19.689  0.00  0.00    +0.068 C 
BRANCH   4  17
ATOM      1 CL   UNL     1      11.523   6.409  21.215  0.00  0.00    -0.083 Cl
ATOM     17  C   UNL     1      15.136   7.522  19.929  0.00  0.00    +0.067 A 
ATOM     20  C   UNL     1      14.103   6.880  20.612  0.00  0.00    +0.048 A 
ATOM     21  C   UNL     1      14.844   8.509  18.988  0.00  0.00    +0.028 A 
ATOM     22  C   UNL     1      12.776   7.225  20.352  0.00  0.00    +0.046 A 
ATOM     23  C   UNL     1      13.517   8.854  18.730  0.00  0.00    +0.007 A 
ATOM     25  C   UNL     1      12.484   8.212  19.412  0.00  0.00    -0.032 A 
ATOM     29  C   UNL     1      11.075   8.611  19.106  0.00  0.00    +0.045 C 
ENDBRANCH   4  17
ENDBRANCH   7  10
BRANCH   9   2
ATOM      2  O   UNL     1      23.036   6.381  20.461  0.00  0.00    -0.443 OA
BRANCH   2  18
ATOM      3  O   UNL     1      25.012   6.863  21.527  0.00  0.00    -0.226 OA
ATOM      6  N   UNL     1      24.683   4.839  20.441  0.00  0.00    -0.275 N 
ATOM     18  C   UNL     1      24.314   6.096  20.871  0.00  0.00    +0.401 C 
ATOM     33  H   UNL     1      23.990   4.291  19.939  0.00  0.00    +0.153 HD
BRANCH   6  19
ATOM     19  C   UNL     1      25.972   4.245  20.713  0.00  0.00    +0.103 C 
ATOM     26  C   UNL     1      26.862   4.333  19.474  0.00  0.00    +0.033 C 
BRANCH  19  24
ATOM     24  C   UNL     1      25.832   2.829  21.230  0.00  0.00    -0.027 A 
ATOM     27  C   UNL     1      26.868   2.249  21.962  0.00  0.00    +0.005 A 
ATOM     28  C   UNL     1      24.668   2.105  20.973  0.00  0.00    +0.005 A 
ATOM     30  C   UNL     1      26.739   0.945  22.439  0.00  0.00    +0.000 A 
ATOM     31  C   UNL     1      24.539   0.800  21.449  0.00  0.00    +0.000 A 
ATOM     32  C   UNL     1      25.575   0.220  22.182  0.00  0.00    +0.000 A 
ENDBRANCH  19  24
ENDBRANCH   6  19
ENDBRANCH   2  18
ENDBRANCH   9   2
TORSDOF 6
ENDMDL
MODEL 6
REMARK VINA RESULT:      -7.2     30.345     34.100
REMARK  Name = 40777693
REMARK  10 active torsions:
REMARK  status: ('A' for Active; 'I' for Inactive)
REMARK    1  A    between atoms: O_2  and  C_9
REMARK    2  A    between atoms: O_2  and  C_18
REMARK    3  A    between atoms: N_4  and  C_17
REMARK    4  A    between atoms: N_6  and  C_19
REMARK    5  A    between atoms: C_7  and  C_10
REMARK    6  A    between atoms: C_13  and  C_15
REMARK    7  A    between atoms: C_14  and  C_16
REMARK    8  A    between atoms: C_19  and  C_24
REMARK    9  A    between atoms: C_19  and  C_26
REMARK   10  A    between atoms: C_25  and  C_29
REMARK                            x       y       z     vdW  Elec       q    Type
REMARK                         _______ _______ _______ _____ _____    ______ ____
ROOT
ATOM      7  C   UNL     1      20.021   6.457  21.259  0.00  0.00    +0.049 C 
ATOM      8  C   UNL     1      18.724   6.926  21.946  0.00  0.00    +0.061 C 
ATOM      9  C   UNL     1      17.619   6.787  20.895  0.00  0.00    +0.202 C 
ATOM     11  C   UNL     1      19.503   5.628  20.120  0.00  0.00    -0.019 C 
ATOM     12  C   UNL     1      18.192   5.805  19.928  0.00  0.00    +0.013 C 
ENDROOT
BRANCH   7  10
ATOM      4  N   UNL     1      22.284   4.258  23.119  0.00  0.00    -0.236 N 
ATOM      5  N   UNL     1      22.275   5.270  24.001  0.00  0.00    -0.171 NA
ATOM     10  C   UNL     1      20.959   5.725  22.190  0.00  0.00    +0.003 A 
ATOM     13  C   UNL     1      21.512   4.480  22.016  0.00  0.00    +0.046 A 
ATOM     14  C   UNL     1      21.465   6.164  23.429  0.00  0.00    +0.064 A 
ATOM     15  C   UNL     1      21.372   3.506  20.915  0.00  0.00    +0.066 C 
ATOM     16  C   UNL     1      21.198   7.443  24.113  0.00  0.00    +0.068 C 
BRANCH   4  17
ATOM      1 CL   UNL     1      22.579  -0.299  25.399  0.00  0.00    -0.083 Cl
ATOM     17  C   UNL     1      23.042   3.116  23.382  0.00  0.00    +0.067 A 
ATOM     20  C   UNL     1      22.510   2.090  24.163  0.00  0.00    +0.048 A 
ATOM     21  C   UNL     1      24.333   3.002  22.866  0.00  0.00    +0.028 A 
ATOM     22  C   UNL     1      23.269   0.950  24.429  0.00  0.00    +0.046 A 
ATOM     23  C   UNL     1      25.092   1.862  23.131  0.00  0.00    +0.007 A 
ATOM     25  C   UNL     1      24.560   0.836  23.912  0.00  0.00    -0.032 A 
ATOM     29  C   UNL     1      25.405  -0.369  24.173  0.00  0.00    +0.045 C 
ENDBRANCH   4  17
ENDBRANCH   7  10
BRANCH   9   2
ATOM      2  O   UNL     1      16.438   6.286  21.496  0.00  0.00    -0.443 OA
BRANCH   2  18
ATOM      3  O   UNL     1      15.361   8.238  22.045  0.00  0.00    -0.226 OA
ATOM      6  N   UNL     1      14.290   6.556  20.859  0.00  0.00    -0.275 N 
ATOM     18  C   UNL     1      15.358   7.132  21.515  0.00  0.00    +0.401 C 
ATOM     33  H   UNL     1      14.437   5.648  20.428  0.00  0.00    +0.153 HD
BRANCH   6  19
ATOM     19  C   UNL     1      13.004   7.196  20.705  0.00  0.00    +0.103 C 
ATOM     26  C   UNL     1      11.887   6.231  21.098  0.00  0.00    +0.033 C 
BRANCH  19  24
ATOM     24  C   UNL     1      12.826   7.755  19.310  0.00  0.00    -0.027 A 
ATOM     27  C   UNL     1      13.874   7.687  18.392  0.00  0.00    +0.005 A 
ATOM     28  C   UNL     1      11.613   8.337  18.941  0.00  0.00    +0.005 A 
ATOM     30  C   UNL     1      13.709   8.201  17.106  0.00  0.00    +0.000 A 
ATOM     31  C   UNL     1      11.448   8.852  17.655  0.00  0.00    +0.000 A 
ATOM     32  C   UNL     1      12.497   8.784  16.738  0.00  0.00    +0.000 A 
ENDBRANCH  19  24
ENDBRANCH   6  19
ENDBRANCH   2  18
ENDBRANCH   9   2
TORSDOF 6
ENDMDL
MODEL 7
REMARK VINA RESULT:      -7.2     28.530     33.360
REMARK  Name = 40777693
REMARK  10 active torsions:
REMARK  status: ('A' for Active; 'I' for Inactive)
REMARK    1  A    between atoms: O_2  and  C_9
REMARK    2  A    between atoms: O_2  and  C_18
REMARK    3  A    between atoms: N_4  and  C_17
REMARK    4  A    between atoms: N_6  and  C_19
REMARK    5  A    between atoms: C_7  and  C_10
REMARK    6  A    between atoms: C_13  and  C_15
REMARK    7  A    between atoms: C_14  and  C_16
REMARK    8  A    between atoms: C_19  and  C_24
REMARK    9  A    between atoms: C_19  and  C_26
REMARK   10  A    between atoms: C_25  and  C_29
REMARK                            x       y       z     vdW  Elec       q    Type
REMARK                         _______ _______ _______ _____ _____    ______ ____
ROOT
ATOM      7  C   UNL     1      12.822   5.960   2.376  0.00  0.00    +0.049 C 
ATOM      8  C   UNL     1      11.414   6.092   2.989  0.00  0.00    +0.061 C 
ATOM      9  C   UNL     1      11.326   7.522   3.530  0.00  0.00    +0.202 C 
ATOM     11  C   UNL     1      13.210   7.391   2.142  0.00  0.00    -0.019 C 
ATOM     12  C   UNL     1      12.389   8.240   2.767  0.00  0.00    +0.013 C 
ENDROOT
BRANCH   7  10
ATOM      4  N   UNL     1      12.455   4.178  -0.803  0.00  0.00    -0.236 N 
ATOM      5  N   UNL     1      13.495   3.468  -0.335  0.00  0.00    -0.171 NA
ATOM     10  C   UNL     1      12.855   5.092   1.140  0.00  0.00    +0.003 A 
ATOM     13  C   UNL     1      12.034   5.163   0.042  0.00  0.00    +0.046 A 
ATOM     14  C   UNL     1      13.736   4.031   0.852  0.00  0.00    +0.064 A 
ATOM     15  C   UNL     1      10.907   6.067  -0.265  0.00  0.00    +0.066 C 
ATOM     16  C   UNL     1      14.834   3.514   1.689  0.00  0.00    +0.068 C 
BRANCH   4  17
ATOM      1 CL   UNL     1       9.192   1.339  -3.514  0.00  0.00    -0.083 Cl
ATOM     17  C   UNL     1      11.912   3.870  -2.052  0.00  0.00    +0.067 A 
ATOM     20  C   UNL     1      10.936   2.880  -2.164  0.00  0.00    +0.048 A 
ATOM     21  C   UNL     1      12.348   4.552  -3.187  0.00  0.00    +0.028 A 
ATOM     22  C   UNL     1      10.397   2.571  -3.413  0.00  0.00    +0.046 A 
ATOM     23  C   UNL     1      11.808   4.244  -4.436  0.00  0.00    +0.007 A 
ATOM     25  C   UNL     1      10.832   3.254  -4.549  0.00  0.00    -0.032 A 
ATOM     29  C   UNL     1      10.278   2.953  -5.904  0.00  0.00    +0.045 C 
ENDBRANCH   4  17
ENDBRANCH   7  10
BRANCH   9   2
ATOM      2  O   UNL     1      10.045   8.065   3.261  0.00  0.00    -0.443 OA
BRANCH   2  18
ATOM      3  O   UNL     1       7.906   7.696   4.009  0.00  0.00    -0.226 OA
ATOM      6  N   UNL     1       9.674   7.982   5.485  0.00  0.00    -0.275 N 
ATOM     18  C   UNL     1       9.095   7.895   4.236  0.00  0.00    +0.401 C 
ATOM     33  H   UNL     1      10.681   8.110   5.529  0.00  0.00    +0.153 HD
BRANCH   6  19
ATOM     19  C   UNL     1       8.938   7.845   6.721  0.00  0.00    +0.103 C 
ATOM     26  C   UNL     1       9.235   9.027   7.642  0.00  0.00    +0.033 C 
BRANCH  19  24
ATOM     24  C   UNL     1       9.207   6.511   7.382  0.00  0.00    -0.027 A 
ATOM     27  C   UNL     1       9.081   6.380   8.765  0.00  0.00    +0.005 A 
ATOM     28  C   UNL     1       9.583   5.412   6.609  0.00  0.00    +0.005 A 
ATOM     30  C   UNL     1       9.328   5.150   9.374  0.00  0.00    +0.000 A 
ATOM     31  C   UNL     1       9.831   4.183   7.218  0.00  0.00    +0.000 A 
ATOM     32  C   UNL     1       9.704   4.051   8.601  0.00  0.00    +0.000 A 
ENDBRANCH  19  24
ENDBRANCH   6  19
ENDBRANCH   2  18
ENDBRANCH   9   2
TORSDOF 6
ENDMDL
MODEL 8
REMARK VINA RESULT:      -7.2     18.937     21.996
REMARK  Name = 40777693
REMARK  10 active torsions:
REMARK  status: ('A' for Active; 'I' for Inactive)
REMARK    1  A    between atoms: O_2  and  C_9
REMARK    2  A    between atoms: O_2  and  C_18
REMARK    3  A    between atoms: N_4  and  C_17
REMARK    4  A    between atoms: N_6  and  C_19
REMARK    5  A    between atoms: C_7  and  C_10
REMARK    6  A    between atoms: C_13  and  C_15
REMARK    7  A    between atoms: C_14  and  C_16
REMARK    8  A    between atoms: C_19  and  C_24
REMARK    9  A    between atoms: C_19  and  C_26
REMARK   10  A    between atoms: C_25  and  C_29
REMARK                            x       y       z     vdW  Elec       q    Type
REMARK                         _______ _______ _______ _____ _____    ______ ____
ROOT
ATOM      7  C   UNL     1      -6.295 -10.014  16.553  0.00  0.00    +0.049 C 
ATOM      8  C   UNL     1      -5.998 -10.857  15.297  0.00  0.00    +0.061 C 
ATOM      9  C   UNL     1      -4.472 -10.923  15.188  0.00  0.00    +0.202 C 
ATOM     11  C   UNL     1      -5.008 -10.112  17.321  0.00  0.00    -0.019 C 
ATOM     12  C   UNL     1      -4.018 -10.614  16.576  0.00  0.00    +0.013 C 
ENDROOT
BRANCH   7  10
ATOM      4  N   UNL     1      -9.468 -10.625  18.277  0.00  0.00    -0.236 N 
ATOM      5  N   UNL     1      -8.917 -11.827  18.514  0.00  0.00    -0.171 NA
ATOM     10  C   UNL     1      -7.514 -10.483  17.312  0.00  0.00    +0.003 A 
ATOM     13  C   UNL     1      -8.668  -9.783  17.561  0.00  0.00    +0.046 A 
ATOM     14  C   UNL     1      -7.724 -11.735  17.922  0.00  0.00    +0.064 A 
ATOM     15  C   UNL     1      -9.067  -8.411  17.184  0.00  0.00    +0.066 C 
ATOM     16  C   UNL     1      -6.803 -12.886  17.965  0.00  0.00    +0.068 C 
BRANCH   4  17
ATOM      1 CL   UNL     1     -14.405  -9.866  17.224  0.00  0.00    -0.083 Cl
ATOM     17  C   UNL     1     -10.749 -10.343  18.757  0.00  0.00    +0.067 A 
ATOM     20  C   UNL     1     -11.822 -10.254  17.871  0.00  0.00    +0.048 A 
ATOM     21  C   UNL     1     -10.953 -10.149  20.123  0.00  0.00    +0.028 A 
ATOM     22  C   UNL     1     -13.100  -9.970  18.350  0.00  0.00    +0.046 A 
ATOM     23  C   UNL     1     -12.232  -9.866  20.602  0.00  0.00    +0.007 A 
ATOM     25  C   UNL     1     -13.306  -9.776  19.716  0.00  0.00    -0.032 A 
ATOM     29  C   UNL     1     -14.660  -9.471  20.270  0.00  0.00    +0.045 C 
ENDBRANCH   4  17
ENDBRANCH   7  10
BRANCH   9   2
ATOM      2  O   UNL     1      -4.068 -12.223  14.795  0.00  0.00    -0.443 OA
BRANCH   2  18
ATOM      3  O   UNL     1      -2.369 -13.218  13.613  0.00  0.00    -0.226 OA
ATOM      6  N   UNL     1      -3.275 -11.186  12.954  0.00  0.00    -0.275 N 
ATOM     18  C   UNL     1      -3.160 -12.294  13.768  0.00  0.00    +0.401 C 
ATOM     33  H   UNL     1      -4.003 -10.513  13.175  0.00  0.00    +0.153 HD
BRANCH   6  19
ATOM     19  C   UNL     1      -2.458 -10.963  11.783  0.00  0.00    +0.103 C 
ATOM     26  C   UNL     1      -1.367  -9.940  12.091  0.00  0.00    +0.033 C 
BRANCH  19  24
ATOM     24  C   UNL     1      -3.299 -10.575  10.586  0.00  0.00    -0.027 A 
ATOM     27  C   UNL     1      -3.374  -9.239  10.191  0.00  0.00    +0.005 A 
ATOM     28  C   UNL     1      -3.999 -11.552   9.879  0.00  0.00    +0.005 A 
ATOM     30  C   UNL     1      -4.148  -8.881   9.087  0.00  0.00    +0.000 A 
ATOM     31  C   UNL     1      -4.774 -11.194   8.776  0.00  0.00    +0.000 A 
ATOM     32  C   UNL     1      -4.849  -9.859   8.380  0.00  0.00    +0.000 A 
ENDBRANCH  19  24
ENDBRANCH   6  19
ENDBRANCH   2  18
ENDBRANCH   9   2
TORSDOF 6
ENDMDL
MODEL 9
REMARK VINA RESULT:      -7.0     33.796     35.725
REMARK  Name = 40777693
REMARK  10 active torsions:
REMARK  status: ('A' for Active; 'I' for Inactive)
REMARK    1  A    between atoms: O_2  and  C_9
REMARK    2  A    between atoms: O_2  and  C_18
REMARK    3  A    between atoms: N_4  and  C_17
REMARK    4  A    between atoms: N_6  and  C_19
REMARK    5  A    between atoms: C_7  and  C_10
REMARK    6  A    between atoms: C_13  and  C_15
REMARK    7  A    between atoms: C_14  and  C_16
REMARK    8  A    between atoms: C_19  and  C_24
REMARK    9  A    between atoms: C_19  and  C_26
REMARK   10  A    between atoms: C_25  and  C_29
REMARK                            x       y       z     vdW  Elec       q    Type
REMARK                         _______ _______ _______ _____ _____    ______ ____
ROOT
ATOM      7  C   UNL     1      19.435  -2.561  28.227  0.00  0.00    +0.049 C 
ATOM      8  C   UNL     1      19.921  -4.021  28.154  0.00  0.00    +0.061 C 
ATOM      9  C   UNL     1      18.708  -4.844  27.711  0.00  0.00    +0.202 C 
ATOM     11  C   UNL     1      18.213  -2.581  27.355  0.00  0.00    -0.019 C 
ATOM     12  C   UNL     1      17.824  -3.828  27.070  0.00  0.00    +0.013 C 
ENDROOT
BRANCH   7  10
ATOM      4  N   UNL     1      21.910  -0.351  26.674  0.00  0.00    -0.236 N 
ATOM      5  N   UNL     1      22.036   0.114  27.928  0.00  0.00    -0.171 NA
ATOM     10  C   UNL     1      20.486  -1.560  27.807  0.00  0.00    +0.003 A 
ATOM     13  C   UNL     1      20.994  -1.354  26.548  0.00  0.00    +0.046 A 
ATOM     14  C   UNL     1      21.164  -0.628  28.615  0.00  0.00    +0.064 A 
ATOM     15  C   UNL     1      20.688  -2.016  25.263  0.00  0.00    +0.066 C 
ATOM     16  C   UNL     1      21.010  -0.407  30.065  0.00  0.00    +0.068 C 
BRANCH   4  17
ATOM      1 CL   UNL     1      22.411   3.257  23.098  0.00  0.00    -0.083 Cl
ATOM     17  C   UNL     1      22.684   0.198  25.650  0.00  0.00    +0.067 A 
ATOM     20  C   UNL     1      22.231   1.321  24.959  0.00  0.00    +0.048 A 
ATOM     21  C   UNL     1      23.909  -0.379  25.318  0.00  0.00    +0.028 A 
ATOM     22  C   UNL     1      23.004   1.867  23.934  0.00  0.00    +0.046 A 
ATOM     23  C   UNL     1      24.683   0.168  24.294  0.00  0.00    +0.007 A 
ATOM     25  C   UNL     1      24.230   1.291  23.602  0.00  0.00    -0.032 A 
ATOM     29  C   UNL     1      25.088   1.847  22.511  0.00  0.00    +0.045 C 
ENDBRANCH   4  17
ENDBRANCH   7  10
BRANCH   9   2
ATOM      2  O   UNL     1      19.108  -5.836  26.780  0.00  0.00    -0.443 OA
BRANCH   2  18
ATOM      3  O   UNL     1      17.301  -6.551  25.556  0.00  0.00    -0.226 OA
ATOM      6  N   UNL     1      18.967  -5.244  24.608  0.00  0.00    -0.275 N 
ATOM     18  C   UNL     1      18.358  -5.934  25.635  0.00  0.00    +0.401 C 
ATOM     33  H   UNL     1      19.823  -4.740  24.821  0.00  0.00    +0.153 HD
BRANCH   6  19
ATOM     19  C   UNL     1      18.425  -5.154  23.271  0.00  0.00    +0.103 C 
ATOM     26  C   UNL     1      19.539  -5.337  22.241  0.00  0.00    +0.033 C 
BRANCH  19  24
ATOM     24  C   UNL     1      17.653  -3.868  23.070  0.00  0.00    -0.027 A 
ATOM     27  C   UNL     1      18.321  -2.707  22.680  0.00  0.00    +0.005 A 
ATOM     28  C   UNL     1      16.274  -3.844  23.275  0.00  0.00    +0.005 A 
ATOM     30  C   UNL     1      17.609  -1.523  22.494  0.00  0.00    +0.000 A 
ATOM     31  C   UNL     1      15.562  -2.658  23.090  0.00  0.00    +0.000 A 
ATOM     32  C   UNL     1      16.230  -1.498  22.700  0.00  0.00    +0.000 A 
ENDBRANCH  19  24
ENDBRANCH   6  19
ENDBRANCH   2  18
ENDBRANCH   9   2
TORSDOF 6
ENDMDL
MODEL 10
REMARK VINA RESULT:      -7.0     31.287     34.722
REMARK  Name = 40777693
REMARK  10 active torsions:
REMARK  status: ('A' for Active; 'I' for Inactive)
REMARK    1  A    between atoms: O_2  and  C_9
REMARK    2  A    between atoms: O_2  and  C_18
REMARK    3  A    between atoms: N_4  and  C_17
REMARK    4  A    between atoms: N_6  and  C_19
REMARK    5  A    between atoms: C_7  and  C_10
REMARK    6  A    between atoms: C_13  and  C_15
REMARK    7  A    between atoms: C_14  and  C_16
REMARK    8  A    between atoms: C_19  and  C_24
REMARK    9  A    between atoms: C_19  and  C_26
REMARK   10  A    between atoms: C_25  and  C_29
REMARK                            x       y       z     vdW  Elec       q    Type
REMARK                         _______ _______ _______ _____ _____    ______ ____
ROOT
ATOM      7  C   UNL     1      20.153   6.492  20.818  0.00  0.00    +0.049 C 
ATOM      8  C   UNL     1      20.601   5.835  22.139  0.00  0.00    +0.061 C 
ATOM      9  C   UNL     1      22.128   5.940  22.162  0.00  0.00    +0.202 C 
ATOM     11  C   UNL     1      21.334   7.349  20.465  0.00  0.00    -0.019 C 
ATOM     12  C   UNL     1      22.407   7.050  21.205  0.00  0.00    +0.013 C 
ENDROOT
BRANCH   7  10
ATOM      4  N   UNL     1      16.784   7.926  20.724  0.00  0.00    -0.236 N 
ATOM      5  N   UNL     1      17.307   8.790  21.610  0.00  0.00    -0.171 NA
ATOM     10  C   UNL     1      18.848   7.243  20.937  0.00  0.00    +0.003 A 
ATOM     13  C   UNL     1      17.666   6.979  20.290  0.00  0.00    +0.046 A 
ATOM     14  C   UNL     1      18.568   8.368  21.736  0.00  0.00    +0.064 A 
ATOM     15  C   UNL     1      17.311   5.927  19.317  0.00  0.00    +0.066 C 
ATOM     16  C   UNL     1      19.482   9.081  22.646  0.00  0.00    +0.068 C 
BRANCH   4  17
ATOM      1 CL   UNL     1      11.944   6.423  21.329  0.00  0.00    -0.083 Cl
ATOM     17  C   UNL     1      15.450   8.056  20.335  0.00  0.00    +0.067 A 
ATOM     20  C   UNL     1      14.467   7.277  20.945  0.00  0.00    +0.048 A 
ATOM     21  C   UNL     1      15.101   8.963  19.335  0.00  0.00    +0.028 A 
ATOM     22  C   UNL     1      13.134   7.405  20.554  0.00  0.00    +0.046 A 
ATOM     23  C   UNL     1      13.768   9.092  18.945  0.00  0.00    +0.007 A 
ATOM     25  C   UNL     1      12.784   8.313  19.554  0.00  0.00    -0.032 A 
ATOM     29  C   UNL     1      11.368   8.480  19.107  0.00  0.00    +0.045 C 
ENDBRANCH   4  17
ENDBRANCH   7  10
BRANCH   9   2
ATOM      2  O   UNL     1      22.573   6.265  23.467  0.00  0.00    -0.443 OA
BRANCH   2  18
ATOM      3  O   UNL     1      22.071   5.012  25.325  0.00  0.00    -0.226 OA
ATOM      6  N   UNL     1      23.811   4.429  23.904  0.00  0.00    -0.275 N 
ATOM     18  C   UNL     1      22.756   5.212  24.328  0.00  0.00    +0.401 C 
ATOM     33  H   UNL     1      24.269   4.687  23.035  0.00  0.00    +0.153 HD
BRANCH   6  19
ATOM     19  C   UNL     1      24.256   3.242  24.596  0.00  0.00    +0.103 C 
ATOM     26  C   UNL     1      25.413   3.584  25.534  0.00  0.00    +0.033 C 
BRANCH  19  24
ATOM     24  C   UNL     1      24.602   2.132  23.627  0.00  0.00    -0.027 A 
ATOM     27  C   UNL     1      24.136   2.183  22.314  0.00  0.00    +0.005 A 
ATOM     28  C   UNL     1      25.386   1.057  24.048  0.00  0.00    +0.005 A 
ATOM     30  C   UNL     1      24.455   1.161  21.420  0.00  0.00    +0.000 A 
ATOM     31  C   UNL     1      25.704   0.034  23.155  0.00  0.00    +0.000 A 
ATOM     32  C   UNL     1      25.238   0.086  21.841  0.00  0.00    +0.000 A 
ENDBRANCH  19  24
ENDBRANCH   6  19
ENDBRANCH   2  18
ENDBRANCH   9   2
TORSDOF 6
ENDMDL
