MODEL 1
REMARK VINA RESULT:      -7.6      0.000      0.000
REMARK  Name = 26742249
REMARK  10 active torsions:
REMARK  status: ('A' for Active; 'I' for Inactive)
REMARK    1  A    between atoms: O_1  and  C_9
REMARK    2  A    between atoms: O_3  and  C_27
REMARK    3  A    between atoms: O_3  and  C_29
REMARK    4  A    between atoms: O_4  and  C_28
REMARK    5  A    between atoms: N_6  and  C_14
REMARK    6  A    between atoms: N_7  and  C_8
REMARK    7  A    between atoms: C_14  and  C_15
REMARK    8  A    between atoms: C_16  and  C_19
REMARK    9  A    between atoms: C_22  and  C_28
REMARK   10  A    between atoms: C_29  and  C_30
REMARK                            x       y       z     vdW  Elec       q    Type
REMARK                         _______ _______ _______ _____ _____    ______ ____
ROOT
ATOM      6  N   UNL     1      12.359   9.417  21.121  0.00  0.00    -0.296 NA
ATOM      8  C   UNL     1      12.510   7.012  20.394  0.00  0.00    +0.116 C 
ATOM      9  C   UNL     1      11.768   6.493  21.635  0.00  0.00    +0.136 C 
ATOM     10  C   UNL     1      12.260   8.473  19.995  0.00  0.00    +0.109 C 
ATOM     11  C   UNL     1      10.406   7.138  21.890  0.00  0.00    +0.034 C 
ATOM     12  C   UNL     1      10.524   8.488  22.592  0.00  0.00    +0.018 C 
ATOM     13  C   UNL     1      11.039   9.643  21.735  0.00  0.00    +0.085 C 
ENDROOT
BRANCH   8   7
ATOM      2  O   UNL     1      14.531   7.323  18.380  0.00  0.00    -0.270 OA
ATOM      7  N   UNL     1      13.936   6.785  20.554  0.00  0.00    -0.305 N 
ATOM     16  C   UNL     1      14.829   6.964  19.515  0.00  0.00    +0.244 C 
ATOM     36  H   UNL     1      14.253   6.478  21.466  0.00  0.00    +0.149 HD
BRANCH  16  19
ATOM     19  C   UNL     1      16.249   6.665  19.833  0.00  0.00    +0.037 A 
ATOM     23  C   UNL     1      16.995   5.845  18.986  0.00  0.00    +0.016 A 
ATOM     24  C   UNL     1      16.835   7.200  20.980  0.00  0.00    +0.016 A 
ATOM     25  C   UNL     1      18.327   5.562  19.285  0.00  0.00    +0.046 A 
ATOM     26  C   UNL     1      18.167   6.916  21.280  0.00  0.00    +0.046 A 
ATOM     27  C   UNL     1      18.913   6.098  20.432  0.00  0.00    +0.121 A 
BRANCH  27   3
ATOM      3  O   UNL     1      20.214   5.822  20.725  0.00  0.00    -0.487 OA
BRANCH   3  29
ATOM     29  C   UNL     1      20.688   4.515  20.404  0.00  0.00    +0.264 C 
BRANCH  29  30
ATOM     30  C   UNL     1      21.683   4.085  21.441  0.00  0.00    -0.010 A 
ATOM     31  C   UNL     1      21.801   4.801  22.633  0.00  0.00    +0.007 A 
ATOM     32  C   UNL     1      22.490   2.970  21.214  0.00  0.00    +0.007 A 
ATOM     33  C   UNL     1      22.726   4.402  23.597  0.00  0.00    +0.000 A 
ATOM     34  C   UNL     1      23.416   2.571  22.179  0.00  0.00    +0.000 A 
ATOM     35  C   UNL     1      23.534   3.287  23.370  0.00  0.00    +0.000 A 
ENDBRANCH  29  30
ENDBRANCH   3  29
ENDBRANCH  27   3
ENDBRANCH  16  19
ENDBRANCH   8   7
BRANCH   9   1
ATOM      1  O   UNL     1      11.575   5.084  21.448  0.00  0.00    -0.390 OA
ATOM     37  H   UNL     1      11.256   4.949  20.540  0.00  0.00    +0.210 HD
ENDBRANCH   9   1
BRANCH   6  14
ATOM     14  C   UNL     1      12.891  10.700  20.645  0.00  0.00    +0.119 C 
BRANCH  14  15
ATOM     15  C   UNL     1      14.392  10.758  20.750  0.00  0.00    -0.033 A 
ATOM     17  C   UNL     1      15.170  10.821  19.593  0.00  0.00    +0.006 A 
ATOM     18  C   UNL     1      15.006  10.748  22.003  0.00  0.00    +0.006 A 
ATOM     20  C   UNL     1      16.559  10.874  19.690  0.00  0.00    +0.015 A 
ATOM     21  C   UNL     1      16.397  10.800  22.099  0.00  0.00    +0.015 A 
ATOM     22  C   UNL     1      17.174  10.865  20.942  0.00  0.00    +0.059 A 
BRANCH  22  28
ATOM      5  O   UNL     1      19.373  11.520  20.266  0.00  0.00    -0.245 OA
ATOM     28  C   UNL     1      18.623  10.920  21.042  0.00  0.00    +0.337 C 
BRANCH  28   4
ATOM      4  O   UNL     1      19.097  10.227  22.114  0.00  0.00    -0.477 OA
ATOM     38  H   UNL     1      19.527  10.817  22.769  0.00  0.00    +0.295 HD
ENDBRANCH  28   4
ENDBRANCH  22  28
ENDBRANCH  14  15
ENDBRANCH   6  14
TORSDOF 10
ENDMDL
MODEL 2
REMARK VINA RESULT:      -7.2     27.991     30.659
REMARK  Name = 26742249
REMARK  10 active torsions:
REMARK  status: ('A' for Active; 'I' for Inactive)
REMARK    1  A    between atoms: O_1  and  C_9
REMARK    2  A    between atoms: O_3  and  C_27
REMARK    3  A    between atoms: O_3  and  C_29
REMARK    4  A    between atoms: O_4  and  C_28
REMARK    5  A    between atoms: N_6  and  C_14
REMARK    6  A    between atoms: N_7  and  C_8
REMARK    7  A    between atoms: C_14  and  C_15
REMARK    8  A    between atoms: C_16  and  C_19
REMARK    9  A    between atoms: C_22  and  C_28
REMARK   10  A    between atoms: C_29  and  C_30
REMARK                            x       y       z     vdW  Elec       q    Type
REMARK                         _______ _______ _______ _____ _____    ______ ____
ROOT
ATOM      6  N   UNL     1     -10.667 -10.368  17.135  0.00  0.00    -0.296 NA
ATOM      8  C   UNL     1      -9.273  -8.290  16.861  0.00  0.00    +0.116 C 
ATOM      9  C   UNL     1     -10.250  -7.654  15.859  0.00  0.00    +0.136 C 
ATOM     10  C   UNL     1      -9.845  -9.350  17.812  0.00  0.00    +0.109 C 
ATOM     11  C   UNL     1     -11.697  -7.555  16.341  0.00  0.00    +0.034 C 
ATOM     12  C   UNL     1     -12.458  -8.867  16.170  0.00  0.00    +0.018 C 
ATOM     13  C   UNL     1     -12.089  -9.986  17.143  0.00  0.00    +0.085 C 
ENDROOT
BRANCH   8   7
ATOM      2  O   UNL     1      -6.910  -9.436  18.018  0.00  0.00    -0.270 OA
ATOM      7  N   UNL     1      -8.135  -8.837  16.144  0.00  0.00    -0.305 N 
ATOM     16  C   UNL     1      -7.041  -9.369  16.799  0.00  0.00    +0.244 C 
ATOM     36  H   UNL     1      -8.171  -8.807  15.131  0.00  0.00    +0.149 HD
BRANCH  16  19
ATOM     19  C   UNL     1      -5.948  -9.864  15.923  0.00  0.00    +0.037 A 
ATOM     23  C   UNL     1      -6.158  -9.989  14.550  0.00  0.00    +0.016 A 
ATOM     24  C   UNL     1      -4.712 -10.205  16.474  0.00  0.00    +0.016 A 
ATOM     25  C   UNL     1      -5.133 -10.455  13.727  0.00  0.00    +0.046 A 
ATOM     26  C   UNL     1      -3.688 -10.672  15.651  0.00  0.00    +0.046 A 
ATOM     27  C   UNL     1      -3.898 -10.796  14.278  0.00  0.00    +0.121 A 
BRANCH  27   3
ATOM      3  O   UNL     1      -2.897 -11.252  13.476  0.00  0.00    -0.487 OA
BRANCH   3  29
ATOM     29  C   UNL     1      -2.321 -10.318  12.563  0.00  0.00    +0.264 C 
BRANCH  29  30
ATOM     30  C   UNL     1      -3.057 -10.390  11.258  0.00  0.00    -0.010 A 
ATOM     31  C   UNL     1      -3.398  -9.218  10.584  0.00  0.00    +0.007 A 
ATOM     32  C   UNL     1      -3.398 -11.630  10.717  0.00  0.00    +0.007 A 
ATOM     33  C   UNL     1      -4.082  -9.284   9.370  0.00  0.00    +0.000 A 
ATOM     34  C   UNL     1      -4.082 -11.697   9.503  0.00  0.00    +0.000 A 
ATOM     35  C   UNL     1      -4.424 -10.524   8.830  0.00  0.00    +0.000 A 
ENDBRANCH  29  30
ENDBRANCH   3  29
ENDBRANCH  27   3
ENDBRANCH  16  19
ENDBRANCH   8   7
BRANCH   9   1
ATOM      1  O   UNL     1      -9.770  -6.331  15.589  0.00  0.00    -0.390 OA
ATOM     37  H   UNL     1      -8.807  -6.334  15.725  0.00  0.00    +0.210 HD
ENDBRANCH   9   1
BRANCH   6  14
ATOM     14  C   UNL     1     -10.514 -11.659  17.817  0.00  0.00    +0.119 C 
BRANCH  14  15
ATOM     15  C   UNL     1      -9.133 -12.231  17.634  0.00  0.00    -0.033 A 
ATOM     17  C   UNL     1      -8.696 -12.600  16.361  0.00  0.00    +0.006 A 
ATOM     18  C   UNL     1      -8.293 -12.393  18.735  0.00  0.00    +0.006 A 
ATOM     20  C   UNL     1      -7.418 -13.130  16.191  0.00  0.00    +0.015 A 
ATOM     21  C   UNL     1      -7.014 -12.924  18.565  0.00  0.00    +0.015 A 
ATOM     22  C   UNL     1      -6.576 -13.292  17.292  0.00  0.00    +0.059 A 
BRANCH  22  28
ATOM      5  O   UNL     1      -4.831 -14.410  16.097  0.00  0.00    -0.245 OA
ATOM     28  C   UNL     1      -5.243 -13.844  17.114  0.00  0.00    +0.337 C 
BRANCH  28   4
ATOM      4  O   UNL     1      -4.458 -13.672  18.213  0.00  0.00    -0.477 OA
ATOM     38  H   UNL     1      -4.456 -14.467  18.788  0.00  0.00    +0.295 HD
ENDBRANCH  28   4
ENDBRANCH  22  28
ENDBRANCH  14  15
ENDBRANCH   6  14
TORSDOF 10
ENDMDL
MODEL 3
REMARK VINA RESULT:      -6.9     28.734     31.076
REMARK  Name = 26742249
REMARK  10 active torsions:
REMARK  status: ('A' for Active; 'I' for Inactive)
REMARK    1  A    between atoms: O_1  and  C_9
REMARK    2  A    between atoms: O_3  and  C_27
REMARK    3  A    between atoms: O_3  and  C_29
REMARK    4  A    between atoms: O_4  and  C_28
REMARK    5  A    between atoms: N_6  and  C_14
REMARK    6  A    between atoms: N_7  and  C_8
REMARK    7  A    between atoms: C_14  and  C_15
REMARK    8  A    between atoms: C_16  and  C_19
REMARK    9  A    between atoms: C_22  and  C_28
REMARK   10  A    between atoms: C_29  and  C_30
REMARK                            x       y       z     vdW  Elec       q    Type
REMARK                         _______ _______ _______ _____ _____    ______ ____
ROOT
ATOM      6  N   UNL     1      -7.448 -11.319  17.719  0.00  0.00    -0.296 NA
ATOM      8  C   UNL     1      -5.334 -11.974  16.521  0.00  0.00    +0.116 C 
ATOM      9  C   UNL     1      -4.432 -11.197  17.492  0.00  0.00    +0.136 C 
ATOM     10  C   UNL     1      -6.713 -12.401  17.043  0.00  0.00    +0.109 C 
ATOM     11  C   UNL     1      -4.622 -11.544  18.969  0.00  0.00    +0.034 C 
ATOM     12  C   UNL     1      -5.817 -10.824  19.587  0.00  0.00    +0.018 C 
ATOM     13  C   UNL     1      -7.195 -11.337  19.170  0.00  0.00    +0.085 C 
ENDROOT
BRANCH   8   7
ATOM      2  O   UNL     1      -3.629 -12.081  14.216  0.00  0.00    -0.270 OA
ATOM      7  N   UNL     1      -5.488 -11.213  15.293  0.00  0.00    -0.305 N 
ATOM     16  C   UNL     1      -4.607 -11.340  14.237  0.00  0.00    +0.244 C 
ATOM     36  H   UNL     1      -6.272 -10.573  15.244  0.00  0.00    +0.149 HD
BRANCH  16  19
ATOM     19  C   UNL     1      -4.887 -10.473  13.063  0.00  0.00    +0.037 A 
ATOM     23  C   UNL     1      -3.992 -10.437  11.993  0.00  0.00    +0.016 A 
ATOM     24  C   UNL     1      -6.044  -9.694  13.031  0.00  0.00    +0.016 A 
ATOM     25  C   UNL     1      -4.254  -9.623  10.892  0.00  0.00    +0.046 A 
ATOM     26  C   UNL     1      -6.305  -8.879  11.930  0.00  0.00    +0.046 A 
ATOM     27  C   UNL     1      -5.411  -8.844  10.860  0.00  0.00    +0.121 A 
BRANCH  27   3
ATOM      3  O   UNL     1      -5.666  -8.048   9.786  0.00  0.00    -0.487 OA
BRANCH   3  29
ATOM     29  C   UNL     1      -6.533  -8.573   8.781  0.00  0.00    +0.264 C 
BRANCH  29  30
ATOM     30  C   UNL     1      -7.820  -7.801   8.791  0.00  0.00    -0.010 A 
ATOM     31  C   UNL     1      -7.869  -6.520   8.240  0.00  0.00    +0.007 A 
ATOM     32  C   UNL     1      -8.967  -8.365   9.349  0.00  0.00    +0.007 A 
ATOM     33  C   UNL     1      -9.065  -5.803   8.249  0.00  0.00    +0.000 A 
ATOM     34  C   UNL     1     -10.163  -7.647   9.358  0.00  0.00    +0.000 A 
ATOM     35  C   UNL     1     -10.211  -6.366   8.808  0.00  0.00    +0.000 A 
ENDBRANCH  29  30
ENDBRANCH   3  29
ENDBRANCH  27   3
ENDBRANCH  16  19
ENDBRANCH   8   7
BRANCH   9   1
ATOM      1  O   UNL     1      -3.076 -11.488  17.129  0.00  0.00    -0.390 OA
ATOM     37  H   UNL     1      -2.519 -10.773  17.478  0.00  0.00    +0.210 HD
ENDBRANCH   9   1
BRANCH   6  14
ATOM     14  C   UNL     1      -8.889 -11.478  17.483  0.00  0.00    +0.119 C 
BRANCH  14  15
ATOM     15  C   UNL     1      -9.541 -10.178  17.094  0.00  0.00    -0.033 A 
ATOM     17  C   UNL     1      -9.067  -9.463  15.993  0.00  0.00    +0.006 A 
ATOM     18  C   UNL     1     -10.617  -9.688  17.833  0.00  0.00    +0.006 A 
ATOM     20  C   UNL     1      -9.670  -8.258  15.633  0.00  0.00    +0.015 A 
ATOM     21  C   UNL     1     -11.220  -8.483  17.473  0.00  0.00    +0.015 A 
ATOM     22  C   UNL     1     -10.747  -7.768  16.372  0.00  0.00    +0.059 A 
BRANCH  22  28
ATOM      5  O   UNL     1     -12.586  -6.272  16.052  0.00  0.00    -0.245 OA
ATOM     28  C   UNL     1     -11.376  -6.512  15.996  0.00  0.00    +0.337 C 
BRANCH  28   4
ATOM      4  O   UNL     1     -10.475  -5.588  15.561  0.00  0.00    -0.477 OA
ATOM     38  H   UNL     1     -10.660  -5.304  14.641  0.00  0.00    +0.295 HD
ENDBRANCH  28   4
ENDBRANCH  22  28
ENDBRANCH  14  15
ENDBRANCH   6  14
TORSDOF 10
ENDMDL
MODEL 4
REMARK VINA RESULT:      -6.8     27.760     31.405
REMARK  Name = 26742249
REMARK  10 active torsions:
REMARK  status: ('A' for Active; 'I' for Inactive)
REMARK    1  A    between atoms: O_1  and  C_9
REMARK    2  A    between atoms: O_3  and  C_27
REMARK    3  A    between atoms: O_3  and  C_29
REMARK    4  A    between atoms: O_4  and  C_28
REMARK    5  A    between atoms: N_6  and  C_14
REMARK    6  A    between atoms: N_7  and  C_8
REMARK    7  A    between atoms: C_14  and  C_15
REMARK    8  A    between atoms: C_16  and  C_19
REMARK    9  A    between atoms: C_22  and  C_28
REMARK   10  A    between atoms: C_29  and  C_30
REMARK                            x       y       z     vdW  Elec       q    Type
REMARK                         _______ _______ _______ _____ _____    ______ ____
ROOT
ATOM      6  N   UNL     1      -3.027 -10.862  14.260  0.00  0.00    -0.296 NA
ATOM      8  C   UNL     1      -4.705 -12.390  13.172  0.00  0.00    +0.116 C 
ATOM      9  C   UNL     1      -4.638 -11.657  11.823  0.00  0.00    +0.136 C 
ATOM     10  C   UNL     1      -3.490 -12.251  14.101  0.00  0.00    +0.109 C 
ATOM     11  C   UNL     1      -3.234 -11.510  11.237  0.00  0.00    +0.034 C 
ATOM     12  C   UNL     1      -2.467 -10.341  11.850  0.00  0.00    +0.018 C 
ATOM     13  C   UNL     1      -1.973 -10.543  13.282  0.00  0.00    +0.085 C 
ENDROOT
BRANCH   8   7
ATOM      2  O   UNL     1      -5.855 -13.684  15.460  0.00  0.00    -0.270 OA
ATOM      7  N   UNL     1      -5.910 -11.992  13.877  0.00  0.00    -0.305 N 
ATOM     16  C   UNL     1      -6.382 -12.687  14.974  0.00  0.00    +0.244 C 
ATOM     36  H   UNL     1      -6.402 -11.180  13.525  0.00  0.00    +0.149 HD
BRANCH  16  19
ATOM     19  C   UNL     1      -7.641 -12.169  15.568  0.00  0.00    +0.037 A 
ATOM     23  C   UNL     1      -8.203 -12.804  16.675  0.00  0.00    +0.016 A 
ATOM     24  C   UNL     1      -8.263 -11.049  15.015  0.00  0.00    +0.016 A 
ATOM     25  C   UNL     1      -9.386 -12.318  17.231  0.00  0.00    +0.046 A 
ATOM     26  C   UNL     1      -9.447 -10.564  15.571  0.00  0.00    +0.046 A 
ATOM     27  C   UNL     1     -10.008 -11.198  16.679  0.00  0.00    +0.121 A 
BRANCH  27   3
ATOM      3  O   UNL     1     -11.163 -10.724  17.221  0.00  0.00    -0.487 OA
BRANCH   3  29
ATOM     29  C   UNL     1     -11.073  -9.536  18.006  0.00  0.00    +0.264 C 
BRANCH  29  30
ATOM     30  C   UNL     1     -11.574  -8.375  17.198  0.00  0.00    -0.010 A 
ATOM     31  C   UNL     1     -10.742  -7.282  16.956  0.00  0.00    +0.007 A 
ATOM     32  C   UNL     1     -12.873  -8.390  16.688  0.00  0.00    +0.007 A 
ATOM     33  C   UNL     1     -11.208  -6.204  16.205  0.00  0.00    +0.000 A 
ATOM     34  C   UNL     1     -13.339  -7.310  15.937  0.00  0.00    +0.000 A 
ATOM     35  C   UNL     1     -12.506  -6.218  15.696  0.00  0.00    +0.000 A 
ENDBRANCH  29  30
ENDBRANCH   3  29
ENDBRANCH  27   3
ENDBRANCH  16  19
ENDBRANCH   8   7
BRANCH   9   1
ATOM      1  O   UNL     1      -5.438 -12.406  10.899  0.00  0.00    -0.390 OA
ATOM     37  H   UNL     1      -6.350 -12.077  10.968  0.00  0.00    +0.210 HD
ENDBRANCH   9   1
BRANCH   6  14
ATOM     14  C   UNL     1      -2.496 -10.671  15.615  0.00  0.00    +0.119 C 
BRANCH  14  15
ATOM     15  C   UNL     1      -3.571 -10.794  16.662  0.00  0.00    -0.033 A 
ATOM     17  C   UNL     1      -3.453 -11.750  17.672  0.00  0.00    +0.006 A 
ATOM     18  C   UNL     1      -4.683  -9.953  16.622  0.00  0.00    +0.006 A 
ATOM     20  C   UNL     1      -4.449 -11.865  18.641  0.00  0.00    +0.015 A 
ATOM     21  C   UNL     1      -5.679 -10.069  17.593  0.00  0.00    +0.015 A 
ATOM     22  C   UNL     1      -5.562 -11.024  18.603  0.00  0.00    +0.059 A 
BRANCH  22  28
ATOM      5  O   UNL     1      -7.082 -12.204  20.024  0.00  0.00    -0.245 OA
ATOM     28  C   UNL     1      -6.599 -11.144  19.614  0.00  0.00    +0.337 C 
BRANCH  28   4
ATOM      4  O   UNL     1      -7.005  -9.933  20.089  0.00  0.00    -0.477 OA
ATOM     38  H   UNL     1      -6.612  -9.736  20.966  0.00  0.00    +0.295 HD
ENDBRANCH  28   4
ENDBRANCH  22  28
ENDBRANCH  14  15
ENDBRANCH   6  14
TORSDOF 10
ENDMDL
MODEL 5
REMARK VINA RESULT:      -6.7     27.675     32.455
REMARK  Name = 26742249
REMARK  10 active torsions:
REMARK  status: ('A' for Active; 'I' for Inactive)
REMARK    1  A    between atoms: O_1  and  C_9
REMARK    2  A    between atoms: O_3  and  C_27
REMARK    3  A    between atoms: O_3  and  C_29
REMARK    4  A    between atoms: O_4  and  C_28
REMARK    5  A    between atoms: N_6  and  C_14
REMARK    6  A    between atoms: N_7  and  C_8
REMARK    7  A    between atoms: C_14  and  C_15
REMARK    8  A    between atoms: C_16  and  C_19
REMARK    9  A    between atoms: C_22  and  C_28
REMARK   10  A    between atoms: C_29  and  C_30
REMARK                            x       y       z     vdW  Elec       q    Type
REMARK                         _______ _______ _______ _____ _____    ______ ____
ROOT
ATOM      6  N   UNL     1      -8.264 -11.341  18.928  0.00  0.00    -0.296 NA
ATOM      8  C   UNL     1     -10.765 -11.077  18.817  0.00  0.00    +0.116 C 
ATOM      9  C   UNL     1     -10.964 -12.394  18.051  0.00  0.00    +0.136 C 
ATOM     10  C   UNL     1      -9.484 -10.945  19.653  0.00  0.00    +0.109 C 
ATOM     11  C   UNL     1     -10.346 -13.626  18.711  0.00  0.00    +0.034 C 
ATOM     12  C   UNL     1      -8.851 -13.749  18.430  0.00  0.00    +0.018 C 
ATOM     13  C   UNL     1      -7.948 -12.760  19.165  0.00  0.00    +0.085 C 
ENDROOT
BRANCH   8   7
ATOM      2  O   UNL     1     -13.111  -9.523  18.257  0.00  0.00    -0.270 OA
ATOM      7  N   UNL     1     -10.865  -9.961  17.893  0.00  0.00    -0.305 N 
ATOM     16  C   UNL     1     -12.048  -9.276  17.695  0.00  0.00    +0.244 C 
ATOM     36  H   UNL     1     -10.025  -9.707  17.386  0.00  0.00    +0.149 HD
BRANCH  16  19
ATOM     19  C   UNL     1     -11.992  -8.177  16.697  0.00  0.00    +0.037 A 
ATOM     23  C   UNL     1     -12.988  -8.065  15.726  0.00  0.00    +0.016 A 
ATOM     24  C   UNL     1     -10.942  -7.258  16.729  0.00  0.00    +0.016 A 
ATOM     25  C   UNL     1     -12.934  -7.035  14.788  0.00  0.00    +0.046 A 
ATOM     26  C   UNL     1     -10.889  -6.228  15.790  0.00  0.00    +0.046 A 
ATOM     27  C   UNL     1     -11.885  -6.116  14.820  0.00  0.00    +0.121 A 
BRANCH  27   3
ATOM      3  O   UNL     1     -11.832  -5.111  13.904  0.00  0.00    -0.487 OA
BRANCH   3  29
ATOM     29  C   UNL     1     -13.038  -4.387  13.665  0.00  0.00    +0.264 C 
BRANCH  29  30
ATOM     30  C   UNL     1     -13.116  -4.032  12.209  0.00  0.00    -0.010 A 
ATOM     31  C   UNL     1     -11.967  -4.068  11.419  0.00  0.00    +0.007 A 
ATOM     32  C   UNL     1     -14.339  -3.667  11.645  0.00  0.00    +0.007 A 
ATOM     33  C   UNL     1     -12.040  -3.738  10.066  0.00  0.00    +0.000 A 
ATOM     34  C   UNL     1     -14.412  -3.337  10.291  0.00  0.00    +0.000 A 
ATOM     35  C   UNL     1     -13.262  -3.373   9.503  0.00  0.00    +0.000 A 
ENDBRANCH  29  30
ENDBRANCH   3  29
ENDBRANCH  27   3
ENDBRANCH  16  19
ENDBRANCH   8   7
BRANCH   9   1
ATOM      1  O   UNL     1     -12.377 -12.602  17.935  0.00  0.00    -0.390 OA
ATOM     37  H   UNL     1     -12.694 -12.945  18.787  0.00  0.00    +0.210 HD
ENDBRANCH   9   1
BRANCH   6  14
ATOM     14  C   UNL     1      -7.135 -10.518  19.377  0.00  0.00    +0.119 C 
BRANCH  14  15
ATOM     15  C   UNL     1      -5.965 -10.606  18.432  0.00  0.00    -0.033 A 
ATOM     17  C   UNL     1      -4.798 -11.260  18.828  0.00  0.00    +0.006 A 
ATOM     18  C   UNL     1      -6.049 -10.035  17.162  0.00  0.00    +0.006 A 
ATOM     20  C   UNL     1      -3.715 -11.342  17.954  0.00  0.00    +0.015 A 
ATOM     21  C   UNL     1      -4.964 -10.117  16.288  0.00  0.00    +0.015 A 
ATOM     22  C   UNL     1      -3.797 -10.771  16.684  0.00  0.00    +0.059 A 
BRANCH  22  28
ATOM      5  O   UNL     1      -2.716 -10.673  14.552  0.00  0.00    -0.245 OA
ATOM     28  C   UNL     1      -2.668 -10.857  15.773  0.00  0.00    +0.337 C 
BRANCH  28   4
ATOM      4  O   UNL     1      -1.506 -11.169  16.411  0.00  0.00    -0.477 OA
ATOM     38  H   UNL     1      -1.241 -10.469  17.046  0.00  0.00    +0.295 HD
ENDBRANCH  28   4
ENDBRANCH  22  28
ENDBRANCH  14  15
ENDBRANCH   6  14
TORSDOF 10
ENDMDL
MODEL 6
REMARK VINA RESULT:      -6.7      4.724     11.495
REMARK  Name = 26742249
REMARK  10 active torsions:
REMARK  status: ('A' for Active; 'I' for Inactive)
REMARK    1  A    between atoms: O_1  and  C_9
REMARK    2  A    between atoms: O_3  and  C_27
REMARK    3  A    between atoms: O_3  and  C_29
REMARK    4  A    between atoms: O_4  and  C_28
REMARK    5  A    between atoms: N_6  and  C_14
REMARK    6  A    between atoms: N_7  and  C_8
REMARK    7  A    between atoms: C_14  and  C_15
REMARK    8  A    between atoms: C_16  and  C_19
REMARK    9  A    between atoms: C_22  and  C_28
REMARK   10  A    between atoms: C_29  and  C_30
REMARK                            x       y       z     vdW  Elec       q    Type
REMARK                         _______ _______ _______ _____ _____    ______ ____
ROOT
ATOM      6  N   UNL     1      25.064  -0.450  24.778  0.00  0.00    -0.296 NA
ATOM      8  C   UNL     1      23.658   1.000  26.281  0.00  0.00    +0.116 C 
ATOM      9  C   UNL     1      22.696  -0.143  26.640  0.00  0.00    +0.136 C 
ATOM     10  C   UNL     1      25.064   0.603  25.808  0.00  0.00    +0.109 C 
ATOM     11  C   UNL     1      23.365  -1.403  27.188  0.00  0.00    +0.034 C 
ATOM     12  C   UNL     1      23.925  -2.293  26.081  0.00  0.00    +0.018 C 
ATOM     13  C   UNL     1      25.189  -1.784  25.390  0.00  0.00    +0.085 C 
ENDROOT
BRANCH   8   7
ATOM      2  O   UNL     1      24.660   3.516  25.331  0.00  0.00    -0.270 OA
ATOM      7  N   UNL     1      23.035   1.864  25.294  0.00  0.00    -0.305 N 
ATOM     16  C   UNL     1      23.602   3.061  24.904  0.00  0.00    +0.244 C 
ATOM     36  H   UNL     1      22.152   1.554  24.904  0.00  0.00    +0.149 HD
BRANCH  16  19
ATOM     19  C   UNL     1      22.827   3.842  23.905  0.00  0.00    +0.037 A 
ATOM     23  C   UNL     1      22.563   5.193  24.129  0.00  0.00    +0.016 A 
ATOM     24  C   UNL     1      22.362   3.222  22.745  0.00  0.00    +0.016 A 
ATOM     25  C   UNL     1      21.833   5.925  23.192  0.00  0.00    +0.046 A 
ATOM     26  C   UNL     1      21.632   3.955  21.809  0.00  0.00    +0.046 A 
ATOM     27  C   UNL     1      21.368   5.306  22.032  0.00  0.00    +0.121 A 
BRANCH  27   3
ATOM      3  O   UNL     1      20.656   6.020  21.118  0.00  0.00    -0.487 OA
BRANCH   3  29
ATOM     29  C   UNL     1      19.696   6.948  21.624  0.00  0.00    +0.264 C 
BRANCH  29  30
ATOM     30  C   UNL     1      18.423   6.811  20.842  0.00  0.00    -0.010 A 
ATOM     31  C   UNL     1      17.321   7.606  21.158  0.00  0.00    +0.007 A 
ATOM     32  C   UNL     1      18.341   5.889  19.799  0.00  0.00    +0.007 A 
ATOM     33  C   UNL     1      16.138   7.480  20.432  0.00  0.00    +0.000 A 
ATOM     34  C   UNL     1      17.156   5.762  19.071  0.00  0.00    +0.000 A 
ATOM     35  C   UNL     1      16.056   6.557  19.389  0.00  0.00    +0.000 A 
ENDBRANCH  29  30
ENDBRANCH   3  29
ENDBRANCH  27   3
ENDBRANCH  16  19
ENDBRANCH   8   7
BRANCH   9   1
ATOM      1  O   UNL     1      21.797   0.363  27.635  0.00  0.00    -0.390 OA
ATOM     37  H   UNL     1      22.265   0.350  28.487  0.00  0.00    +0.210 HD
ENDBRANCH   9   1
BRANCH   6  14
ATOM     14  C   UNL     1      26.187  -0.239  23.857  0.00  0.00    +0.119 C 
BRANCH  14  15
ATOM     15  C   UNL     1      25.839   0.735  22.762  0.00  0.00    -0.033 A 
ATOM     17  C   UNL     1      26.621   1.874  22.569  0.00  0.00    +0.006 A 
ATOM     18  C   UNL     1      24.737   0.497  21.941  0.00  0.00    +0.006 A 
ATOM     20  C   UNL     1      26.299   2.776  21.556  0.00  0.00    +0.015 A 
ATOM     21  C   UNL     1      24.415   1.401  20.927  0.00  0.00    +0.015 A 
ATOM     22  C   UNL     1      25.197   2.540  20.734  0.00  0.00    +0.059 A 
BRANCH  22  28
ATOM      5  O   UNL     1      24.685   4.693  19.827  0.00  0.00    -0.245 OA
ATOM     28  C   UNL     1      24.862   3.480  19.677  0.00  0.00    +0.337 C 
BRANCH  28   4
ATOM      4  O   UNL     1      24.759   2.879  18.460  0.00  0.00    -0.477 OA
ATOM     38  H   UNL     1      24.097   2.155  18.466  0.00  0.00    +0.295 HD
ENDBRANCH  28   4
ENDBRANCH  22  28
ENDBRANCH  14  15
ENDBRANCH   6  14
TORSDOF 10
ENDMDL
MODEL 7
REMARK VINA RESULT:      -6.6     15.479     17.535
REMARK  Name = 26742249
REMARK  10 active torsions:
REMARK  status: ('A' for Active; 'I' for Inactive)
REMARK    1  A    between atoms: O_1  and  C_9
REMARK    2  A    between atoms: O_3  and  C_27
REMARK    3  A    between atoms: O_3  and  C_29
REMARK    4  A    between atoms: O_4  and  C_28
REMARK    5  A    between atoms: N_6  and  C_14
REMARK    6  A    between atoms: N_7  and  C_8
REMARK    7  A    between atoms: C_14  and  C_15
REMARK    8  A    between atoms: C_16  and  C_19
REMARK    9  A    between atoms: C_22  and  C_28
REMARK   10  A    between atoms: C_29  and  C_30
REMARK                            x       y       z     vdW  Elec       q    Type
REMARK                         _______ _______ _______ _____ _____    ______ ____
ROOT
ATOM      6  N   UNL     1       9.741   5.875   5.379  0.00  0.00    -0.296 NA
ATOM      8  C   UNL     1      11.093   7.183   7.051  0.00  0.00    +0.116 C 
ATOM      9  C   UNL     1      10.148   8.394   7.008  0.00  0.00    +0.136 C 
ATOM     10  C   UNL     1      10.505   5.827   6.638  0.00  0.00    +0.109 C 
ATOM     11  C   UNL     1       8.678   8.077   7.283  0.00  0.00    +0.034 C 
ATOM     12  C   UNL     1       7.959   7.539   6.049  0.00  0.00    +0.018 C 
ATOM     13  C   UNL     1       8.311   6.109   5.641  0.00  0.00    +0.085 C 
ENDROOT
BRANCH   8   7
ATOM      2  O   UNL     1      13.762   6.267   7.572  0.00  0.00    -0.270 OA
ATOM      7  N   UNL     1      12.277   7.467   6.259  0.00  0.00    -0.305 N 
ATOM     16  C   UNL     1      13.522   6.974   6.598  0.00  0.00    +0.244 C 
ATOM     36  H   UNL     1      12.153   8.053   5.442  0.00  0.00    +0.149 HD
BRANCH  16  19
ATOM     19  C   UNL     1      14.636   7.376   5.700  0.00  0.00    +0.037 A 
ATOM     23  C   UNL     1      14.591   7.050   4.344  0.00  0.00    +0.016 A 
ATOM     24  C   UNL     1      15.727   8.078   6.213  0.00  0.00    +0.016 A 
ATOM     25  C   UNL     1      15.637   7.426   3.502  0.00  0.00    +0.046 A 
ATOM     26  C   UNL     1      16.773   8.453   5.371  0.00  0.00    +0.046 A 
ATOM     27  C   UNL     1      16.728   8.128   4.015  0.00  0.00    +0.121 A 
BRANCH  27   3
ATOM      3  O   UNL     1      17.749   8.494   3.193  0.00  0.00    -0.487 OA
BRANCH   3  29
ATOM     29  C   UNL     1      18.891   9.093   3.804  0.00  0.00    +0.264 C 
BRANCH  29  30
ATOM     30  C   UNL     1      20.008   8.092   3.842  0.00  0.00    -0.010 A 
ATOM     31  C   UNL     1      20.381   7.509   5.053  0.00  0.00    +0.007 A 
ATOM     32  C   UNL     1      20.673   7.744   2.666  0.00  0.00    +0.007 A 
ATOM     33  C   UNL     1      21.419   6.578   5.089  0.00  0.00    +0.000 A 
ATOM     34  C   UNL     1      21.712   6.813   2.702  0.00  0.00    +0.000 A 
ATOM     35  C   UNL     1      22.084   6.231   3.913  0.00  0.00    +0.000 A 
ENDBRANCH  29  30
ENDBRANCH   3  29
ENDBRANCH  27   3
ENDBRANCH  16  19
ENDBRANCH   8   7
BRANCH   9   1
ATOM      1  O   UNL     1      10.607   9.319   8.003  0.00  0.00    -0.390 OA
ATOM     37  H   UNL     1      10.900   8.801   8.772  0.00  0.00    +0.210 HD
ENDBRANCH   9   1
BRANCH   6  14
ATOM     14  C   UNL     1       9.894   4.604   4.660  0.00  0.00    +0.119 C 
BRANCH  14  15
ATOM     15  C   UNL     1      10.834   4.731   3.491  0.00  0.00    -0.033 A 
ATOM     17  C   UNL     1      11.293   3.586   2.839  0.00  0.00    +0.006 A 
ATOM     18  C   UNL     1      11.247   5.992   3.060  0.00  0.00    +0.006 A 
ATOM     20  C   UNL     1      12.164   3.703   1.756  0.00  0.00    +0.015 A 
ATOM     21  C   UNL     1      12.119   6.108   1.977  0.00  0.00    +0.015 A 
ATOM     22  C   UNL     1      12.577   4.963   1.324  0.00  0.00    +0.059 A 
BRANCH  22  28
ATOM      5  O   UNL     1      13.904   6.146  -0.276  0.00  0.00    -0.245 OA
ATOM     28  C   UNL     1      13.484   5.085   0.195  0.00  0.00    +0.337 C 
BRANCH  28   4
ATOM      4  O   UNL     1      13.847   3.875  -0.314  0.00  0.00    -0.477 OA
ATOM     38  H   UNL     1      13.896   3.186   0.383  0.00  0.00    +0.295 HD
ENDBRANCH  28   4
ENDBRANCH  22  28
ENDBRANCH  14  15
ENDBRANCH   6  14
TORSDOF 10
ENDMDL
MODEL 8
REMARK VINA RESULT:      -6.6     28.663     30.937
REMARK  Name = 26742249
REMARK  10 active torsions:
REMARK  status: ('A' for Active; 'I' for Inactive)
REMARK    1  A    between atoms: O_1  and  C_9
REMARK    2  A    between atoms: O_3  and  C_27
REMARK    3  A    between atoms: O_3  and  C_29
REMARK    4  A    between atoms: O_4  and  C_28
REMARK    5  A    between atoms: N_6  and  C_14
REMARK    6  A    between atoms: N_7  and  C_8
REMARK    7  A    between atoms: C_14  and  C_15
REMARK    8  A    between atoms: C_16  and  C_19
REMARK    9  A    between atoms: C_22  and  C_28
REMARK   10  A    between atoms: C_29  and  C_30
REMARK                            x       y       z     vdW  Elec       q    Type
REMARK                         _______ _______ _______ _____ _____    ______ ____
ROOT
ATOM      6  N   UNL     1      -7.531 -11.263  17.712  0.00  0.00    -0.296 NA
ATOM      8  C   UNL     1      -5.328 -11.959  16.714  0.00  0.00    +0.116 C 
ATOM      9  C   UNL     1      -4.507 -11.127  17.711  0.00  0.00    +0.136 C 
ATOM     10  C   UNL     1      -6.741 -12.372  17.150  0.00  0.00    +0.109 C 
ATOM     11  C   UNL     1      -4.808 -11.401  19.184  0.00  0.00    +0.034 C 
ATOM     12  C   UNL     1      -6.051 -10.661  19.671  0.00  0.00    +0.018 C 
ATOM     13  C   UNL     1      -7.390 -11.206  19.177  0.00  0.00    +0.085 C 
ENDROOT
BRANCH   8   7
ATOM      2  O   UNL     1      -3.442 -12.155  14.560  0.00  0.00    -0.270 OA
ATOM      7  N   UNL     1      -5.391 -11.262  15.441  0.00  0.00    -0.305 N 
ATOM     16  C   UNL     1      -4.427 -11.428  14.466  0.00  0.00    +0.244 C 
ATOM     36  H   UNL     1      -6.175 -10.637  15.297  0.00  0.00    +0.149 HD
BRANCH  16  19
ATOM     19  C   UNL     1      -4.621 -10.624  13.231  0.00  0.00    +0.037 A 
ATOM     23  C   UNL     1      -3.592 -10.527  12.294  0.00  0.00    +0.016 A 
ATOM     24  C   UNL     1      -5.830  -9.966  13.010  0.00  0.00    +0.016 A 
ATOM     25  C   UNL     1      -3.773  -9.771  11.136  0.00  0.00    +0.046 A 
ATOM     26  C   UNL     1      -6.011  -9.210  11.853  0.00  0.00    +0.046 A 
ATOM     27  C   UNL     1      -4.983  -9.113  10.915  0.00  0.00    +0.121 A 
BRANCH  27   3
ATOM      3  O   UNL     1      -5.160  -8.375   9.785  0.00  0.00    -0.487 OA
BRANCH   3  29
ATOM     29  C   UNL     1      -6.436  -8.453   9.152  0.00  0.00    +0.264 C 
BRANCH  29  30
ATOM     30  C   UNL     1      -6.300  -9.212   7.865  0.00  0.00    -0.010 A 
ATOM     31  C   UNL     1      -5.294 -10.168   7.722  0.00  0.00    +0.007 A 
ATOM     32  C   UNL     1      -7.180  -8.962   6.812  0.00  0.00    +0.007 A 
ATOM     33  C   UNL     1      -5.167 -10.874   6.526  0.00  0.00    +0.000 A 
ATOM     34  C   UNL     1      -7.053  -9.669   5.615  0.00  0.00    +0.000 A 
ATOM     35  C   UNL     1      -6.046 -10.624   5.473  0.00  0.00    +0.000 A 
ENDBRANCH  29  30
ENDBRANCH   3  29
ENDBRANCH  27   3
ENDBRANCH  16  19
ENDBRANCH   8   7
BRANCH   9   1
ATOM      1  O   UNL     1      -3.126 -11.424  17.467  0.00  0.00    -0.390 OA
ATOM     37  H   UNL     1      -3.067 -12.362  17.217  0.00  0.00    +0.210 HD
ENDBRANCH   9   1
BRANCH   6  14
ATOM     14  C   UNL     1      -8.948 -11.446  17.375  0.00  0.00    +0.119 C 
BRANCH  14  15
ATOM     15  C   UNL     1      -9.617 -10.141  17.032  0.00  0.00    -0.033 A 
ATOM     17  C   UNL     1     -10.908  -9.878  17.493  0.00  0.00    +0.006 A 
ATOM     18  C   UNL     1      -8.947  -9.196  16.255  0.00  0.00    +0.006 A 
ATOM     20  C   UNL     1     -11.528  -8.670  17.176  0.00  0.00    +0.015 A 
ATOM     21  C   UNL     1      -9.568  -7.988  15.938  0.00  0.00    +0.015 A 
ATOM     22  C   UNL     1     -10.859  -7.724  16.399  0.00  0.00    +0.059 A 
BRANCH  22  28
ATOM      5  O   UNL     1     -12.718  -6.241  16.140  0.00  0.00    -0.245 OA
ATOM     28  C   UNL     1     -11.505  -6.465  16.069  0.00  0.00    +0.337 C 
BRANCH  28   4
ATOM      4  O   UNL     1     -10.618  -5.516  15.661  0.00  0.00    -0.477 OA
ATOM     38  H   UNL     1      -9.909  -5.372  16.323  0.00  0.00    +0.295 HD
ENDBRANCH  28   4
ENDBRANCH  22  28
ENDBRANCH  14  15
ENDBRANCH   6  14
TORSDOF 10
ENDMDL
MODEL 9
REMARK VINA RESULT:      -6.6     28.917     31.468
REMARK  Name = 26742249
REMARK  10 active torsions:
REMARK  status: ('A' for Active; 'I' for Inactive)
REMARK    1  A    between atoms: O_1  and  C_9
REMARK    2  A    between atoms: O_3  and  C_27
REMARK    3  A    between atoms: O_3  and  C_29
REMARK    4  A    between atoms: O_4  and  C_28
REMARK    5  A    between atoms: N_6  and  C_14
REMARK    6  A    between atoms: N_7  and  C_8
REMARK    7  A    between atoms: C_14  and  C_15
REMARK    8  A    between atoms: C_16  and  C_19
REMARK    9  A    between atoms: C_22  and  C_28
REMARK   10  A    between atoms: C_29  and  C_30
REMARK                            x       y       z     vdW  Elec       q    Type
REMARK                         _______ _______ _______ _____ _____    ______ ____
ROOT
ATOM      6  N   UNL     1     -11.691  -6.060   9.929  0.00  0.00    -0.296 NA
ATOM      8  C   UNL     1     -12.859  -5.722  12.132  0.00  0.00    +0.116 C 
ATOM      9  C   UNL     1     -12.518  -4.225  12.190  0.00  0.00    +0.136 C 
ATOM     10  C   UNL     1     -12.875  -6.379  10.745  0.00  0.00    +0.109 C 
ATOM     11  C   UNL     1     -12.938  -3.418  10.962  0.00  0.00    +0.034 C 
ATOM     12  C   UNL     1     -11.941  -3.547   9.813  0.00  0.00    +0.018 C 
ATOM     13  C   UNL     1     -11.940  -4.885   9.076  0.00  0.00    +0.085 C 
ENDROOT
BRANCH   8   7
ATOM      2  O   UNL     1     -13.332  -6.387  14.884  0.00  0.00    -0.270 OA
ATOM      7  N   UNL     1     -11.966  -6.455  13.012  0.00  0.00    -0.305 N 
ATOM     16  C   UNL     1     -12.290  -6.724  14.328  0.00  0.00    +0.244 C 
ATOM     36  H   UNL     1     -11.082  -6.758  12.621  0.00  0.00    +0.149 HD
BRANCH  16  19
ATOM     19  C   UNL     1     -11.259  -7.461  15.103  0.00  0.00    +0.037 A 
ATOM     23  C   UNL     1     -10.704  -8.632  14.588  0.00  0.00    +0.016 A 
ATOM     24  C   UNL     1     -10.847  -6.982  16.347  0.00  0.00    +0.016 A 
ATOM     25  C   UNL     1      -9.736  -9.325  15.316  0.00  0.00    +0.046 A 
ATOM     26  C   UNL     1      -9.881  -7.675  17.075  0.00  0.00    +0.046 A 
ATOM     27  C   UNL     1      -9.325  -8.846  16.560  0.00  0.00    +0.121 A 
BRANCH  27   3
ATOM      3  O   UNL     1      -8.381  -9.522  17.271  0.00  0.00    -0.487 OA
BRANCH   3  29
ATOM     29  C   UNL     1      -7.037  -9.449  16.799  0.00  0.00    +0.264 C 
BRANCH  29  30
ATOM     30  C   UNL     1      -6.159 -10.280  17.688  0.00  0.00    -0.010 A 
ATOM     31  C   UNL     1      -4.898 -10.680  17.247  0.00  0.00    +0.007 A 
ATOM     32  C   UNL     1      -6.604 -10.651  18.957  0.00  0.00    +0.007 A 
ATOM     33  C   UNL     1      -4.082 -11.452  18.073  0.00  0.00    +0.000 A 
ATOM     34  C   UNL     1      -5.788 -11.424  19.784  0.00  0.00    +0.000 A 
ATOM     35  C   UNL     1      -4.527 -11.824  19.341  0.00  0.00    +0.000 A 
ENDBRANCH  29  30
ENDBRANCH   3  29
ENDBRANCH  27   3
ENDBRANCH  16  19
ENDBRANCH   8   7
BRANCH   9   1
ATOM      1  O   UNL     1     -13.188  -3.686  13.338  0.00  0.00    -0.390 OA
ATOM     37  H   UNL     1     -14.135  -3.630  13.125  0.00  0.00    +0.210 HD
ENDBRANCH   9   1
BRANCH   6  14
ATOM     14  C   UNL     1     -11.356  -7.207   9.077  0.00  0.00    +0.119 C 
BRANCH  14  15
ATOM     15  C   UNL     1      -9.887  -7.535   9.128  0.00  0.00    -0.033 A 
ATOM     17  C   UNL     1      -8.980  -6.785   8.379  0.00  0.00    +0.006 A 
ATOM     18  C   UNL     1      -9.434  -8.587   9.924  0.00  0.00    +0.006 A 
ATOM     20  C   UNL     1      -7.620  -7.089   8.426  0.00  0.00    +0.015 A 
ATOM     21  C   UNL     1      -8.073  -8.891   9.971  0.00  0.00    +0.015 A 
ATOM     22  C   UNL     1      -7.165  -8.140   9.222  0.00  0.00    +0.059 A 
BRANCH  22  28
ATOM      5  O   UNL     1      -5.016  -8.318  10.257  0.00  0.00    -0.245 OA
ATOM     28  C   UNL     1      -5.747  -8.456   9.271  0.00  0.00    +0.337 C 
BRANCH  28   4
ATOM      4  O   UNL     1      -5.280  -8.939   8.087  0.00  0.00    -0.477 OA
ATOM     38  H   UNL     1      -4.496  -9.516   8.213  0.00  0.00    +0.295 HD
ENDBRANCH  28   4
ENDBRANCH  22  28
ENDBRANCH  14  15
ENDBRANCH   6  14
TORSDOF 10
ENDMDL
MODEL 10
REMARK VINA RESULT:      -6.5     25.118     27.197
REMARK  Name = 26742249
REMARK  10 active torsions:
REMARK  status: ('A' for Active; 'I' for Inactive)
REMARK    1  A    between atoms: O_1  and  C_9
REMARK    2  A    between atoms: O_3  and  C_27
REMARK    3  A    between atoms: O_3  and  C_29
REMARK    4  A    between atoms: O_4  and  C_28
REMARK    5  A    between atoms: N_6  and  C_14
REMARK    6  A    between atoms: N_7  and  C_8
REMARK    7  A    between atoms: C_14  and  C_15
REMARK    8  A    between atoms: C_16  and  C_19
REMARK    9  A    between atoms: C_22  and  C_28
REMARK   10  A    between atoms: C_29  and  C_30
REMARK                            x       y       z     vdW  Elec       q    Type
REMARK                         _______ _______ _______ _____ _____    ______ ____
ROOT
ATOM      6  N   UNL     1      18.626  -3.636  -3.030  0.00  0.00    -0.296 NA
ATOM      8  C   UNL     1      20.432  -4.065  -1.331  0.00  0.00    +0.116 C 
ATOM      9  C   UNL     1      21.536  -4.179  -2.394  0.00  0.00    +0.136 C 
ATOM     10  C   UNL     1      19.177  -3.270  -1.714  0.00  0.00    +0.109 C 
ATOM     11  C   UNL     1      21.640  -2.989  -3.347  0.00  0.00    +0.034 C 
ATOM     12  C   UNL     1      20.617  -3.058  -4.478  0.00  0.00    +0.018 C 
ATOM     13  C   UNL     1      19.169  -2.766  -4.087  0.00  0.00    +0.085 C 
ENDROOT
BRANCH   8   7
ATOM      2  O   UNL     1      21.512  -5.488   0.916  0.00  0.00    -0.270 OA
ATOM      7  N   UNL     1      20.055  -5.394  -0.884  0.00  0.00    -0.305 N 
ATOM     16  C   UNL     1      20.639  -5.992   0.216  0.00  0.00    +0.244 C 
ATOM     36  H   UNL     1      19.343  -5.875  -1.421  0.00  0.00    +0.149 HD
BRANCH  16  19
ATOM     19  C   UNL     1      20.161  -7.364   0.528  0.00  0.00    +0.037 A 
ATOM     23  C   UNL     1      19.594  -8.150  -0.476  0.00  0.00    +0.016 A 
ATOM     24  C   UNL     1      20.277  -7.866   1.824  0.00  0.00    +0.016 A 
ATOM     25  C   UNL     1      19.144  -9.437  -0.184  0.00  0.00    +0.046 A 
ATOM     26  C   UNL     1      19.826  -9.153   2.117  0.00  0.00    +0.046 A 
ATOM     27  C   UNL     1      19.260  -9.938   1.113  0.00  0.00    +0.121 A 
BRANCH  27   3
ATOM      3  O   UNL     1      18.820 -11.195   1.399  0.00  0.00    -0.487 OA
BRANCH   3  29
ATOM     29  C   UNL     1      17.413 -11.371   1.552  0.00  0.00    +0.264 C 
BRANCH  29  30
ATOM     30  C   UNL     1      17.132 -11.905   2.926  0.00  0.00    -0.010 A 
ATOM     31  C   UNL     1      18.009 -12.818   3.512  0.00  0.00    +0.007 A 
ATOM     32  C   UNL     1      15.994 -11.488   3.616  0.00  0.00    +0.007 A 
ATOM     33  C   UNL     1      17.748 -13.314   4.788  0.00  0.00    +0.000 A 
ATOM     34  C   UNL     1      15.733 -11.985   4.894  0.00  0.00    +0.000 A 
ATOM     35  C   UNL     1      16.610 -12.899   5.479  0.00  0.00    +0.000 A 
ENDBRANCH  29  30
ENDBRANCH   3  29
ENDBRANCH  27   3
ENDBRANCH  16  19
ENDBRANCH   8   7
BRANCH   9   1
ATOM      1  O   UNL     1      22.781  -4.310  -1.694  0.00  0.00    -0.390 OA
ATOM     37  H   UNL     1      23.256  -5.065  -2.080  0.00  0.00    +0.210 HD
ENDBRANCH   9   1
BRANCH   6  14
ATOM     14  C   UNL     1      17.164  -3.506  -3.007  0.00  0.00    +0.119 C 
BRANCH  14  15
ATOM     15  C   UNL     1      16.480  -4.838  -3.167  0.00  0.00    -0.033 A 
ATOM     17  C   UNL     1      17.208  -6.018  -3.013  0.00  0.00    +0.006 A 
ATOM     18  C   UNL     1      15.120  -4.892  -3.471  0.00  0.00    +0.006 A 
ATOM     20  C   UNL     1      16.575  -7.251  -3.162  0.00  0.00    +0.015 A 
ATOM     21  C   UNL     1      14.487  -6.126  -3.620  0.00  0.00    +0.015 A 
ATOM     22  C   UNL     1      15.215  -7.307  -3.464  0.00  0.00    +0.059 A 
BRANCH  22  28
ATOM      5  O   UNL     1      14.317  -9.151  -4.695  0.00  0.00    -0.245 OA
ATOM     28  C   UNL     1      14.555  -8.593  -3.619  0.00  0.00    +0.337 C 
BRANCH  28   4
ATOM      4  O   UNL     1      14.212  -9.149  -2.424  0.00  0.00    -0.477 OA
ATOM     38  H   UNL     1      13.280  -9.456  -2.420  0.00  0.00    +0.295 HD
ENDBRANCH  28   4
ENDBRANCH  22  28
ENDBRANCH  14  15
ENDBRANCH   6  14
TORSDOF 10
ENDMDL
