MODEL 1
REMARK VINA RESULT:      -7.0      0.000      0.000
REMARK  Name = 45783306
REMARK  2 active torsions:
REMARK  status: ('A' for Active; 'I' for Inactive)
REMARK    1  A    between atoms: C_8  and  C_12
REMARK    2  A    between atoms: C_18  and  C_19
REMARK                            x       y       z     vdW  Elec       q    Type
REMARK                         _______ _______ _______ _____ _____    ______ ____
ROOT
ATOM      2  O   UNL     1      11.589  13.753  24.358  0.00  0.00    -0.377 OA
ATOM      4  N   UNL     1      11.475  11.369  22.874  0.00  0.00    -0.311 N 
ATOM      7  N   UNL     1      10.647   9.153  22.818  0.00  0.00    -0.240 NA
ATOM     13  C   UNL     1      10.913  12.609  22.329  0.00  0.00    +0.134 C 
ATOM     14  C   UNL     1      11.596  11.327  24.338  0.00  0.00    +0.134 C 
ATOM     15  C   UNL     1      11.630  13.810  22.933  0.00  0.00    +0.178 C 
ATOM     16  C   UNL     1      12.279  12.596  24.835  0.00  0.00    +0.178 C 
ATOM     17  C   UNL     1      11.294  10.162  22.192  0.00  0.00    +0.122 A 
ATOM     19  C   UNL     1      11.625   8.885  20.213  0.00  0.00    +0.027 A 
ATOM     20  C   UNL     1      11.797  10.079  20.903  0.00  0.00    +0.055 A 
ATOM     21  C   UNL     1      10.965   7.824  20.824  0.00  0.00    +0.031 A 
ATOM     22  C   UNL     1      10.499   8.007  22.115  0.00  0.00    +0.113 A 
ENDROOT
BRANCH  19  18
ATOM      1  O   UNL     1      12.627   7.937  16.961  0.00  0.00    -0.336 OA
ATOM      5  N   UNL     1      12.753   9.776  18.235  0.00  0.00    -0.190 NA
ATOM      6  N   UNL     1      12.012   7.612  18.177  0.00  0.00    -0.056 NA
ATOM     12  C   UNL     1      13.035   9.228  17.080  0.00  0.00    +0.245 A 
ATOM     18  C   UNL     1      12.125   8.746  18.875  0.00  0.00    +0.202 A 
BRANCH  12   8
ATOM      3  N   UNL     1      12.821  10.619  15.048  0.00  0.00    -0.305 NA
ATOM      8  C   UNL     1      13.738   9.824  15.882  0.00  0.00    +0.143 C 
ATOM      9  C   UNL     1      14.887  10.777  16.245  0.00  0.00    +0.029 C 
ATOM     10  C   UNL     1      14.561  12.078  15.527  0.00  0.00    +0.017 C 
ATOM     11  C   UNL     1      13.636  11.646  14.409  0.00  0.00    +0.081 C 
ATOM     23  H   UNL     1      12.144  11.086  15.653  0.00  0.00    +0.123 HD
ENDBRANCH  12   8
ENDBRANCH  19  18
TORSDOF 2
ENDMDL
MODEL 2
REMARK VINA RESULT:      -6.6      1.788      7.635
REMARK  Name = 45783306
REMARK  2 active torsions:
REMARK  status: ('A' for Active; 'I' for Inactive)
REMARK    1  A    between atoms: C_8  and  C_12
REMARK    2  A    between atoms: C_18  and  C_19
REMARK                            x       y       z     vdW  Elec       q    Type
REMARK                         _______ _______ _______ _____ _____    ______ ____
ROOT
ATOM      2  O   UNL     1      13.225   9.016  15.613  0.00  0.00    -0.377 OA
ATOM      4  N   UNL     1      12.253   9.048  18.250  0.00  0.00    -0.311 N 
ATOM      7  N   UNL     1      11.084   7.825  19.904  0.00  0.00    -0.240 NA
ATOM     13  C   UNL     1      13.692   9.161  17.989  0.00  0.00    +0.134 C 
ATOM     14  C   UNL     1      11.470   8.418  17.177  0.00  0.00    +0.134 C 
ATOM     15  C   UNL     1      13.920   9.766  16.609  0.00  0.00    +0.178 C 
ATOM     16  C   UNL     1      11.816   9.064  15.841  0.00  0.00    +0.178 C 
ATOM     17  C   UNL     1      11.790   8.927  19.564  0.00  0.00    +0.122 A 
ATOM     19  C   UNL     1      11.632   9.853  21.749  0.00  0.00    +0.027 A 
ATOM     20  C   UNL     1      12.087   9.959  20.439  0.00  0.00    +0.055 A 
ATOM     21  C   UNL     1      10.903   8.734  22.137  0.00  0.00    +0.031 A 
ATOM     22  C   UNL     1      10.658   7.757  21.186  0.00  0.00    +0.113 A 
ENDROOT
BRANCH  19  18
ATOM      1  O   UNL     1      12.872  12.495  23.737  0.00  0.00    -0.336 OA
ATOM      5  N   UNL     1      11.059  11.180  23.721  0.00  0.00    -0.190 NA
ATOM      6  N   UNL     1      13.023  11.637  22.640  0.00  0.00    -0.056 NA
ATOM     12  C   UNL     1      11.691  12.159  24.318  0.00  0.00    +0.245 A 
ATOM     18  C   UNL     1      11.915  10.893  22.697  0.00  0.00    +0.202 A 
BRANCH  12   8
ATOM      3  N   UNL     1      12.466  13.474  26.261  0.00  0.00    -0.305 NA
ATOM      8  C   UNL     1      11.292  12.952  25.542  0.00  0.00    +0.143 C 
ATOM      9  C   UNL     1      10.424  14.180  25.233  0.00  0.00    +0.029 C 
ATOM     10  C   UNL     1      11.163  15.352  25.863  0.00  0.00    +0.017 C 
ATOM     11  C   UNL     1      12.030  14.701  26.919  0.00  0.00    +0.081 C 
ATOM     23  H   UNL     1      13.188  13.721  25.582  0.00  0.00    +0.123 HD
ENDBRANCH  12   8
ENDBRANCH  19  18
TORSDOF 2
ENDMDL
MODEL 3
REMARK VINA RESULT:      -6.4     28.303     29.677
REMARK  Name = 45783306
REMARK  2 active torsions:
REMARK  status: ('A' for Active; 'I' for Inactive)
REMARK    1  A    between atoms: C_8  and  C_12
REMARK    2  A    between atoms: C_18  and  C_19
REMARK                            x       y       z     vdW  Elec       q    Type
REMARK                         _______ _______ _______ _____ _____    ______ ____
ROOT
ATOM      2  O   UNL     1     -12.383  11.385  34.148  0.00  0.00    -0.377 OA
ATOM      4  N   UNL     1     -13.048   8.655  34.119  0.00  0.00    -0.311 N 
ATOM      7  N   UNL     1     -13.477   6.745  35.450  0.00  0.00    -0.240 NA
ATOM     13  C   UNL     1     -13.968   9.648  33.554  0.00  0.00    +0.134 C 
ATOM     14  C   UNL     1     -12.094   9.176  35.108  0.00  0.00    +0.134 C 
ATOM     15  C   UNL     1     -13.185  10.868  33.087  0.00  0.00    +0.178 C 
ATOM     16  C   UNL     1     -11.410  10.422  34.557  0.00  0.00    +0.178 C 
ATOM     17  C   UNL     1     -13.444   7.317  34.226  0.00  0.00    +0.122 A 
ATOM     19  C   UNL     1     -14.173   5.329  33.142  0.00  0.00    +0.027 A 
ATOM     20  C   UNL     1     -13.778   6.660  33.052  0.00  0.00    +0.055 A 
ATOM     21  C   UNL     1     -14.220   4.706  34.385  0.00  0.00    +0.031 A 
ATOM     22  C   UNL     1     -13.866   5.451  35.497  0.00  0.00    +0.113 A 
ENDROOT
BRANCH  19  18
ATOM      1  O   UNL     1     -15.380   4.079  30.067  0.00  0.00    -0.336 OA
ATOM      5  N   UNL     1     -14.106   3.322  31.748  0.00  0.00    -0.190 NA
ATOM      6  N   UNL     1     -15.299   5.125  30.997  0.00  0.00    -0.056 NA
ATOM     12  C   UNL     1     -14.651   3.058  30.587  0.00  0.00    +0.245 A 
ATOM     18  C   UNL     1     -14.532   4.602  31.958  0.00  0.00    +0.202 A 
BRANCH  12   8
ATOM      3  N   UNL     1     -13.295   1.096  29.935  0.00  0.00    -0.305 NA
ATOM      8  C   UNL     1     -14.580   1.794  29.761  0.00  0.00    +0.143 C 
ATOM      9  C   UNL     1     -15.657   0.757  30.115  0.00  0.00    +0.029 C 
ATOM     10  C   UNL     1     -14.887  -0.518  30.428  0.00  0.00    +0.017 C 
ATOM     11  C   UNL     1     -13.565  -0.320  29.718  0.00  0.00    +0.081 C 
ATOM     23  H   UNL     1     -12.984   1.213  30.901  0.00  0.00    +0.123 HD
ENDBRANCH  12   8
ENDBRANCH  19  18
TORSDOF 2
ENDMDL
MODEL 4
REMARK VINA RESULT:      -6.4     25.797     28.698
REMARK  Name = 45783306
REMARK  2 active torsions:
REMARK  status: ('A' for Active; 'I' for Inactive)
REMARK    1  A    between atoms: C_8  and  C_12
REMARK    2  A    between atoms: C_18  and  C_19
REMARK                            x       y       z     vdW  Elec       q    Type
REMARK                         _______ _______ _______ _____ _____    ______ ____
ROOT
ATOM      2  O   UNL     1      -4.778 -10.611  10.067  0.00  0.00    -0.377 OA
ATOM      4  N   UNL     1      -3.742 -10.744  12.676  0.00  0.00    -0.311 N 
ATOM      7  N   UNL     1      -1.853 -10.330  14.040  0.00  0.00    -0.240 NA
ATOM     13  C   UNL     1      -4.907  -9.902  12.383  0.00  0.00    +0.134 C 
ATOM     14  C   UNL     1      -2.888 -11.054  11.522  0.00  0.00    +0.134 C 
ATOM     15  C   UNL     1      -5.658 -10.460  11.181  0.00  0.00    +0.178 C 
ATOM     16  C   UNL     1      -3.747 -11.553  10.365  0.00  0.00    +0.178 C 
ATOM     17  C   UNL     1      -3.150 -10.699  13.943  0.00  0.00    +0.122 A 
ATOM     19  C   UNL     1      -3.368 -11.003  16.292  0.00  0.00    +0.027 A 
ATOM     20  C   UNL     1      -3.943 -11.042  15.026  0.00  0.00    +0.055 A 
ATOM     21  C   UNL     1      -2.035 -10.628  16.432  0.00  0.00    +0.031 A 
ATOM     22  C   UNL     1      -1.328 -10.305  15.286  0.00  0.00    +0.113 A 
ENDROOT
BRANCH  19  18
ATOM      1  O   UNL     1      -4.703 -11.916  19.431  0.00  0.00    -0.336 OA
ATOM      5  N   UNL     1      -5.508 -11.379  17.410  0.00  0.00    -0.190 NA
ATOM      6  N   UNL     1      -3.588 -11.657  18.623  0.00  0.00    -0.056 NA
ATOM     12  C   UNL     1      -5.792 -11.730  18.639  0.00  0.00    +0.245 A 
ATOM     18  C   UNL     1      -4.145 -11.347  17.448  0.00  0.00    +0.202 A 
BRANCH  12   8
ATOM      3  N   UNL     1      -7.804 -10.679  19.617  0.00  0.00    -0.305 NA
ATOM      8  C   UNL     1      -7.140 -11.951  19.287  0.00  0.00    +0.143 C 
ATOM      9  C   UNL     1      -8.138 -12.714  18.403  0.00  0.00    +0.029 C 
ATOM     10  C   UNL     1      -9.364 -11.816  18.329  0.00  0.00    +0.017 C 
ATOM     11  C   UNL     1      -9.238 -10.939  19.556  0.00  0.00    +0.081 C 
ATOM     23  H   UNL     1      -7.578  -9.991  18.897  0.00  0.00    +0.123 HD
ENDBRANCH  12   8
ENDBRANCH  19  18
TORSDOF 2
ENDMDL
MODEL 5
REMARK VINA RESULT:      -6.4      6.595      8.136
REMARK  Name = 45783306
REMARK  2 active torsions:
REMARK  status: ('A' for Active; 'I' for Inactive)
REMARK    1  A    between atoms: C_8  and  C_12
REMARK    2  A    between atoms: C_18  and  C_19
REMARK                            x       y       z     vdW  Elec       q    Type
REMARK                         _______ _______ _______ _____ _____    ______ ____
ROOT
ATOM      2  O   UNL     1      22.384  10.027  23.424  0.00  0.00    -0.377 OA
ATOM      4  N   UNL     1      20.561   8.473  21.954  0.00  0.00    -0.311 N 
ATOM      7  N   UNL     1      20.234   6.432  20.802  0.00  0.00    -0.240 NA
ATOM     13  C   UNL     1      20.272   8.838  23.345  0.00  0.00    +0.134 C 
ATOM     14  C   UNL     1      21.982   8.499  21.584  0.00  0.00    +0.134 C 
ATOM     15  C   UNL     1      20.988  10.135  23.698  0.00  0.00    +0.178 C 
ATOM     16  C   UNL     1      22.607   9.815  22.029  0.00  0.00    +0.178 C 
ATOM     17  C   UNL     1      19.717   7.588  21.275  0.00  0.00    +0.122 A 
ATOM     19  C   UNL     1      17.540   7.094  20.454  0.00  0.00    +0.027 A 
ATOM     20  C   UNL     1      18.391   7.963  21.129  0.00  0.00    +0.055 A 
ATOM     21  C   UNL     1      18.035   5.894  19.954  0.00  0.00    +0.031 A 
ATOM     22  C   UNL     1      19.376   5.613  20.152  0.00  0.00    +0.113 A 
ENDROOT
BRANCH  19  18
ATOM      1  O   UNL     1      14.360   8.521  19.885  0.00  0.00    -0.336 OA
ATOM      5  N   UNL     1      15.167   6.508  20.445  0.00  0.00    -0.190 NA
ATOM      6  N   UNL     1      15.753   8.661  19.941  0.00  0.00    -0.056 NA
ATOM     12  C   UNL     1      14.100   7.224  20.194  0.00  0.00    +0.245 A 
ATOM     18  C   UNL     1      16.156   7.432  20.277  0.00  0.00    +0.202 A 
BRANCH  12   8
ATOM      3  N   UNL     1      12.337   5.909  21.322  0.00  0.00    -0.305 NA
ATOM      8  C   UNL     1      12.645   6.813  20.201  0.00  0.00    +0.143 C 
ATOM      9  C   UNL     1      11.667   7.989  20.346  0.00  0.00    +0.029 C 
ATOM     10  C   UNL     1      10.805   7.637  21.550  0.00  0.00    +0.017 C 
ATOM     11  C   UNL     1      10.934   6.133  21.654  0.00  0.00    +0.081 C 
ATOM     23  H   UNL     1      12.899   6.181  22.130  0.00  0.00    +0.123 HD
ENDBRANCH  12   8
ENDBRANCH  19  18
TORSDOF 2
ENDMDL
MODEL 6
REMARK VINA RESULT:      -6.4      5.069      5.887
REMARK  Name = 45783306
REMARK  2 active torsions:
REMARK  status: ('A' for Active; 'I' for Inactive)
REMARK    1  A    between atoms: C_8  and  C_12
REMARK    2  A    between atoms: C_18  and  C_19
REMARK                            x       y       z     vdW  Elec       q    Type
REMARK                         _______ _______ _______ _____ _____    ______ ____
ROOT
ATOM      2  O   UNL     1      11.276  10.998  23.416  0.00  0.00    -0.377 OA
ATOM      4  N   UNL     1      12.482   9.392  21.450  0.00  0.00    -0.311 N 
ATOM      7  N   UNL     1      12.300   8.556  19.244  0.00  0.00    -0.240 NA
ATOM     13  C   UNL     1      13.174  10.579  21.964  0.00  0.00    +0.134 C 
ATOM     14  C   UNL     1      11.021   9.402  21.608  0.00  0.00    +0.134 C 
ATOM     15  C   UNL     1      12.698  10.880  23.380  0.00  0.00    +0.178 C 
ATOM     16  C   UNL     1      10.661   9.765  23.044  0.00  0.00    +0.178 C 
ATOM     17  C   UNL     1      13.026   8.678  20.378  0.00  0.00    +0.122 A 
ATOM     19  C   UNL     1      14.841   7.419  19.496  0.00  0.00    +0.027 A 
ATOM     20  C   UNL     1      14.288   8.133  20.553  0.00  0.00    +0.055 A 
ATOM     21  C   UNL     1      14.125   7.273  18.313  0.00  0.00    +0.031 A 
ATOM     22  C   UNL     1      12.870   7.855  18.238  0.00  0.00    +0.113 A 
ENDROOT
BRANCH  19  18
ATOM      1  O   UNL     1      17.878   5.627  19.296  0.00  0.00    -0.336 OA
ATOM      5  N   UNL     1      17.012   7.228  20.603  0.00  0.00    -0.190 NA
ATOM      6  N   UNL     1      16.592   5.882  18.801  0.00  0.00    -0.056 NA
ATOM     12  C   UNL     1      18.044   6.461  20.356  0.00  0.00    +0.245 A 
ATOM     18  C   UNL     1      16.147   6.836  19.624  0.00  0.00    +0.202 A 
BRANCH  12   8
ATOM      3  N   UNL     1      20.496   6.237  20.134  0.00  0.00    -0.305 NA
ATOM      8  C   UNL     1      19.372   6.380  21.074  0.00  0.00    +0.143 C 
ATOM      9  C   UNL     1      19.702   7.621  21.917  0.00  0.00    +0.029 C 
ATOM     10  C   UNL     1      21.061   8.086  21.416  0.00  0.00    +0.017 C 
ATOM     11  C   UNL     1      21.652   6.845  20.783  0.00  0.00    +0.081 C 
ATOM     23  H   UNL     1      20.291   6.774  19.290  0.00  0.00    +0.123 HD
ENDBRANCH  12   8
ENDBRANCH  19  18
TORSDOF 2
ENDMDL
MODEL 7
REMARK VINA RESULT:      -6.3      7.251      8.528
REMARK  Name = 45783306
REMARK  2 active torsions:
REMARK  status: ('A' for Active; 'I' for Inactive)
REMARK    1  A    between atoms: C_8  and  C_12
REMARK    2  A    between atoms: C_18  and  C_19
REMARK                            x       y       z     vdW  Elec       q    Type
REMARK                         _______ _______ _______ _____ _____    ______ ____
ROOT
ATOM      2  O   UNL     1      11.309   7.767  19.686  0.00  0.00    -0.377 OA
ATOM      4  N   UNL     1      14.048   8.080  20.230  0.00  0.00    -0.311 N 
ATOM      7  N   UNL     1      15.692   9.497  21.174  0.00  0.00    -0.240 NA
ATOM     13  C   UNL     1      13.297   6.967  20.822  0.00  0.00    +0.134 C 
ATOM     14  C   UNL     1      13.237   9.233  19.817  0.00  0.00    +0.134 C 
ATOM     15  C   UNL     1      12.113   6.613  19.932  0.00  0.00    +0.178 C 
ATOM     16  C   UNL     1      12.056   8.758  18.979  0.00  0.00    +0.178 C 
ATOM     17  C   UNL     1      15.374   8.308  20.613  0.00  0.00    +0.122 A 
ATOM     19  C   UNL     1      17.607   7.501  20.762  0.00  0.00    +0.027 A 
ATOM     20  C   UNL     1      16.284   7.288  20.387  0.00  0.00    +0.055 A 
ATOM     21  C   UNL     1      17.972   8.711  21.342  0.00  0.00    +0.031 A 
ATOM     22  C   UNL     1      16.987   9.667  21.524  0.00  0.00    +0.113 A 
ENDROOT
BRANCH  19  18
ATOM      1  O   UNL     1      19.581   4.718  19.851  0.00  0.00    -0.336 OA
ATOM      5  N   UNL     1      19.803   6.511  21.175  0.00  0.00    -0.190 NA
ATOM      6  N   UNL     1      18.381   5.434  19.743  0.00  0.00    -0.056 NA
ATOM     12  C   UNL     1      20.361   5.421  20.713  0.00  0.00    +0.245 A 
ATOM     18  C   UNL     1      18.590   6.477  20.552  0.00  0.00    +0.202 A 
BRANCH  12   8
ATOM      3  N   UNL     1      22.406   5.566  22.095  0.00  0.00    -0.305 NA
ATOM      8  C   UNL     1      21.730   4.848  21.001  0.00  0.00    +0.143 C 
ATOM      9  C   UNL     1      21.710   3.374  21.433  0.00  0.00    +0.029 C 
ATOM     10  C   UNL     1      22.445   3.345  22.766  0.00  0.00    +0.017 C 
ATOM     11  C   UNL     1      23.292   4.599  22.733  0.00  0.00    +0.081 C 
ATOM     23  H   UNL     1      21.707   5.854  22.782  0.00  0.00    +0.123 HD
ENDBRANCH  12   8
ENDBRANCH  19  18
TORSDOF 2
ENDMDL
MODEL 8
REMARK VINA RESULT:      -6.2     26.279     27.739
REMARK  Name = 45783306
REMARK  2 active torsions:
REMARK  status: ('A' for Active; 'I' for Inactive)
REMARK    1  A    between atoms: C_8  and  C_12
REMARK    2  A    between atoms: C_18  and  C_19
REMARK                            x       y       z     vdW  Elec       q    Type
REMARK                         _______ _______ _______ _____ _____    ______ ____
ROOT
ATOM      2  O   UNL     1     -11.204  -8.180  15.953  0.00  0.00    -0.377 OA
ATOM      4  N   UNL     1      -8.655  -9.093  16.707  0.00  0.00    -0.311 N 
ATOM      7  N   UNL     1      -7.337  -9.923  18.488  0.00  0.00    -0.240 NA
ATOM     13  C   UNL     1      -9.423  -9.804  15.679  0.00  0.00    +0.134 C 
ATOM     14  C   UNL     1      -9.453  -8.273  17.629  0.00  0.00    +0.134 C 
ATOM     15  C   UNL     1     -10.381  -8.839  14.991  0.00  0.00    +0.178 C 
ATOM     16  C   UNL     1     -10.409  -7.389  16.837  0.00  0.00    +0.178 C 
ATOM     17  C   UNL     1      -7.451  -9.629  17.173  0.00  0.00    +0.122 A 
ATOM     19  C   UNL     1      -5.237 -10.355  16.694  0.00  0.00    +0.027 A 
ATOM     20  C   UNL     1      -6.441  -9.824  16.245  0.00  0.00    +0.055 A 
ATOM     21  C   UNL     1      -5.082 -10.671  18.040  0.00  0.00    +0.031 A 
ATOM     22  C   UNL     1      -6.152 -10.438  18.888  0.00  0.00    +0.113 A 
ENDROOT
BRANCH  19  18
ATOM      1  O   UNL     1      -2.207 -10.883  14.959  0.00  0.00    -0.336 OA
ATOM      5  N   UNL     1      -4.377 -10.707  14.433  0.00  0.00    -0.190 NA
ATOM      6  N   UNL     1      -2.885 -10.672  16.166  0.00  0.00    -0.056 NA
ATOM     12  C   UNL     1      -3.159 -10.890  13.990  0.00  0.00    +0.245 A 
ATOM     18  C   UNL     1      -4.159 -10.578  15.774  0.00  0.00    +0.202 A 
BRANCH  12   8
ATOM      3  N   UNL     1      -3.795 -11.291  11.635  0.00  0.00    -0.305 NA
ATOM      8  C   UNL     1      -2.676 -11.104  12.573  0.00  0.00    +0.143 C 
ATOM      9  C   UNL     1      -1.863  -9.929  12.008  0.00  0.00    +0.029 C 
ATOM     10  C   UNL     1      -2.571  -9.547  10.716  0.00  0.00    +0.017 C 
ATOM     11  C   UNL     1      -3.331 -10.801  10.342  0.00  0.00    +0.081 C 
ATOM     23  H   UNL     1      -4.577 -10.704  11.931  0.00  0.00    +0.123 HD
ENDBRANCH  12   8
ENDBRANCH  19  18
TORSDOF 2
ENDMDL
MODEL 9
REMARK VINA RESULT:      -6.1     24.280     26.514
REMARK  Name = 45783306
REMARK  2 active torsions:
REMARK  status: ('A' for Active; 'I' for Inactive)
REMARK    1  A    between atoms: C_8  and  C_12
REMARK    2  A    between atoms: C_18  and  C_19
REMARK                            x       y       z     vdW  Elec       q    Type
REMARK                         _______ _______ _______ _____ _____    ______ ____
ROOT
ATOM      2  O   UNL     1     -12.289   8.419  13.220  0.00  0.00    -0.377 OA
ATOM      4  N   UNL     1     -11.864   8.451  15.998  0.00  0.00    -0.311 N 
ATOM      7  N   UNL     1     -10.849   9.608  17.795  0.00  0.00    -0.240 NA
ATOM     13  C   UNL     1     -13.224   8.539  15.455  0.00  0.00    +0.134 C 
ATOM     14  C   UNL     1     -10.795   8.864  15.078  0.00  0.00    +0.134 C 
ATOM     15  C   UNL     1     -13.279   7.868  14.088  0.00  0.00    +0.178 C 
ATOM     16  C   UNL     1     -10.979   8.174  13.731  0.00  0.00    +0.178 C 
ATOM     17  C   UNL     1     -11.649   8.605  17.371  0.00  0.00    +0.122 A 
ATOM     19  C   UNL     1     -12.074   7.844  19.585  0.00  0.00    +0.027 A 
ATOM     20  C   UNL     1     -12.279   7.704  18.216  0.00  0.00    +0.055 A 
ATOM     21  C   UNL     1     -11.257   8.865  20.059  0.00  0.00    +0.031 A 
ATOM     22  C   UNL     1     -10.673   9.712  19.132  0.00  0.00    +0.113 A 
ENDROOT
BRANCH  19  18
ATOM      1  O   UNL     1     -13.015   5.468  22.022  0.00  0.00    -0.336 OA
ATOM      5  N   UNL     1     -14.061   6.824  20.578  0.00  0.00    -0.190 NA
ATOM      6  N   UNL     1     -12.008   6.160  21.337  0.00  0.00    -0.056 NA
ATOM     12  C   UNL     1     -14.192   5.918  21.514  0.00  0.00    +0.245 A 
ATOM     18  C   UNL     1     -12.703   6.940  20.504  0.00  0.00    +0.202 A 
BRANCH  12   8
ATOM      3  N   UNL     1     -15.247   3.919  22.514  0.00  0.00    -0.305 NA
ATOM      8  C   UNL     1     -15.450   5.317  22.097  0.00  0.00    +0.143 C 
ATOM      9  C   UNL     1     -15.966   6.043  23.349  0.00  0.00    +0.029 C 
ATOM     10  C   UNL     1     -16.073   4.962  24.414  0.00  0.00    +0.017 C 
ATOM     11  C   UNL     1     -16.174   3.681  23.615  0.00  0.00    +0.081 C 
ATOM     23  H   UNL     1     -14.297   3.816  22.874  0.00  0.00    +0.123 HD
ENDBRANCH  12   8
ENDBRANCH  19  18
TORSDOF 2
ENDMDL
MODEL 10
REMARK VINA RESULT:      -6.0     26.691     28.572
REMARK  Name = 45783306
REMARK  2 active torsions:
REMARK  status: ('A' for Active; 'I' for Inactive)
REMARK    1  A    between atoms: C_8  and  C_12
REMARK    2  A    between atoms: C_18  and  C_19
REMARK                            x       y       z     vdW  Elec       q    Type
REMARK                         _______ _______ _______ _____ _____    ______ ____
ROOT
ATOM      2  O   UNL     1      -6.517  -8.743   8.072  0.00  0.00    -0.377 OA
ATOM      4  N   UNL     1      -4.880  -9.581  10.197  0.00  0.00    -0.311 N 
ATOM      7  N   UNL     1      -2.654  -9.982  10.894  0.00  0.00    -0.240 NA
ATOM     13  C   UNL     1      -5.719  -8.386  10.335  0.00  0.00    +0.134 C 
ATOM     14  C   UNL     1      -4.557  -9.963   8.816  0.00  0.00    +0.134 C 
ATOM     15  C   UNL     1      -6.930  -8.497   9.416  0.00  0.00    +0.178 C 
ATOM     16  C   UNL     1      -5.830  -9.992   7.979  0.00  0.00    +0.178 C 
ATOM     17  C   UNL     1      -3.968  -9.912  11.205  0.00  0.00    +0.122 A 
ATOM     19  C   UNL     1      -3.585 -10.484  13.482  0.00  0.00    +0.027 A 
ATOM     20  C   UNL     1      -4.480 -10.152  12.470  0.00  0.00    +0.055 A 
ATOM     21  C   UNL     1      -2.225 -10.565  13.200  0.00  0.00    +0.031 A 
ATOM     22  C   UNL     1      -1.815 -10.307  11.903  0.00  0.00    +0.113 A 
ENDROOT
BRANCH  19  18
ATOM      1  O   UNL     1      -4.265 -11.537  16.783  0.00  0.00    -0.336 OA
ATOM      5  N   UNL     1      -5.153 -10.094  15.317  0.00  0.00    -0.190 NA
ATOM      6  N   UNL     1      -3.476 -11.619  15.629  0.00  0.00    -0.056 NA
ATOM     12  C   UNL     1      -5.228 -10.617  16.515  0.00  0.00    +0.245 A 
ATOM     18  C   UNL     1      -4.062 -10.740  14.811  0.00  0.00    +0.202 A 
BRANCH  12   8
ATOM      3  N   UNL     1      -7.459 -11.125  17.453  0.00  0.00    -0.305 NA
ATOM      8  C   UNL     1      -6.223 -10.342  17.620  0.00  0.00    +0.143 C 
ATOM      9  C   UNL     1      -5.706 -10.692  19.024  0.00  0.00    +0.029 C 
ATOM     10  C   UNL     1      -6.745 -11.644  19.599  0.00  0.00    +0.017 C 
ATOM     11  C   UNL     1      -7.990 -11.341  18.794  0.00  0.00    +0.081 C 
ATOM     23  H   UNL     1      -7.222 -12.036  17.057  0.00  0.00    +0.123 HD
ENDBRANCH  12   8
ENDBRANCH  19  18
TORSDOF 2
ENDMDL
