MODEL 1
REMARK VINA RESULT:      -7.4      0.000      0.000
REMARK  Name = 75536708
REMARK  9 active torsions:
REMARK  status: ('A' for Active; 'I' for Inactive)
REMARK    1  A    between atoms: S_1  and  N_8
REMARK    2  A    between atoms: S_1  and  C_16
REMARK    3  A    between atoms: O_4  and  C_10
REMARK    4  A    between atoms: N_7  and  C_9
REMARK    5  A    between atoms: N_7  and  C_14
REMARK    6  A    between atoms: N_8  and  C_13
REMARK    7  A    between atoms: C_11  and  C_13
REMARK    8  A    between atoms: C_14  and  C_15
REMARK    9  A    between atoms: C_25  and  C_27
REMARK                            x       y       z     vdW  Elec       q    Type
REMARK                         _______ _______ _______ _____ _____    ______ ____
ROOT
ATOM      3  O   UNL     1      12.407   6.563  21.272  0.00  0.00    -0.371 OA
ATOM      9  C   UNL     1      10.620   8.123  21.379  0.00  0.00    +0.111 C 
ATOM     10  C   UNL     1      11.396   8.349  20.096  0.00  0.00    +0.164 C 
ATOM     11  C   UNL     1      12.101   7.007  19.939  0.00  0.00    +0.164 C 
ATOM     12  C   UNL     1      11.621   7.328  22.202  0.00  0.00    +0.181 C 
ENDROOT
BRANCH  10   4
ATOM      4  O   UNL     1      10.558   8.636  18.994  0.00  0.00    -0.388 OA
ATOM     30  H   UNL     1      10.863   8.113  18.233  0.00  0.00    +0.210 HD
ENDBRANCH  10   4
BRANCH   9   7
ATOM      7  N   UNL     1      10.201   9.352  22.032  0.00  0.00    -0.305 NA
ATOM     28  H   UNL     1       9.954   9.148  23.000  0.00  0.00    +0.123 HD
BRANCH   7  14
ATOM     14  C   UNL     1      11.269  10.346  22.018  0.00  0.00    +0.116 C 
BRANCH  14  15
ATOM      2  F   UNL     1      10.434  14.381  25.860  0.00  0.00    -0.205 F 
ATOM     15  C   UNL     1      11.047  11.424  23.045  0.00  0.00    -0.033 A 
ATOM     17  C   UNL     1      11.077  11.110  24.403  0.00  0.00    +0.008 A 
ATOM     18  C   UNL     1      10.808  12.736  22.636  0.00  0.00    +0.008 A 
ATOM     21  C   UNL     1      10.872  12.109  25.354  0.00  0.00    +0.038 A 
ATOM     22  C   UNL     1      10.601  13.736  23.588  0.00  0.00    +0.038 A 
ATOM     26  C   UNL     1      10.633  13.422  24.946  0.00  0.00    +0.123 A 
ENDBRANCH  14  15
ENDBRANCH   7  14
ENDBRANCH   9   7
BRANCH  11  13
ATOM     13  C   UNL     1      13.377   7.091  19.121  0.00  0.00    +0.140 C 
BRANCH  13   8
ATOM      8  N   UNL     1      14.543   6.867  19.997  0.00  0.00    -0.187 NA
ATOM     29  H   UNL     1      14.527   6.000  20.549  0.00  0.00    +0.148 HD
BRANCH   8   1
ATOM      1  S   UNL     1      15.425   8.193  20.598  0.00  0.00    +0.058 S 
ATOM      5  O   UNL     1      15.019   8.460  21.964  0.00  0.00    -0.153 OA
ATOM      6  O   UNL     1      15.410   9.256  19.611  0.00  0.00    -0.153 OA
BRANCH   1  16
ATOM     16  C   UNL     1      17.069   7.546  20.634  0.00  0.00    +0.105 A 
ATOM     19  C   UNL     1      17.357   6.338  19.997  0.00  0.00    +0.029 A 
ATOM     20  C   UNL     1      18.078   8.240  21.301  0.00  0.00    +0.029 A 
ATOM     23  C   UNL     1      18.654   5.826  20.027  0.00  0.00    +0.005 A 
ATOM     24  C   UNL     1      19.375   7.728  21.332  0.00  0.00    +0.005 A 
ATOM     25  C   UNL     1      19.663   6.521  20.695  0.00  0.00    -0.050 A 
ATOM     27  C   UNL     1      21.050   5.973  20.727  0.00  0.00    +0.044 C 
ENDBRANCH   1  16
ENDBRANCH   8   1
ENDBRANCH  13   8
ENDBRANCH  11  13
TORSDOF 8
ENDMDL
MODEL 2
REMARK VINA RESULT:      -7.3      3.961      9.385
REMARK  Name = 75536708
REMARK  9 active torsions:
REMARK  status: ('A' for Active; 'I' for Inactive)
REMARK    1  A    between atoms: S_1  and  N_8
REMARK    2  A    between atoms: S_1  and  C_16
REMARK    3  A    between atoms: O_4  and  C_10
REMARK    4  A    between atoms: N_7  and  C_9
REMARK    5  A    between atoms: N_7  and  C_14
REMARK    6  A    between atoms: N_8  and  C_13
REMARK    7  A    between atoms: C_11  and  C_13
REMARK    8  A    between atoms: C_14  and  C_15
REMARK    9  A    between atoms: C_25  and  C_27
REMARK                            x       y       z     vdW  Elec       q    Type
REMARK                         _______ _______ _______ _____ _____    ______ ____
ROOT
ATOM      3  O   UNL     1      16.749   8.641  21.696  0.00  0.00    -0.371 OA
ATOM      9  C   UNL     1      17.830   7.165  20.180  0.00  0.00    +0.111 C 
ATOM     10  C   UNL     1      16.455   6.615  20.511  0.00  0.00    +0.164 C 
ATOM     11  C   UNL     1      15.749   7.869  21.009  0.00  0.00    +0.164 C 
ATOM     12  C   UNL     1      18.046   8.142  21.324  0.00  0.00    +0.181 C 
ENDROOT
BRANCH  10   4
ATOM      4  O   UNL     1      15.805   6.056  19.385  0.00  0.00    -0.388 OA
ATOM     30  H   UNL     1      16.333   6.261  18.595  0.00  0.00    +0.210 HD
ENDBRANCH  10   4
BRANCH   9   7
ATOM      7  N   UNL     1      18.863   6.146  20.103  0.00  0.00    -0.305 NA
ATOM     28  H   UNL     1      19.042   5.926  19.123  0.00  0.00    +0.123 HD
BRANCH   7  14
ATOM     14  C   UNL     1      20.103   6.607  20.716  0.00  0.00    +0.116 C 
BRANCH  14  15
ATOM      2  F   UNL     1      23.054   2.356  22.945  0.00  0.00    -0.205 F 
ATOM     15  C   UNL     1      20.892   5.472  21.311  0.00  0.00    -0.033 A 
ATOM     17  C   UNL     1      20.967   4.249  20.644  0.00  0.00    +0.008 A 
ATOM     18  C   UNL     1      21.547   5.642  22.531  0.00  0.00    +0.008 A 
ATOM     21  C   UNL     1      21.697   3.197  21.195  0.00  0.00    +0.038 A 
ATOM     22  C   UNL     1      22.278   4.589  23.083  0.00  0.00    +0.038 A 
ATOM     26  C   UNL     1      22.353   3.367  22.415  0.00  0.00    +0.123 A 
ENDBRANCH  14  15
ENDBRANCH   7  14
ENDBRANCH   9   7
BRANCH  11  13
ATOM     13  C   UNL     1      14.594   7.574  21.950  0.00  0.00    +0.140 C 
BRANCH  13   8
ATOM      8  N   UNL     1      13.735   6.526  21.367  0.00  0.00    -0.187 NA
ATOM     29  H   UNL     1      14.178   5.607  21.236  0.00  0.00    +0.148 HD
BRANCH   8   1
ATOM      1  S   UNL     1      12.441   6.953  20.348  0.00  0.00    +0.058 S 
ATOM      5  O   UNL     1      11.310   6.088  20.621  0.00  0.00    -0.153 OA
ATOM      6  O   UNL     1      12.936   7.100  18.992  0.00  0.00    -0.153 OA
BRANCH   1  16
ATOM     16  C   UNL     1      12.042   8.573  20.931  0.00  0.00    +0.105 A 
ATOM     19  C   UNL     1      12.525   9.695  20.256  0.00  0.00    +0.029 A 
ATOM     20  C   UNL     1      11.247   8.730  22.066  0.00  0.00    +0.029 A 
ATOM     23  C   UNL     1      12.213  10.973  20.718  0.00  0.00    +0.005 A 
ATOM     24  C   UNL     1      10.934  10.009  22.527  0.00  0.00    +0.005 A 
ATOM     25  C   UNL     1      11.416  11.130  21.853  0.00  0.00    -0.050 A 
ATOM     27  C   UNL     1      11.082  12.498  22.346  0.00  0.00    +0.044 C 
ENDBRANCH   1  16
ENDBRANCH   8   1
ENDBRANCH  13   8
ENDBRANCH  11  13
TORSDOF 8
ENDMDL
MODEL 3
REMARK VINA RESULT:      -7.0     26.119     29.401
REMARK  Name = 75536708
REMARK  9 active torsions:
REMARK  status: ('A' for Active; 'I' for Inactive)
REMARK    1  A    between atoms: S_1  and  N_8
REMARK    2  A    between atoms: S_1  and  C_16
REMARK    3  A    between atoms: O_4  and  C_10
REMARK    4  A    between atoms: N_7  and  C_9
REMARK    5  A    between atoms: N_7  and  C_14
REMARK    6  A    between atoms: N_8  and  C_13
REMARK    7  A    between atoms: C_11  and  C_13
REMARK    8  A    between atoms: C_14  and  C_15
REMARK    9  A    between atoms: C_25  and  C_27
REMARK                            x       y       z     vdW  Elec       q    Type
REMARK                         _______ _______ _______ _____ _____    ______ ____
ROOT
ATOM      3  O   UNL     1     -16.302   5.041  22.195  0.00  0.00    -0.371 OA
ATOM      9  C   UNL     1     -13.955   5.167  21.851  0.00  0.00    +0.111 C 
ATOM     10  C   UNL     1     -14.236   5.155  23.342  0.00  0.00    +0.164 C 
ATOM     11  C   UNL     1     -15.635   4.553  23.371  0.00  0.00    +0.164 C 
ATOM     12  C   UNL     1     -15.311   5.563  21.292  0.00  0.00    +0.181 C 
ENDROOT
BRANCH  10   4
ATOM      4  O   UNL     1     -13.309   4.370  24.066  0.00  0.00    -0.388 OA
ATOM     30  H   UNL     1     -13.142   4.804  24.920  0.00  0.00    +0.210 HD
ENDBRANCH  10   4
BRANCH   9   7
ATOM      7  N   UNL     1     -12.895   6.083  21.464  0.00  0.00    -0.305 NA
ATOM     28  H   UNL     1     -12.547   5.820  20.542  0.00  0.00    +0.123 HD
BRANCH   7  14
ATOM     14  C   UNL     1     -13.380   7.457  21.411  0.00  0.00    +0.116 C 
BRANCH  14  15
ATOM      2  F   UNL     1      -9.863  10.820  18.570  0.00  0.00    -0.205 F 
ATOM     15  C   UNL     1     -12.440   8.356  20.653  0.00  0.00    -0.033 A 
ATOM     17  C   UNL     1     -12.385   9.718  20.949  0.00  0.00    +0.008 A 
ATOM     18  C   UNL     1     -11.625   7.826  19.652  0.00  0.00    +0.008 A 
ATOM     21  C   UNL     1     -11.514  10.549  20.246  0.00  0.00    +0.038 A 
ATOM     22  C   UNL     1     -10.754   8.659  18.948  0.00  0.00    +0.038 A 
ATOM     26  C   UNL     1     -10.698  10.020  19.246  0.00  0.00    +0.123 A 
ENDBRANCH  14  15
ENDBRANCH   7  14
ENDBRANCH   9   7
BRANCH  11  13
ATOM     13  C   UNL     1     -16.428   4.939  24.607  0.00  0.00    +0.140 C 
BRANCH  13   8
ATOM      8  N   UNL     1     -15.986   4.124  25.755  0.00  0.00    -0.187 NA
ATOM     29  H   UNL     1     -15.003   4.241  26.033  0.00  0.00    +0.148 HD
BRANCH   8   1
ATOM      1  S   UNL     1     -16.753   2.643  26.095  0.00  0.00    +0.058 S 
ATOM      5  O   UNL     1     -16.212   1.613  25.230  0.00  0.00    -0.153 OA
ATOM      6  O   UNL     1     -18.186   2.859  26.164  0.00  0.00    -0.153 OA
BRANCH   1  16
ATOM     16  C   UNL     1     -16.199   2.320  27.742  0.00  0.00    +0.105 A 
ATOM     19  C   UNL     1     -15.595   3.334  28.486  0.00  0.00    +0.029 A 
ATOM     20  C   UNL     1     -16.363   1.050  28.296  0.00  0.00    +0.029 A 
ATOM     23  C   UNL     1     -15.156   3.078  29.785  0.00  0.00    +0.005 A 
ATOM     24  C   UNL     1     -15.923   0.795  29.595  0.00  0.00    +0.005 A 
ATOM     25  C   UNL     1     -15.320   1.808  30.339  0.00  0.00    -0.050 A 
ATOM     27  C   UNL     1     -14.850   1.535  31.728  0.00  0.00    +0.044 C 
ENDBRANCH   1  16
ENDBRANCH   8   1
ENDBRANCH  13   8
ENDBRANCH  11  13
TORSDOF 8
ENDMDL
MODEL 4
REMARK VINA RESULT:      -6.8     28.016     30.610
REMARK  Name = 75536708
REMARK  9 active torsions:
REMARK  status: ('A' for Active; 'I' for Inactive)
REMARK    1  A    between atoms: S_1  and  N_8
REMARK    2  A    between atoms: S_1  and  C_16
REMARK    3  A    between atoms: O_4  and  C_10
REMARK    4  A    between atoms: N_7  and  C_9
REMARK    5  A    between atoms: N_7  and  C_14
REMARK    6  A    between atoms: N_8  and  C_13
REMARK    7  A    between atoms: C_11  and  C_13
REMARK    8  A    between atoms: C_14  and  C_15
REMARK    9  A    between atoms: C_25  and  C_27
REMARK                            x       y       z     vdW  Elec       q    Type
REMARK                         _______ _______ _______ _____ _____    ______ ____
ROOT
ATOM      3  O   UNL     1     -12.357  -7.893  16.700  0.00  0.00    -0.371 OA
ATOM      9  C   UNL     1      -9.991  -7.699  16.778  0.00  0.00    +0.111 C 
ATOM     10  C   UNL     1     -10.513  -6.906  15.595  0.00  0.00    +0.164 C 
ATOM     11  C   UNL     1     -11.967  -6.700  15.999  0.00  0.00    +0.164 C 
ATOM     12  C   UNL     1     -11.169  -8.614  17.071  0.00  0.00    +0.181 C 
ENDROOT
BRANCH  10   4
ATOM      4  O   UNL     1      -9.835  -5.677  15.420  0.00  0.00    -0.388 OA
ATOM     30  H   UNL     1      -9.235  -5.765  14.660  0.00  0.00    +0.210 HD
ENDBRANCH  10   4
BRANCH   9   7
ATOM      7  N   UNL     1      -8.765  -8.428  16.497  0.00  0.00    -0.305 NA
ATOM     28  H   UNL     1      -7.990  -7.767  16.442  0.00  0.00    +0.123 HD
BRANCH   7  14
ATOM     14  C   UNL     1      -8.480  -9.402  17.545  0.00  0.00    +0.116 C 
BRANCH  14  15
ATOM      2  F   UNL     1      -3.132 -11.167  17.379  0.00  0.00    -0.205 F 
ATOM     15  C   UNL     1      -7.051  -9.873  17.500  0.00  0.00    -0.033 A 
ATOM     17  C   UNL     1      -6.286  -9.673  16.351  0.00  0.00    +0.008 A 
ATOM     18  C   UNL     1      -6.493 -10.510  18.608  0.00  0.00    +0.008 A 
ATOM     21  C   UNL     1      -4.962 -10.110  16.311  0.00  0.00    +0.038 A 
ATOM     22  C   UNL     1      -5.168 -10.947  18.567  0.00  0.00    +0.038 A 
ATOM     26  C   UNL     1      -4.403 -10.747  17.419  0.00  0.00    +0.123 A 
ENDBRANCH  14  15
ENDBRANCH   7  14
ENDBRANCH   9   7
BRANCH  11  13
ATOM     13  C   UNL     1     -12.892  -6.475  14.816  0.00  0.00    +0.140 C 
BRANCH  13   8
ATOM      8  N   UNL     1     -12.567  -5.189  14.170  0.00  0.00    -0.187 NA
ATOM     29  H   UNL     1     -12.044  -4.518  14.748  0.00  0.00    +0.148 HD
BRANCH   8   1
ATOM      1  S   UNL     1     -13.559  -4.584  12.926  0.00  0.00    +0.058 S 
ATOM      5  O   UNL     1     -13.700  -3.149  13.080  0.00  0.00    -0.153 OA
ATOM      6  O   UNL     1     -14.736  -5.424  12.811  0.00  0.00    -0.153 OA
BRANCH   1  16
ATOM     16  C   UNL     1     -12.567  -4.884  11.495  0.00  0.00    +0.105 A 
ATOM     19  C   UNL     1     -11.999  -3.813  10.804  0.00  0.00    +0.029 A 
ATOM     20  C   UNL     1     -12.355  -6.190  11.054  0.00  0.00    +0.029 A 
ATOM     23  C   UNL     1     -11.218  -4.049   9.673  0.00  0.00    +0.005 A 
ATOM     24  C   UNL     1     -11.574  -6.426   9.923  0.00  0.00    +0.005 A 
ATOM     25  C   UNL     1     -11.005  -5.356   9.232  0.00  0.00    -0.050 A 
ATOM     27  C   UNL     1     -10.170  -5.608   8.023  0.00  0.00    +0.044 C 
ENDBRANCH   1  16
ENDBRANCH   8   1
ENDBRANCH  13   8
ENDBRANCH  11  13
TORSDOF 8
ENDMDL
MODEL 5
REMARK VINA RESULT:      -6.8      5.573     10.423
REMARK  Name = 75536708
REMARK  9 active torsions:
REMARK  status: ('A' for Active; 'I' for Inactive)
REMARK    1  A    between atoms: S_1  and  N_8
REMARK    2  A    between atoms: S_1  and  C_16
REMARK    3  A    between atoms: O_4  and  C_10
REMARK    4  A    between atoms: N_7  and  C_9
REMARK    5  A    between atoms: N_7  and  C_14
REMARK    6  A    between atoms: N_8  and  C_13
REMARK    7  A    between atoms: C_11  and  C_13
REMARK    8  A    between atoms: C_14  and  C_15
REMARK    9  A    between atoms: C_25  and  C_27
REMARK                            x       y       z     vdW  Elec       q    Type
REMARK                         _______ _______ _______ _____ _____    ______ ____
ROOT
ATOM      3  O   UNL     1      17.865   7.192  21.587  0.00  0.00    -0.371 OA
ATOM      9  C   UNL     1      19.413   6.103  20.152  0.00  0.00    +0.111 C 
ATOM     10  C   UNL     1      18.013   5.615  19.830  0.00  0.00    +0.164 C 
ATOM     11  C   UNL     1      17.168   6.741  20.413  0.00  0.00    +0.164 C 
ATOM     12  C   UNL     1      19.214   6.696  21.537  0.00  0.00    +0.181 C 
ENDROOT
BRANCH  10   4
ATOM      4  O   UNL     1      17.796   5.457  18.441  0.00  0.00    -0.388 OA
ATOM     30  H   UNL     1      16.933   5.026  18.314  0.00  0.00    +0.210 HD
ENDBRANCH  10   4
BRANCH   9   7
ATOM      7  N   UNL     1      20.418   5.053  20.125  0.00  0.00    -0.305 NA
ATOM     28  H   UNL     1      20.490   4.685  19.177  0.00  0.00    +0.123 HD
BRANCH   7  14
ATOM     14  C   UNL     1      21.721   5.562  20.534  0.00  0.00    +0.116 C 
BRANCH  14  15
ATOM      2  F   UNL     1      25.537   1.444  21.005  0.00  0.00    -0.205 F 
ATOM     15  C   UNL     1      22.740   4.461  20.659  0.00  0.00    -0.033 A 
ATOM     17  C   UNL     1      22.394   3.256  21.269  0.00  0.00    +0.008 A 
ATOM     18  C   UNL     1      24.032   4.648  20.167  0.00  0.00    +0.008 A 
ATOM     21  C   UNL     1      23.338   2.237  21.385  0.00  0.00    +0.038 A 
ATOM     22  C   UNL     1      24.977   3.628  20.283  0.00  0.00    +0.038 A 
ATOM     26  C   UNL     1      24.630   2.423  20.892  0.00  0.00    +0.123 A 
ENDBRANCH  14  15
ENDBRANCH   7  14
ENDBRANCH   9   7
BRANCH  11  13
ATOM     13  C   UNL     1      15.762   6.305  20.786  0.00  0.00    +0.140 C 
BRANCH  13   8
ATOM      8  N   UNL     1      14.884   6.402  19.604  0.00  0.00    -0.187 NA
ATOM     29  H   UNL     1      15.349   6.303  18.693  0.00  0.00    +0.148 HD
BRANCH   8   1
ATOM      1  S   UNL     1      13.443   7.305  19.684  0.00  0.00    +0.058 S 
ATOM      5  O   UNL     1      13.430   8.079  20.911  0.00  0.00    -0.153 OA
ATOM      6  O   UNL     1      12.326   6.441  19.355  0.00  0.00    -0.153 OA
BRANCH   1  16
ATOM     16  C   UNL     1      13.644   8.427  18.334  0.00  0.00    +0.105 A 
ATOM     19  C   UNL     1      13.989   7.943  17.071  0.00  0.00    +0.029 A 
ATOM     20  C   UNL     1      13.461   9.796  18.530  0.00  0.00    +0.029 A 
ATOM     23  C   UNL     1      14.150   8.828  16.006  0.00  0.00    +0.005 A 
ATOM     24  C   UNL     1      13.622  10.681  17.464  0.00  0.00    +0.005 A 
ATOM     25  C   UNL     1      13.967  10.197  16.202  0.00  0.00    -0.050 A 
ATOM     27  C   UNL     1      14.139  11.144  15.062  0.00  0.00    +0.044 C 
ENDBRANCH   1  16
ENDBRANCH   8   1
ENDBRANCH  13   8
ENDBRANCH  11  13
TORSDOF 8
ENDMDL
MODEL 6
REMARK VINA RESULT:      -6.7      2.880      4.664
REMARK  Name = 75536708
REMARK  9 active torsions:
REMARK  status: ('A' for Active; 'I' for Inactive)
REMARK    1  A    between atoms: S_1  and  N_8
REMARK    2  A    between atoms: S_1  and  C_16
REMARK    3  A    between atoms: O_4  and  C_10
REMARK    4  A    between atoms: N_7  and  C_9
REMARK    5  A    between atoms: N_7  and  C_14
REMARK    6  A    between atoms: N_8  and  C_13
REMARK    7  A    between atoms: C_11  and  C_13
REMARK    8  A    between atoms: C_14  and  C_15
REMARK    9  A    between atoms: C_25  and  C_27
REMARK                            x       y       z     vdW  Elec       q    Type
REMARK                         _______ _______ _______ _____ _____    ______ ____
ROOT
ATOM      3  O   UNL     1      15.175  13.294  21.885  0.00  0.00    -0.371 OA
ATOM      9  C   UNL     1      13.328  12.406  23.086  0.00  0.00    +0.111 C 
ATOM     10  C   UNL     1      14.342  11.302  22.852  0.00  0.00    +0.164 C 
ATOM     11  C   UNL     1      15.603  12.114  22.586  0.00  0.00    +0.164 C 
ATOM     12  C   UNL     1      13.752  13.430  22.046  0.00  0.00    +0.181 C 
ENDROOT
BRANCH  10   4
ATOM      4  O   UNL     1      14.489  10.450  23.970  0.00  0.00    -0.388 OA
ATOM     30  H   UNL     1      13.685  10.516  24.513  0.00  0.00    +0.210 HD
ENDBRANCH  10   4
BRANCH   9   7
ATOM      7  N   UNL     1      11.949  11.975  22.925  0.00  0.00    -0.305 NA
ATOM     28  H   UNL     1      11.328  12.754  23.147  0.00  0.00    +0.123 HD
BRANCH   7  14
ATOM     14  C   UNL     1      11.689  11.540  21.558  0.00  0.00    +0.116 C 
BRANCH  14  15
ATOM      2  F   UNL     1      10.956   5.963  21.230  0.00  0.00    -0.205 F 
ATOM     15  C   UNL     1      11.492  10.050  21.470  0.00  0.00    -0.033 A 
ATOM     17  C   UNL     1      10.846   9.370  22.502  0.00  0.00    +0.008 A 
ATOM     18  C   UNL     1      11.958   9.350  20.357  0.00  0.00    +0.008 A 
ATOM     21  C   UNL     1      10.664   7.990  22.420  0.00  0.00    +0.038 A 
ATOM     22  C   UNL     1      11.776   7.969  20.276  0.00  0.00    +0.038 A 
ATOM     26  C   UNL     1      11.130   7.289  21.307  0.00  0.00    +0.123 A 
ENDBRANCH  14  15
ENDBRANCH   7  14
ENDBRANCH   9   7
BRANCH  11  13
ATOM     13  C   UNL     1      16.633  11.369  21.754  0.00  0.00    +0.140 C 
BRANCH  13   8
ATOM      8  N   UNL     1      16.685   9.957  22.180  0.00  0.00    -0.187 NA
ATOM     29  H   UNL     1      17.467   9.706  22.798  0.00  0.00    +0.148 HD
BRANCH   8   1
ATOM      1  S   UNL     1      16.009   8.745  21.197  0.00  0.00    +0.058 S 
ATOM      5  O   UNL     1      15.667   9.310  19.906  0.00  0.00    -0.153 OA
ATOM      6  O   UNL     1      15.013   8.017  21.961  0.00  0.00    -0.153 OA
BRANCH   1  16
ATOM     16  C   UNL     1      17.382   7.656  20.969  0.00  0.00    +0.105 A 
ATOM     19  C   UNL     1      18.552   7.848  21.703  0.00  0.00    +0.029 A 
ATOM     20  C   UNL     1      17.297   6.607  20.053  0.00  0.00    +0.029 A 
ATOM     23  C   UNL     1      19.638   6.991  21.522  0.00  0.00    +0.005 A 
ATOM     24  C   UNL     1      18.382   5.750  19.872  0.00  0.00    +0.005 A 
ATOM     25  C   UNL     1      19.552   5.941  20.606  0.00  0.00    -0.050 A 
ATOM     27  C   UNL     1      20.712   5.024  20.413  0.00  0.00    +0.044 C 
ENDBRANCH   1  16
ENDBRANCH   8   1
ENDBRANCH  13   8
ENDBRANCH  11  13
TORSDOF 8
ENDMDL
MODEL 7
REMARK VINA RESULT:      -6.7     15.172     17.652
REMARK  Name = 75536708
REMARK  9 active torsions:
REMARK  status: ('A' for Active; 'I' for Inactive)
REMARK    1  A    between atoms: S_1  and  N_8
REMARK    2  A    between atoms: S_1  and  C_16
REMARK    3  A    between atoms: O_4  and  C_10
REMARK    4  A    between atoms: N_7  and  C_9
REMARK    5  A    between atoms: N_7  and  C_14
REMARK    6  A    between atoms: N_8  and  C_13
REMARK    7  A    between atoms: C_11  and  C_13
REMARK    8  A    between atoms: C_14  and  C_15
REMARK    9  A    between atoms: C_25  and  C_27
REMARK                            x       y       z     vdW  Elec       q    Type
REMARK                         _______ _______ _______ _____ _____    ______ ____
ROOT
ATOM      3  O   UNL     1      15.057   9.641   4.086  0.00  0.00    -0.371 OA
ATOM      9  C   UNL     1      14.324   8.965   6.242  0.00  0.00    +0.111 C 
ATOM     10  C   UNL     1      14.223   7.785   5.294  0.00  0.00    +0.164 C 
ATOM     11  C   UNL     1      15.183   8.212   4.191  0.00  0.00    +0.164 C 
ATOM     12  C   UNL     1      14.399  10.129   5.268  0.00  0.00    +0.181 C 
ENDROOT
BRANCH  10   4
ATOM      4  O   UNL     1      14.616   6.567   5.894  0.00  0.00    -0.388 OA
ATOM     30  H   UNL     1      15.526   6.368   5.613  0.00  0.00    +0.210 HD
ENDBRANCH  10   4
BRANCH   9   7
ATOM      7  N   UNL     1      13.206   9.071   7.165  0.00  0.00    -0.305 NA
ATOM     28  H   UNL     1      13.203  10.003   7.579  0.00  0.00    +0.123 HD
BRANCH   7  14
ATOM     14  C   UNL     1      11.937   8.855   6.480  0.00  0.00    +0.116 C 
BRANCH  14  15
ATOM      2  F   UNL     1       8.661   5.192   9.235  0.00  0.00    -0.205 F 
ATOM     15  C   UNL     1      11.061   7.877   7.215  0.00  0.00    -0.033 A 
ATOM     17  C   UNL     1       9.846   8.297   7.756  0.00  0.00    +0.008 A 
ATOM     18  C   UNL     1      11.466   6.549   7.358  0.00  0.00    +0.008 A 
ATOM     21  C   UNL     1       9.035   7.390   8.437  0.00  0.00    +0.038 A 
ATOM     22  C   UNL     1      10.654   5.642   8.040  0.00  0.00    +0.038 A 
ATOM     26  C   UNL     1       9.439   6.062   8.579  0.00  0.00    +0.123 A 
ENDBRANCH  14  15
ENDBRANCH   7  14
ENDBRANCH   9   7
BRANCH  11  13
ATOM     13  C   UNL     1      14.878   7.570   2.849  0.00  0.00    +0.140 C 
BRANCH  13   8
ATOM      8  N   UNL     1      14.284   6.237   3.061  0.00  0.00    -0.187 NA
ATOM     29  H   UNL     1      14.877   5.556   3.552  0.00  0.00    +0.148 HD
BRANCH   8   1
ATOM      1  S   UNL     1      13.098   5.652   1.990  0.00  0.00    +0.058 S 
ATOM      5  O   UNL     1      13.279   4.225   1.807  0.00  0.00    -0.153 OA
ATOM      6  O   UNL     1      13.027   6.531   0.839  0.00  0.00    -0.153 OA
BRANCH   1  16
ATOM     16  C   UNL     1      11.617   5.898   2.921  0.00  0.00    +0.105 A 
ATOM     19  C   UNL     1      11.038   7.166   2.986  0.00  0.00    +0.029 A 
ATOM     20  C   UNL     1      11.028   4.827   3.593  0.00  0.00    +0.029 A 
ATOM     23  C   UNL     1       9.870   7.363   3.723  0.00  0.00    +0.005 A 
ATOM     24  C   UNL     1       9.860   5.023   4.330  0.00  0.00    +0.005 A 
ATOM     25  C   UNL     1       9.281   6.291   4.395  0.00  0.00    -0.050 A 
ATOM     27  C   UNL     1       8.032   6.500   5.183  0.00  0.00    +0.044 C 
ENDBRANCH   1  16
ENDBRANCH   8   1
ENDBRANCH  13   8
ENDBRANCH  11  13
TORSDOF 8
ENDMDL
MODEL 8
REMARK VINA RESULT:      -6.7      4.164      6.332
REMARK  Name = 75536708
REMARK  9 active torsions:
REMARK  status: ('A' for Active; 'I' for Inactive)
REMARK    1  A    between atoms: S_1  and  N_8
REMARK    2  A    between atoms: S_1  and  C_16
REMARK    3  A    between atoms: O_4  and  C_10
REMARK    4  A    between atoms: N_7  and  C_9
REMARK    5  A    between atoms: N_7  and  C_14
REMARK    6  A    between atoms: N_8  and  C_13
REMARK    7  A    between atoms: C_11  and  C_13
REMARK    8  A    between atoms: C_14  and  C_15
REMARK    9  A    between atoms: C_25  and  C_27
REMARK                            x       y       z     vdW  Elec       q    Type
REMARK                         _______ _______ _______ _____ _____    ______ ____
ROOT
ATOM      3  O   UNL     1      11.620  13.196  22.787  0.00  0.00    -0.371 OA
ATOM      9  C   UNL     1      11.202  11.059  23.736  0.00  0.00    +0.111 C 
ATOM     10  C   UNL     1      12.561  11.549  24.201  0.00  0.00    +0.164 C 
ATOM     11  C   UNL     1      12.427  13.048  23.968  0.00  0.00    +0.164 C 
ATOM     12  C   UNL     1      10.961  11.944  22.525  0.00  0.00    +0.181 C 
ENDROOT
BRANCH  10   4
ATOM      4  O   UNL     1      12.814  11.247  25.560  0.00  0.00    -0.388 OA
ATOM     30  H   UNL     1      13.490  10.549  25.596  0.00  0.00    +0.210 HD
ENDBRANCH  10   4
BRANCH   9   7
ATOM      7  N   UNL     1      11.172   9.641  23.415  0.00  0.00    -0.305 NA
ATOM     28  H   UNL     1      10.393   9.205  23.908  0.00  0.00    +0.123 HD
BRANCH   7  14
ATOM     14  C   UNL     1      11.002   9.430  21.983  0.00  0.00    +0.116 C 
BRANCH  14  15
ATOM      2  F   UNL     1      15.046   6.141  19.845  0.00  0.00    -0.205 F 
ATOM     15  C   UNL     1      12.082   8.551  21.412  0.00  0.00    -0.033 A 
ATOM     17  C   UNL     1      13.348   8.530  21.999  0.00  0.00    +0.008 A 
ATOM     18  C   UNL     1      11.818   7.758  20.295  0.00  0.00    +0.008 A 
ATOM     21  C   UNL     1      14.348   7.715  21.471  0.00  0.00    +0.038 A 
ATOM     22  C   UNL     1      12.820   6.944  19.766  0.00  0.00    +0.038 A 
ATOM     26  C   UNL     1      14.084   6.922  20.353  0.00  0.00    +0.123 A 
ENDBRANCH  14  15
ENDBRANCH   7  14
ENDBRANCH   9   7
BRANCH  11  13
ATOM     13  C   UNL     1      13.761  13.746  23.768  0.00  0.00    +0.140 C 
BRANCH  13   8
ATOM      8  N   UNL     1      14.178  13.623  22.358  0.00  0.00    -0.187 NA
ATOM     29  H   UNL     1      13.437  13.766  21.659  0.00  0.00    +0.148 HD
BRANCH   8   1
ATOM      1  S   UNL     1      15.503  12.639  21.944  0.00  0.00    +0.058 S 
ATOM      5  O   UNL     1      15.758  11.701  23.019  0.00  0.00    -0.153 OA
ATOM      6  O   UNL     1      16.573  13.477  21.438  0.00  0.00    -0.153 OA
BRANCH   1  16
ATOM     16  C   UNL     1      14.864  11.732  20.569  0.00  0.00    +0.105 A 
ATOM     19  C   UNL     1      13.549  11.937  20.150  0.00  0.00    +0.029 A 
ATOM     20  C   UNL     1      15.672  10.810  19.904  0.00  0.00    +0.029 A 
ATOM     23  C   UNL     1      13.043  11.219  19.066  0.00  0.00    +0.005 A 
ATOM     24  C   UNL     1      15.166  10.092  18.820  0.00  0.00    +0.005 A 
ATOM     25  C   UNL     1      13.852  10.297  18.401  0.00  0.00    -0.050 A 
ATOM     27  C   UNL     1      13.311   9.530  17.242  0.00  0.00    +0.044 C 
ENDBRANCH   1  16
ENDBRANCH   8   1
ENDBRANCH  13   8
ENDBRANCH  11  13
TORSDOF 8
ENDMDL
MODEL 9
REMARK VINA RESULT:      -6.6     24.694     27.857
REMARK  Name = 75536708
REMARK  9 active torsions:
REMARK  status: ('A' for Active; 'I' for Inactive)
REMARK    1  A    between atoms: S_1  and  N_8
REMARK    2  A    between atoms: S_1  and  C_16
REMARK    3  A    between atoms: O_4  and  C_10
REMARK    4  A    between atoms: N_7  and  C_9
REMARK    5  A    between atoms: N_7  and  C_14
REMARK    6  A    between atoms: N_8  and  C_13
REMARK    7  A    between atoms: C_11  and  C_13
REMARK    8  A    between atoms: C_14  and  C_15
REMARK    9  A    between atoms: C_25  and  C_27
REMARK                            x       y       z     vdW  Elec       q    Type
REMARK                         _______ _______ _______ _____ _____    ______ ____
ROOT
ATOM      3  O   UNL     1     -10.473  10.786  15.849  0.00  0.00    -0.371 OA
ATOM      9  C   UNL     1      -9.770   9.513  17.727  0.00  0.00    +0.111 C 
ATOM     10  C   UNL     1     -10.658   8.650  16.850  0.00  0.00    +0.164 C 
ATOM     11  C   UNL     1     -10.563   9.389  15.521  0.00  0.00    +0.164 C 
ATOM     12  C   UNL     1     -10.129  10.907  17.240  0.00  0.00    +0.181 C 
ENDROOT
BRANCH  10   4
ATOM      4  O   UNL     1     -10.195   7.318  16.746  0.00  0.00    -0.388 OA
ATOM     30  H   UNL     1     -10.920   6.768  16.404  0.00  0.00    +0.210 HD
ENDBRANCH  10   4
BRANCH   9   7
ATOM      7  N   UNL     1     -10.005   9.333  19.150  0.00  0.00    -0.305 NA
ATOM     28  H   UNL     1      -9.278   9.823  19.672  0.00  0.00    +0.123 HD
BRANCH   7  14
ATOM     14  C   UNL     1     -11.306   9.864  19.540  0.00  0.00    +0.116 C 
BRANCH  14  15
ATOM      2  F   UNL     1     -14.278   6.151  22.560  0.00  0.00    -0.205 F 
ATOM     15  C   UNL     1     -12.099   8.872  20.348  0.00  0.00    -0.033 A 
ATOM     17  C   UNL     1     -11.812   7.510  20.256  0.00  0.00    +0.008 A 
ATOM     18  C   UNL     1     -13.122   9.315  21.186  0.00  0.00    +0.008 A 
ATOM     21  C   UNL     1     -12.548   6.591  21.004  0.00  0.00    +0.038 A 
ATOM     22  C   UNL     1     -13.858   8.395  21.934  0.00  0.00    +0.038 A 
ATOM     26  C   UNL     1     -13.571   7.034  21.843  0.00  0.00    +0.123 A 
ENDBRANCH  14  15
ENDBRANCH   7  14
ENDBRANCH   9   7
BRANCH  11  13
ATOM     13  C   UNL     1     -11.759   9.151  14.615  0.00  0.00    +0.140 C 
BRANCH  13   8
ATOM      8  N   UNL     1     -12.654   8.152  15.229  0.00  0.00    -0.187 NA
ATOM     29  H   UNL     1     -12.192   7.328  15.636  0.00  0.00    +0.148 HD
BRANCH   8   1
ATOM      1  S   UNL     1     -14.257   7.992  14.681  0.00  0.00    +0.058 S 
ATOM      5  O   UNL     1     -14.377   6.779  13.896  0.00  0.00    -0.153 OA
ATOM      6  O   UNL     1     -14.698   9.261  14.134  0.00  0.00    -0.153 OA
BRANCH   1  16
ATOM     16  C   UNL     1     -15.134   7.750  16.196  0.00  0.00    +0.105 A 
ATOM     19  C   UNL     1     -14.532   8.081  17.410  0.00  0.00    +0.029 A 
ATOM     20  C   UNL     1     -16.427   7.225  16.178  0.00  0.00    +0.029 A 
ATOM     23  C   UNL     1     -15.223   7.888  18.606  0.00  0.00    +0.005 A 
ATOM     24  C   UNL     1     -17.118   7.031  17.374  0.00  0.00    +0.005 A 
ATOM     25  C   UNL     1     -16.516   7.363  18.588  0.00  0.00    -0.050 A 
ATOM     27  C   UNL     1     -17.255   7.156  19.867  0.00  0.00    +0.044 C 
ENDBRANCH   1  16
ENDBRANCH   8   1
ENDBRANCH  13   8
ENDBRANCH  11  13
TORSDOF 8
ENDMDL
MODEL 10
REMARK VINA RESULT:      -6.6     27.044     29.472
REMARK  Name = 75536708
REMARK  9 active torsions:
REMARK  status: ('A' for Active; 'I' for Inactive)
REMARK    1  A    between atoms: S_1  and  N_8
REMARK    2  A    between atoms: S_1  and  C_16
REMARK    3  A    between atoms: O_4  and  C_10
REMARK    4  A    between atoms: N_7  and  C_9
REMARK    5  A    between atoms: N_7  and  C_14
REMARK    6  A    between atoms: N_8  and  C_13
REMARK    7  A    between atoms: C_11  and  C_13
REMARK    8  A    between atoms: C_14  and  C_15
REMARK    9  A    between atoms: C_25  and  C_27
REMARK                            x       y       z     vdW  Elec       q    Type
REMARK                         _______ _______ _______ _____ _____    ______ ____
ROOT
ATOM      3  O   UNL     1      -4.961 -11.791  15.711  0.00  0.00    -0.371 OA
ATOM      9  C   UNL     1      -3.006 -11.263  14.469  0.00  0.00    +0.111 C 
ATOM     10  C   UNL     1      -2.781 -10.896  15.924  0.00  0.00    +0.164 C 
ATOM     11  C   UNL     1      -3.838 -11.752  16.609  0.00  0.00    +0.164 C 
ATOM     12  C   UNL     1      -4.522 -11.356  14.412  0.00  0.00    +0.181 C 
ENDROOT
BRANCH  10   4
ATOM      4  O   UNL     1      -1.477 -11.210  16.371  0.00  0.00    -0.388 OA
ATOM     30  H   UNL     1      -1.432 -12.168  16.534  0.00  0.00    +0.210 HD
ENDBRANCH  10   4
BRANCH   9   7
ATOM      7  N   UNL     1      -2.464 -10.294  13.532  0.00  0.00    -0.305 NA
ATOM     28  H   UNL     1      -1.700  -9.787  13.981  0.00  0.00    +0.123 HD
BRANCH   7  14
ATOM     14  C   UNL     1      -1.953 -10.950  12.333  0.00  0.00    +0.116 C 
BRANCH  14  15
ATOM      2  F   UNL     1      -5.186  -9.914   7.836  0.00  0.00    -0.205 F 
ATOM     15  C   UNL     1      -2.816 -10.673  11.131  0.00  0.00    -0.033 A 
ATOM     17  C   UNL     1      -2.917  -9.375  10.628  0.00  0.00    +0.008 A 
ATOM     18  C   UNL     1      -3.517 -11.714  10.522  0.00  0.00    +0.008 A 
ATOM     21  C   UNL     1      -3.716  -9.120   9.514  0.00  0.00    +0.038 A 
ATOM     22  C   UNL     1      -4.317 -11.457   9.408  0.00  0.00    +0.038 A 
ATOM     26  C   UNL     1      -4.417 -10.161   8.904  0.00  0.00    +0.123 A 
ENDBRANCH  14  15
ENDBRANCH   7  14
ENDBRANCH   9   7
BRANCH  11  13
ATOM     13  C   UNL     1      -4.277 -11.202  17.954  0.00  0.00    +0.140 C 
BRANCH  13   8
ATOM      8  N   UNL     1      -5.631 -10.627  17.837  0.00  0.00    -0.187 NA
ATOM     29  H   UNL     1      -5.685  -9.697  17.402  0.00  0.00    +0.148 HD
BRANCH   8   1
ATOM      1  S   UNL     1      -6.848 -11.080  18.937  0.00  0.00    +0.058 S 
ATOM      5  O   UNL     1      -6.532 -10.544  20.247  0.00  0.00    -0.153 OA
ATOM      6  O   UNL     1      -7.129 -12.493  18.775  0.00  0.00    -0.153 OA
BRANCH   1  16
ATOM     16  C   UNL     1      -8.247 -10.200  18.311  0.00  0.00    +0.105 A 
ATOM     19  C   UNL     1      -8.072  -9.214  17.339  0.00  0.00    +0.029 A 
ATOM     20  C   UNL     1      -9.525 -10.488  18.790  0.00  0.00    +0.029 A 
ATOM     23  C   UNL     1      -9.175  -8.517  16.846  0.00  0.00    +0.005 A 
ATOM     24  C   UNL     1     -10.628  -9.791  18.297  0.00  0.00    +0.005 A 
ATOM     25  C   UNL     1     -10.453  -8.806  17.325  0.00  0.00    -0.050 A 
ATOM     27  C   UNL     1     -11.633  -8.061  16.798  0.00  0.00    +0.044 C 
ENDBRANCH   1  16
ENDBRANCH   8   1
ENDBRANCH  13   8
ENDBRANCH  11  13
TORSDOF 8
ENDMDL
