MODEL 1
REMARK VINA RESULT:      -6.3      0.000      0.000
REMARK  Name = 75536669
REMARK  8 active torsions:
REMARK  status: ('A' for Active; 'I' for Inactive)
REMARK    1  A    between atoms: S_1  and  N_7
REMARK    2  A    between atoms: S_1  and  C_17
REMARK    3  A    between atoms: O_3  and  C_11
REMARK    4  A    between atoms: N_6  and  C_10
REMARK    5  A    between atoms: N_6  and  C_15
REMARK    6  A    between atoms: N_7  and  C_14
REMARK    7  A    between atoms: C_12  and  C_14
REMARK    8  A    between atoms: C_15  and  C_16
REMARK                            x       y       z     vdW  Elec       q    Type
REMARK                         _______ _______ _______ _____ _____    ______ ____
ROOT
ATOM      2  O   UNL     1      11.086   8.778  20.179  0.00  0.00    -0.371 OA
ATOM     10  C   UNL     1      12.392   6.852  19.698  0.00  0.00    +0.111 C 
ATOM     11  C   UNL     1      12.025   6.846  21.171  0.00  0.00    +0.164 C 
ATOM     12  C   UNL     1      10.820   7.778  21.177  0.00  0.00    +0.164 C 
ATOM     13  C   UNL     1      12.152   8.308  19.335  0.00  0.00    +0.181 C 
ENDROOT
BRANCH  11   3
ATOM      3  O   UNL     1      11.695   5.556  21.646  0.00  0.00    -0.388 OA
ATOM     21  H   UNL     1      10.731   5.507  21.757  0.00  0.00    +0.210 HD
ENDBRANCH  11   3
BRANCH  10   6
ATOM      6  N   UNL     1      13.754   6.419  19.435  0.00  0.00    -0.302 NA
ATOM     20  H   UNL     1      14.043   6.762  18.519  0.00  0.00    +0.123 HD
BRANCH   6  15
ATOM     15  C   UNL     1      14.672   6.935  20.444  0.00  0.00    +0.156 C 
BRANCH  15  16
ATOM      8  N   UNL     1      16.446   5.921  18.993  0.00  0.00    -0.347 N 
ATOM      9  N   UNL     1      17.133   6.710  20.951  0.00  0.00    -0.240 NA
ATOM     16  C   UNL     1      16.097   6.535  20.163  0.00  0.00    +0.121 A 
ATOM     18  C   UNL     1      17.792   5.689  19.037  0.00  0.00    +0.104 A 
ATOM     19  C   UNL     1      18.194   6.184  20.256  0.00  0.00    +0.130 A 
ATOM     23  H   UNL     1      15.824   5.681  18.232  0.00  0.00    +0.167 HD
ENDBRANCH  15  16
ENDBRANCH   6  15
ENDBRANCH  10   6
BRANCH  12  14
ATOM     14  C   UNL     1      10.583   8.444  22.521  0.00  0.00    +0.139 C 
BRANCH  14   7
ATOM      7  N   UNL     1      11.719   9.331  22.840  0.00  0.00    -0.192 NA
ATOM     22  H   UNL     1      12.428   8.888  23.439  0.00  0.00    +0.148 HD
BRANCH   7   1
ATOM      1  S   UNL     1      11.426  10.991  23.108  0.00  0.00    +0.027 S 
ATOM      4  O   UNL     1      10.499  11.155  24.211  0.00  0.00    -0.158 OA
ATOM      5  O   UNL     1      11.175  11.624  21.828  0.00  0.00    -0.158 OA
ATOM     17  C   UNL     1      13.032  11.521  23.657  0.00  0.00    +0.214 C 
ENDBRANCH   7   1
ENDBRANCH  14   7
ENDBRANCH  12  14
TORSDOF 7
ENDMDL
MODEL 2
REMARK VINA RESULT:      -6.2      3.714      6.655
REMARK  Name = 75536669
REMARK  8 active torsions:
REMARK  status: ('A' for Active; 'I' for Inactive)
REMARK    1  A    between atoms: S_1  and  N_7
REMARK    2  A    between atoms: S_1  and  C_17
REMARK    3  A    between atoms: O_3  and  C_11
REMARK    4  A    between atoms: N_6  and  C_10
REMARK    5  A    between atoms: N_6  and  C_15
REMARK    6  A    between atoms: N_7  and  C_14
REMARK    7  A    between atoms: C_12  and  C_14
REMARK    8  A    between atoms: C_15  and  C_16
REMARK                            x       y       z     vdW  Elec       q    Type
REMARK                         _______ _______ _______ _____ _____    ______ ____
ROOT
ATOM      2  O   UNL     1      13.129   6.826  20.524  0.00  0.00    -0.371 OA
ATOM     10  C   UNL     1      11.061   7.886  21.020  0.00  0.00    +0.111 C 
ATOM     11  C   UNL     1      11.545   8.359  19.661  0.00  0.00    +0.164 C 
ATOM     12  C   UNL     1      12.515   7.243  19.293  0.00  0.00    +0.164 C 
ATOM     13  C   UNL     1      12.342   7.329  21.619  0.00  0.00    +0.181 C 
ENDROOT
BRANCH  11   3
ATOM      3  O   UNL     1      10.498   8.478  18.720  0.00  0.00    -0.388 OA
ATOM     21  H   UNL     1       9.887   9.168  19.027  0.00  0.00    +0.210 HD
ENDBRANCH  11   3
BRANCH  10   6
ATOM      6  N   UNL     1      10.471   8.941  21.827  0.00  0.00    -0.302 NA
ATOM     20  H   UNL     1      10.459   8.648  22.804  0.00  0.00    +0.123 HD
BRANCH   6  15
ATOM     15  C   UNL     1      11.237  10.177  21.715  0.00  0.00    +0.156 C 
BRANCH  15  16
ATOM      8  N   UNL     1      11.253  10.457  24.206  0.00  0.00    -0.347 N 
ATOM      9  N   UNL     1      10.937  12.312  23.027  0.00  0.00    -0.240 NA
ATOM     16  C   UNL     1      11.137  11.015  22.963  0.00  0.00    +0.121 A 
ATOM     18  C   UNL     1      11.119  11.463  25.121  0.00  0.00    +0.104 A 
ATOM     19  C   UNL     1      10.924  12.598  24.370  0.00  0.00    +0.130 A 
ATOM     23  H   UNL     1      11.409   9.479  24.412  0.00  0.00    +0.167 HD
ENDBRANCH  15  16
ENDBRANCH   6  15
ENDBRANCH  10   6
BRANCH  12  14
ATOM     14  C   UNL     1      13.586   7.681  18.308  0.00  0.00    +0.139 C 
BRANCH  14   7
ATOM      7  N   UNL     1      13.048   7.623  16.935  0.00  0.00    -0.192 NA
ATOM     22  H   UNL     1      13.165   6.703  16.488  0.00  0.00    +0.148 HD
BRANCH   7   1
ATOM      1  S   UNL     1      13.209   8.986  15.922  0.00  0.00    +0.027 S 
ATOM      4  O   UNL     1      11.948   9.262  15.262  0.00  0.00    -0.158 OA
ATOM      5  O   UNL     1      14.432   8.845  15.154  0.00  0.00    -0.158 OA
ATOM     17  C   UNL     1      13.486  10.261  17.131  0.00  0.00    +0.214 C 
ENDBRANCH   7   1
ENDBRANCH  14   7
ENDBRANCH  12  14
TORSDOF 7
ENDMDL
MODEL 3
REMARK VINA RESULT:      -5.9      1.836      2.228
REMARK  Name = 75536669
REMARK  8 active torsions:
REMARK  status: ('A' for Active; 'I' for Inactive)
REMARK    1  A    between atoms: S_1  and  N_7
REMARK    2  A    between atoms: S_1  and  C_17
REMARK    3  A    between atoms: O_3  and  C_11
REMARK    4  A    between atoms: N_6  and  C_10
REMARK    5  A    between atoms: N_6  and  C_15
REMARK    6  A    between atoms: N_7  and  C_14
REMARK    7  A    between atoms: C_12  and  C_14
REMARK    8  A    between atoms: C_15  and  C_16
REMARK                            x       y       z     vdW  Elec       q    Type
REMARK                         _______ _______ _______ _____ _____    ______ ____
ROOT
ATOM      2  O   UNL     1      11.579  10.284  21.068  0.00  0.00    -0.371 OA
ATOM     10  C   UNL     1      11.158   8.075  20.302  0.00  0.00    +0.111 C 
ATOM     11  C   UNL     1      10.885   8.142  21.794  0.00  0.00    +0.164 C 
ATOM     12  C   UNL     1      10.681   9.640  21.987  0.00  0.00    +0.164 C 
ATOM     13  C   UNL     1      12.012   9.315  20.097  0.00  0.00    +0.181 C 
ENDROOT
BRANCH  11   3
ATOM      3  O   UNL     1       9.741   7.402  22.173  0.00  0.00    -0.388 OA
ATOM     21  H   UNL     1       9.672   6.626  21.593  0.00  0.00    +0.210 HD
ENDBRANCH  11   3
BRANCH  10   6
ATOM      6  N   UNL     1      11.825   6.852  19.887  0.00  0.00    -0.302 NA
ATOM     20  H   UNL     1      11.141   6.225  19.464  0.00  0.00    +0.123 HD
BRANCH   6  15
ATOM     15  C   UNL     1      12.875   7.132  18.915  0.00  0.00    +0.156 C 
BRANCH  15  16
ATOM      8  N   UNL     1      14.465   6.313  20.671  0.00  0.00    -0.347 N 
ATOM      9  N   UNL     1      15.355   7.570  19.071  0.00  0.00    -0.240 NA
ATOM     16  C   UNL     1      14.248   7.027  19.525  0.00  0.00    +0.121 A 
ATOM     18  C   UNL     1      15.795   6.407  20.967  0.00  0.00    +0.104 A 
ATOM     19  C   UNL     1      16.324   7.188  19.966  0.00  0.00    +0.130 A 
ATOM     23  H   UNL     1      13.769   5.807  21.203  0.00  0.00    +0.167 HD
ENDBRANCH  15  16
ENDBRANCH   6  15
ENDBRANCH  10   6
BRANCH  12  14
ATOM     14  C   UNL     1      10.973  10.107  23.402  0.00  0.00    +0.139 C 
BRANCH  14   7
ATOM      7  N   UNL     1      10.229  11.352  23.675  0.00  0.00    -0.192 NA
ATOM     22  H   UNL     1       9.592  11.623  22.913  0.00  0.00    +0.148 HD
BRANCH   7   1
ATOM      1  S   UNL     1      11.011  12.623  24.501  0.00  0.00    +0.027 S 
ATOM      4  O   UNL     1      10.298  12.927  25.726  0.00  0.00    -0.158 OA
ATOM      5  O   UNL     1      11.322  13.668  23.544  0.00  0.00    -0.158 OA
ATOM     17  C   UNL     1      12.543  11.834  24.940  0.00  0.00    +0.214 C 
ENDBRANCH   7   1
ENDBRANCH  14   7
ENDBRANCH  12  14
TORSDOF 7
ENDMDL
MODEL 4
REMARK VINA RESULT:      -5.6      3.121      7.039
REMARK  Name = 75536669
REMARK  8 active torsions:
REMARK  status: ('A' for Active; 'I' for Inactive)
REMARK    1  A    between atoms: S_1  and  N_7
REMARK    2  A    between atoms: S_1  and  C_17
REMARK    3  A    between atoms: O_3  and  C_11
REMARK    4  A    between atoms: N_6  and  C_10
REMARK    5  A    between atoms: N_6  and  C_15
REMARK    6  A    between atoms: N_7  and  C_14
REMARK    7  A    between atoms: C_12  and  C_14
REMARK    8  A    between atoms: C_15  and  C_16
REMARK                            x       y       z     vdW  Elec       q    Type
REMARK                         _______ _______ _______ _____ _____    ______ ____
ROOT
ATOM      2  O   UNL     1      10.661   7.557  20.853  0.00  0.00    -0.371 OA
ATOM     10  C   UNL     1      11.504   9.582  21.765  0.00  0.00    +0.111 C 
ATOM     11  C   UNL     1      12.577   8.944  20.901  0.00  0.00    +0.164 C 
ATOM     12  C   UNL     1      11.737   8.025  20.023  0.00  0.00    +0.164 C 
ATOM     13  C   UNL     1      10.578   8.404  22.013  0.00  0.00    +0.181 C 
ENDROOT
BRANCH  11   3
ATOM      3  O   UNL     1      13.296   9.891  20.135  0.00  0.00    -0.388 OA
ATOM     21  H   UNL     1      12.659  10.496  19.720  0.00  0.00    +0.210 HD
ENDBRANCH  11   3
BRANCH  10   6
ATOM      6  N   UNL     1      12.018  10.168  22.992  0.00  0.00    -0.302 NA
ATOM     20  H   UNL     1      12.471  11.055  22.775  0.00  0.00    +0.123 HD
BRANCH   6  15
ATOM     15  C   UNL     1      10.943  10.409  23.948  0.00  0.00    +0.156 C 
BRANCH  15  16
ATOM      8  N   UNL     1      10.654  12.239  25.635  0.00  0.00    -0.347 N 
ATOM      9  N   UNL     1      10.946  12.898  23.535  0.00  0.00    -0.240 NA
ATOM     16  C   UNL     1      10.852  11.861  24.337  0.00  0.00    +0.121 A 
ATOM     18  C   UNL     1      10.619  13.605  25.664  0.00  0.00    +0.104 A 
ATOM     19  C   UNL     1      10.800  13.988  24.356  0.00  0.00    +0.130 A 
ATOM     23  H   UNL     1      10.553  11.623  26.431  0.00  0.00    +0.167 HD
ENDBRANCH  15  16
ENDBRANCH   6  15
ENDBRANCH  10   6
BRANCH  12  14
ATOM     14  C   UNL     1      12.516   6.841  19.477  0.00  0.00    +0.139 C 
BRANCH  14   7
ATOM      7  N   UNL     1      13.832   6.767  20.140  0.00  0.00    -0.192 NA
ATOM     22  H   UNL     1      13.818   7.096  21.115  0.00  0.00    +0.148 HD
BRANCH   7   1
ATOM      1  S   UNL     1      15.237   7.119  19.239  0.00  0.00    +0.027 S 
ATOM      4  O   UNL     1      16.066   5.934  19.135  0.00  0.00    -0.158 OA
ATOM      5  O   UNL     1      15.790   8.370  19.722  0.00  0.00    -0.158 OA
ATOM     17  C   UNL     1      14.529   7.435  17.639  0.00  0.00    +0.214 C 
ENDBRANCH   7   1
ENDBRANCH  14   7
ENDBRANCH  12  14
TORSDOF 7
ENDMDL
MODEL 5
REMARK VINA RESULT:      -5.6      4.382      6.899
REMARK  Name = 75536669
REMARK  8 active torsions:
REMARK  status: ('A' for Active; 'I' for Inactive)
REMARK    1  A    between atoms: S_1  and  N_7
REMARK    2  A    between atoms: S_1  and  C_17
REMARK    3  A    between atoms: O_3  and  C_11
REMARK    4  A    between atoms: N_6  and  C_10
REMARK    5  A    between atoms: N_6  and  C_15
REMARK    6  A    between atoms: N_7  and  C_14
REMARK    7  A    between atoms: C_12  and  C_14
REMARK    8  A    between atoms: C_15  and  C_16
REMARK                            x       y       z     vdW  Elec       q    Type
REMARK                         _______ _______ _______ _____ _____    ______ ____
ROOT
ATOM      2  O   UNL     1      16.546   9.381  20.582  0.00  0.00    -0.371 OA
ATOM     10  C   UNL     1      15.015   7.566  20.503  0.00  0.00    +0.111 C 
ATOM     11  C   UNL     1      16.334   7.076  21.070  0.00  0.00    +0.164 C 
ATOM     12  C   UNL     1      16.959   8.386  21.533  0.00  0.00    +0.164 C 
ATOM     13  C   UNL     1      15.440   8.858  19.825  0.00  0.00    +0.181 C 
ENDROOT
BRANCH  11   3
ATOM      3  O   UNL     1      16.165   6.167  22.139  0.00  0.00    -0.388 OA
ATOM     21  H   UNL     1      17.044   5.887  22.446  0.00  0.00    +0.210 HD
ENDBRANCH  11   3
BRANCH  10   6
ATOM      6  N   UNL     1      14.388   6.626  19.589  0.00  0.00    -0.302 NA
ATOM     20  H   UNL     1      14.292   5.723  20.052  0.00  0.00    +0.123 HD
BRANCH   6  15
ATOM     15  C   UNL     1      13.067   7.091  19.182  0.00  0.00    +0.156 C 
BRANCH  15  16
ATOM      8  N   UNL     1      11.811   5.719  20.862  0.00  0.00    -0.347 N 
ATOM      9  N   UNL     1      11.309   7.882  20.810  0.00  0.00    -0.240 NA
ATOM     16  C   UNL     1      12.053   6.934  20.285  0.00  0.00    +0.121 A 
ATOM     18  C   UNL     1      10.852   5.903  21.818  0.00  0.00    +0.104 A 
ATOM     19  C   UNL     1      10.557   7.245  21.766  0.00  0.00    +0.130 A 
ATOM     23  H   UNL     1      12.260   4.843  20.627  0.00  0.00    +0.167 HD
ENDBRANCH  15  16
ENDBRANCH   6  15
ENDBRANCH  10   6
BRANCH  12  14
ATOM     14  C   UNL     1      18.475   8.337  21.599  0.00  0.00    +0.139 C 
BRANCH  14   7
ATOM      7  N   UNL     1      18.900   7.125  22.326  0.00  0.00    -0.192 NA
ATOM     22  H   UNL     1      18.756   7.187  23.343  0.00  0.00    +0.148 HD
BRANCH   7   1
ATOM      1  S   UNL     1      20.293   6.289  21.805  0.00  0.00    +0.027 S 
ATOM      4  O   UNL     1      19.998   5.549  20.593  0.00  0.00    -0.158 OA
ATOM      5  O   UNL     1      20.887   5.629  22.951  0.00  0.00    -0.158 OA
ATOM     17  C   UNL     1      21.349   7.652  21.371  0.00  0.00    +0.214 C 
ENDBRANCH   7   1
ENDBRANCH  14   7
ENDBRANCH  12  14
TORSDOF 7
ENDMDL
MODEL 6
REMARK VINA RESULT:      -5.5     25.632     27.259
REMARK  Name = 75536669
REMARK  8 active torsions:
REMARK  status: ('A' for Active; 'I' for Inactive)
REMARK    1  A    between atoms: S_1  and  N_7
REMARK    2  A    between atoms: S_1  and  C_17
REMARK    3  A    between atoms: O_3  and  C_11
REMARK    4  A    between atoms: N_6  and  C_10
REMARK    5  A    between atoms: N_6  and  C_15
REMARK    6  A    between atoms: N_7  and  C_14
REMARK    7  A    between atoms: C_12  and  C_14
REMARK    8  A    between atoms: C_15  and  C_16
REMARK                            x       y       z     vdW  Elec       q    Type
REMARK                         _______ _______ _______ _____ _____    ______ ____
ROOT
ATOM      2  O   UNL     1      -7.232 -13.169  18.131  0.00  0.00    -0.371 OA
ATOM     10  C   UNL     1      -5.050 -12.499  18.789  0.00  0.00    +0.111 C 
ATOM     11  C   UNL     1      -6.066 -11.567  19.424  0.00  0.00    +0.164 C 
ATOM     12  C   UNL     1      -7.328 -12.418  19.353  0.00  0.00    +0.164 C 
ATOM     13  C   UNL     1      -5.870 -13.121  17.672  0.00  0.00    +0.181 C 
ENDROOT
BRANCH  11   3
ATOM      3  O   UNL     1      -5.736 -11.225  20.755  0.00  0.00    -0.388 OA
ATOM     21  H   UNL     1      -5.595 -12.045  21.257  0.00  0.00    +0.210 HD
ENDBRANCH  11   3
BRANCH  10   6
ATOM      6  N   UNL     1      -3.858 -11.820  18.308  0.00  0.00    -0.302 NA
ATOM     20  H   UNL     1      -3.178 -12.515  18.001  0.00  0.00    +0.123 HD
BRANCH   6  15
ATOM     15  C   UNL     1      -4.173 -10.940  17.188  0.00  0.00    +0.156 C 
BRANCH  15  16
ATOM      8  N   UNL     1      -1.728 -10.981  16.638  0.00  0.00    -0.347 N 
ATOM      9  N   UNL     1      -3.096 -10.581  14.935  0.00  0.00    -0.240 NA
ATOM     16  C   UNL     1      -3.021 -10.827  16.223  0.00  0.00    +0.121 A 
ATOM     18  C   UNL     1      -0.925 -10.823  15.543  0.00  0.00    +0.104 A 
ATOM     19  C   UNL     1      -1.792 -10.577  14.504  0.00  0.00    +0.130 A 
ATOM     23  H   UNL     1      -1.419 -11.176  17.581  0.00  0.00    +0.167 HD
ENDBRANCH  15  16
ENDBRANCH   6  15
ENDBRANCH  10   6
BRANCH  12  14
ATOM     14  C   UNL     1      -8.606 -11.597  19.352  0.00  0.00    +0.139 C 
BRANCH  14   7
ATOM      7  N   UNL     1      -8.301 -10.209  18.953  0.00  0.00    -0.192 NA
ATOM     22  H   UNL     1      -8.602  -9.509  19.644  0.00  0.00    +0.148 HD
BRANCH   7   1
ATOM      1  S   UNL     1      -8.444  -9.766  17.311  0.00  0.00    +0.027 S 
ATOM      4  O   UNL     1      -9.040 -10.852  16.558  0.00  0.00    -0.158 OA
ATOM      5  O   UNL     1      -7.192  -9.169  16.887  0.00  0.00    -0.158 OA
ATOM     17  C   UNL     1      -9.643  -8.458  17.429  0.00  0.00    +0.214 C 
ENDBRANCH   7   1
ENDBRANCH  14   7
ENDBRANCH  12  14
TORSDOF 7
ENDMDL
MODEL 7
REMARK VINA RESULT:      -5.5      5.352      7.324
REMARK  Name = 75536669
REMARK  8 active torsions:
REMARK  status: ('A' for Active; 'I' for Inactive)
REMARK    1  A    between atoms: S_1  and  N_7
REMARK    2  A    between atoms: S_1  and  C_17
REMARK    3  A    between atoms: O_3  and  C_11
REMARK    4  A    between atoms: N_6  and  C_10
REMARK    5  A    between atoms: N_6  and  C_15
REMARK    6  A    between atoms: N_7  and  C_14
REMARK    7  A    between atoms: C_12  and  C_14
REMARK    8  A    between atoms: C_15  and  C_16
REMARK                            x       y       z     vdW  Elec       q    Type
REMARK                         _______ _______ _______ _____ _____    ______ ____
ROOT
ATOM      2  O   UNL     1      14.203  11.362  17.320  0.00  0.00    -0.371 OA
ATOM     10  C   UNL     1      13.453   9.110  17.420  0.00  0.00    +0.111 C 
ATOM     11  C   UNL     1      13.263   9.632  16.008  0.00  0.00    +0.164 C 
ATOM     12  C   UNL     1      14.236  10.804  15.996  0.00  0.00    +0.164 C 
ATOM     13  C   UNL     1      13.592  10.405  18.203  0.00  0.00    +0.181 C 
ENDROOT
BRANCH  11   3
ATOM      3  O   UNL     1      13.584   8.670  15.023  0.00  0.00    -0.388 OA
ATOM     21  H   UNL     1      12.826   8.070  14.922  0.00  0.00    +0.210 HD
ENDBRANCH  11   3
BRANCH  10   6
ATOM      6  N   UNL     1      12.355   8.280  17.888  0.00  0.00    -0.302 NA
ATOM     20  H   UNL     1      11.879   7.871  17.084  0.00  0.00    +0.123 HD
BRANCH   6  15
ATOM     15  C   UNL     1      12.838   7.207  18.748  0.00  0.00    +0.156 C 
BRANCH  15  16
ATOM      8  N   UNL     1      11.716   5.859  20.539  0.00  0.00    -0.347 N 
ATOM      9  N   UNL     1      11.506   8.063  20.712  0.00  0.00    -0.240 NA
ATOM     16  C   UNL     1      12.015   7.081  20.004  0.00  0.00    +0.121 A 
ATOM     18  C   UNL     1      10.967   6.075  21.661  0.00  0.00    +0.104 A 
ATOM     19  C   UNL     1      10.850   7.443  21.747  0.00  0.00    +0.130 A 
ATOM     23  H   UNL     1      11.997   4.958  20.173  0.00  0.00    +0.167 HD
ENDBRANCH  15  16
ENDBRANCH   6  15
ENDBRANCH  10   6
BRANCH  12  14
ATOM     14  C   UNL     1      13.874  11.873  14.979  0.00  0.00    +0.139 C 
BRANCH  14   7
ATOM      7  N   UNL     1      12.799  11.375  14.099  0.00  0.00    -0.192 NA
ATOM     22  H   UNL     1      12.892  10.377  13.864  0.00  0.00    +0.148 HD
BRANCH   7   1
ATOM      1  S   UNL     1      12.192  12.392  12.871  0.00  0.00    +0.027 S 
ATOM      4  O   UNL     1      12.718  11.979  11.585  0.00  0.00    -0.158 OA
ATOM      5  O   UNL     1      12.313  13.768  13.315  0.00  0.00    -0.158 OA
ATOM     17  C   UNL     1      10.465  11.969  12.919  0.00  0.00    +0.214 C 
ENDBRANCH   7   1
ENDBRANCH  14   7
ENDBRANCH  12  14
TORSDOF 7
ENDMDL
MODEL 8
REMARK VINA RESULT:      -5.4      3.481      6.581
REMARK  Name = 75536669
REMARK  8 active torsions:
REMARK  status: ('A' for Active; 'I' for Inactive)
REMARK    1  A    between atoms: S_1  and  N_7
REMARK    2  A    between atoms: S_1  and  C_17
REMARK    3  A    between atoms: O_3  and  C_11
REMARK    4  A    between atoms: N_6  and  C_10
REMARK    5  A    between atoms: N_6  and  C_15
REMARK    6  A    between atoms: N_7  and  C_14
REMARK    7  A    between atoms: C_12  and  C_14
REMARK    8  A    between atoms: C_15  and  C_16
REMARK                            x       y       z     vdW  Elec       q    Type
REMARK                         _______ _______ _______ _____ _____    ______ ____
ROOT
ATOM      2  O   UNL     1      11.709  12.016  20.773  0.00  0.00    -0.371 OA
ATOM     10  C   UNL     1      11.233  11.873  23.097  0.00  0.00    +0.111 C 
ATOM     11  C   UNL     1      11.204  10.478  22.499  0.00  0.00    +0.164 C 
ATOM     12  C   UNL     1      12.016  10.687  21.227  0.00  0.00    +0.164 C 
ATOM     13  C   UNL     1      11.089  12.735  21.854  0.00  0.00    +0.181 C 
ENDROOT
BRANCH  11   3
ATOM      3  O   UNL     1      11.790   9.509  23.345  0.00  0.00    -0.388 OA
ATOM     21  H   UNL     1      11.256   8.698  23.298  0.00  0.00    +0.210 HD
ENDBRANCH  11   3
BRANCH  10   6
ATOM      6  N   UNL     1      10.185  12.109  24.076  0.00  0.00    -0.302 NA
ATOM     20  H   UNL     1       9.769  11.218  24.342  0.00  0.00    +0.123 HD
BRANCH   6  15
ATOM     15  C   UNL     1      10.718  12.757  25.268  0.00  0.00    +0.156 C 
BRANCH  15  16
ATOM      8  N   UNL     1      12.829  11.466  25.666  0.00  0.00    -0.347 N 
ATOM      9  N   UNL     1      13.091  13.603  25.125  0.00  0.00    -0.240 NA
ATOM     16  C   UNL     1      12.219  12.646  25.344  0.00  0.00    +0.121 A 
ATOM     18  C   UNL     1      14.178  11.685  25.652  0.00  0.00    +0.104 A 
ATOM     19  C   UNL     1      14.315  13.011  25.316  0.00  0.00    +0.130 A 
ATOM     23  H   UNL     1      12.369  10.590  25.877  0.00  0.00    +0.167 HD
ENDBRANCH  15  16
ENDBRANCH   6  15
ENDBRANCH  10   6
BRANCH  12  14
ATOM     14  C   UNL     1      11.689   9.683  20.135  0.00  0.00    +0.139 C 
BRANCH  14   7
ATOM      7  N   UNL     1      11.071   8.484  20.735  0.00  0.00    -0.192 NA
ATOM     22  H   UNL     1      10.418   8.700  21.500  0.00  0.00    +0.148 HD
BRANCH   7   1
ATOM      1  S   UNL     1      12.006   7.068  20.910  0.00  0.00    +0.027 S 
ATOM      4  O   UNL     1      11.136   5.923  21.097  0.00  0.00    -0.158 OA
ATOM      5  O   UNL     1      13.082   7.342  21.844  0.00  0.00    -0.158 OA
ATOM     17  C   UNL     1      12.728   6.950  19.289  0.00  0.00    +0.214 C 
ENDBRANCH   7   1
ENDBRANCH  14   7
ENDBRANCH  12  14
TORSDOF 7
ENDMDL
MODEL 9
REMARK VINA RESULT:      -5.3      5.411      7.285
REMARK  Name = 75536669
REMARK  8 active torsions:
REMARK  status: ('A' for Active; 'I' for Inactive)
REMARK    1  A    between atoms: S_1  and  N_7
REMARK    2  A    between atoms: S_1  and  C_17
REMARK    3  A    between atoms: O_3  and  C_11
REMARK    4  A    between atoms: N_6  and  C_10
REMARK    5  A    between atoms: N_6  and  C_15
REMARK    6  A    between atoms: N_7  and  C_14
REMARK    7  A    between atoms: C_12  and  C_14
REMARK    8  A    between atoms: C_15  and  C_16
REMARK                            x       y       z     vdW  Elec       q    Type
REMARK                         _______ _______ _______ _____ _____    ______ ____
ROOT
ATOM      2  O   UNL     1      13.930   9.636  18.182  0.00  0.00    -0.371 OA
ATOM     10  C   UNL     1      13.545  10.623  16.056  0.00  0.00    +0.111 C 
ATOM     11  C   UNL     1      12.609   9.441  16.228  0.00  0.00    +0.164 C 
ATOM     12  C   UNL     1      12.605   9.289  17.744  0.00  0.00    +0.164 C 
ATOM     13  C   UNL     1      14.596  10.332  17.113  0.00  0.00    +0.181 C 
ENDROOT
BRANCH  11   3
ATOM      3  O   UNL     1      11.314   9.690  15.721  0.00  0.00    -0.388 OA
ATOM     21  H   UNL     1      10.743   9.966  16.457  0.00  0.00    +0.210 HD
ENDBRANCH  11   3
BRANCH  10   6
ATOM      6  N   UNL     1      14.102  10.734  14.718  0.00  0.00    -0.302 NA
ATOM     20  H   UNL     1      13.659  10.044  14.113  0.00  0.00    +0.123 HD
BRANCH   6  15
ATOM     15  C   UNL     1      13.874  12.063  14.163  0.00  0.00    +0.156 C 
BRANCH  15  16
ATOM      8  N   UNL     1      11.439  11.954  13.581  0.00  0.00    -0.347 N 
ATOM      9  N   UNL     1      12.832  12.185  11.868  0.00  0.00    -0.240 NA
ATOM     16  C   UNL     1      12.738  12.071  13.174  0.00  0.00    +0.121 A 
ATOM     18  C   UNL     1      10.653  11.995  12.464  0.00  0.00    +0.104 A 
ATOM     19  C   UNL     1      11.536  12.138  11.419  0.00  0.00    +0.130 A 
ATOM     23  H   UNL     1      11.115  11.854  14.535  0.00  0.00    +0.167 HD
ENDBRANCH  15  16
ENDBRANCH   6  15
ENDBRANCH  10   6
BRANCH  12  14
ATOM     14  C   UNL     1      12.263   7.884  18.206  0.00  0.00    +0.139 C 
BRANCH  14   7
ATOM      7  N   UNL     1      11.388   7.952  19.392  0.00  0.00    -0.192 NA
ATOM     22  H   UNL     1      10.916   8.860  19.500  0.00  0.00    +0.148 HD
BRANCH   7   1
ATOM      1  S   UNL     1      11.875   7.173  20.830  0.00  0.00    +0.027 S 
ATOM      4  O   UNL     1      11.240   5.872  20.924  0.00  0.00    -0.158 OA
ATOM      5  O   UNL     1      11.783   8.124  21.921  0.00  0.00    -0.158 OA
ATOM     17  C   UNL     1      13.602   6.916  20.493  0.00  0.00    +0.214 C 
ENDBRANCH   7   1
ENDBRANCH  14   7
ENDBRANCH  12  14
TORSDOF 7
ENDMDL
MODEL 10
REMARK VINA RESULT:      -5.3      4.049      8.091
REMARK  Name = 75536669
REMARK  8 active torsions:
REMARK  status: ('A' for Active; 'I' for Inactive)
REMARK    1  A    between atoms: S_1  and  N_7
REMARK    2  A    between atoms: S_1  and  C_17
REMARK    3  A    between atoms: O_3  and  C_11
REMARK    4  A    between atoms: N_6  and  C_10
REMARK    5  A    between atoms: N_6  and  C_15
REMARK    6  A    between atoms: N_7  and  C_14
REMARK    7  A    between atoms: C_12  and  C_14
REMARK    8  A    between atoms: C_15  and  C_16
REMARK                            x       y       z     vdW  Elec       q    Type
REMARK                         _______ _______ _______ _____ _____    ______ ____
ROOT
ATOM      2  O   UNL     1      11.815  10.978  21.533  0.00  0.00    -0.371 OA
ATOM     10  C   UNL     1      11.008  12.194  23.407  0.00  0.00    +0.111 C 
ATOM     11  C   UNL     1      10.912  10.709  23.703  0.00  0.00    +0.164 C 
ATOM     12  C   UNL     1      11.911  10.145  22.700  0.00  0.00    +0.164 C 
ATOM     13  C   UNL     1      11.132  12.192  21.893  0.00  0.00    +0.181 C 
ENDROOT
BRANCH  11   3
ATOM      3  O   UNL     1      11.267  10.393  25.034  0.00  0.00    -0.388 OA
ATOM     21  H   UNL     1      11.688   9.517  25.040  0.00  0.00    +0.210 HD
ENDBRANCH  11   3
BRANCH  10   6
ATOM      6  N   UNL     1       9.865  12.957  23.881  0.00  0.00    -0.302 NA
ATOM     20  H   UNL     1       9.791  12.855  24.893  0.00  0.00    +0.123 HD
BRANCH   6  15
ATOM     15  C   UNL     1      10.010  14.372  23.560  0.00  0.00    +0.156 C 
BRANCH  15  16
ATOM      8  N   UNL     1       7.712  14.733  22.628  0.00  0.00    -0.347 N 
ATOM      9  N   UNL     1       9.395  15.262  21.280  0.00  0.00    -0.240 NA
ATOM     16  C   UNL     1       9.067  14.798  22.465  0.00  0.00    +0.121 A 
ATOM     18  C   UNL     1       7.138  15.184  21.473  0.00  0.00    +0.104 A 
ATOM     19  C   UNL     1       8.197  15.504  20.656  0.00  0.00    +0.130 A 
ATOM     23  H   UNL     1       7.221  14.411  23.452  0.00  0.00    +0.167 HD
ENDBRANCH  15  16
ENDBRANCH   6  15
ENDBRANCH  10   6
BRANCH  12  14
ATOM     14  C   UNL     1      11.634   8.701  22.324  0.00  0.00    +0.139 C 
BRANCH  14   7
ATOM      7  N   UNL     1      12.558   8.283  21.252  0.00  0.00    -0.192 NA
ATOM     22  H   UNL     1      13.470   8.758  21.289  0.00  0.00    +0.148 HD
BRANCH   7   1
ATOM      1  S   UNL     1      11.934   7.958  19.698  0.00  0.00    +0.027 S 
ATOM      4  O   UNL     1      10.582   8.471  19.593  0.00  0.00    -0.158 OA
ATOM      5  O   UNL     1      12.232   6.579  19.363  0.00  0.00    -0.158 OA
ATOM     17  C   UNL     1      12.989   8.985  18.700  0.00  0.00    +0.214 C 
ENDBRANCH   7   1
ENDBRANCH  14   7
ENDBRANCH  12  14
TORSDOF 7
ENDMDL
