MODEL 1
REMARK VINA RESULT:      -6.2      0.000      0.000
REMARK  Name = 11911865
REMARK  11 active torsions:
REMARK  status: ('A' for Active; 'I' for Inactive)
REMARK    1  A    between atoms: O_4  and  C_26
REMARK    2  A    between atoms: N_6  and  C_13
REMARK    3  A    between atoms: N_7  and  C_14
REMARK    4  A    between atoms: N_10  and  C_31
REMARK    5  A    between atoms: N_10  and  C_32
REMARK    6  A    between atoms: N_10  and  C_33
REMARK    7  A    between atoms: C_17  and  C_19
REMARK    8  A    between atoms: C_19  and  C_20
REMARK    9  A    between atoms: C_20  and  C_22
REMARK   10  A    between atoms: C_21  and  C_25
REMARK   11  A    between atoms: C_22  and  C_26
REMARK                            x       y       z     vdW  Elec       q    Type
REMARK                         _______ _______ _______ _____ _____    ______ ____
ROOT
ATOM      1  O   UNL     1      -7.209 -11.876  15.860  0.00  0.00    -0.370 OA
ATOM      2  O   UNL     1      -6.112 -12.231  18.760  0.00  0.00    -0.370 OA
ATOM     11  C   UNL     1      -6.549 -11.089  18.006  0.00  0.00    +0.171 C 
ATOM     12  C   UNL     1      -6.104 -11.296  16.572  0.00  0.00    +0.171 C 
ATOM     13  C   UNL     1      -8.059 -11.061  17.922  0.00  0.00    +0.130 C 
ATOM     14  C   UNL     1      -4.970 -12.289  16.678  0.00  0.00    +0.130 C 
ATOM     15  C   UNL     1      -8.335 -11.981  16.745  0.00  0.00    +0.185 C 
ATOM     16  C   UNL     1      -5.348 -13.096  17.905  0.00  0.00    +0.185 C 
ENDROOT
BRANCH  14   7
ATOM      7  N   UNL     1      -3.721 -11.593  16.901  0.00  0.00    -0.306 N 
ATOM      8  N   UNL     1      -3.392 -11.259  14.626  0.00  0.00    -0.214 NA
ATOM      9  N   UNL     1      -1.804 -10.457  16.251  0.00  0.00    -0.223 NA
ATOM     18  C   UNL     1      -2.938 -11.080  15.882  0.00  0.00    +0.216 A 
ATOM     21  C   UNL     1      -2.604 -10.747  13.658  0.00  0.00    +0.076 A 
ATOM     23  C   UNL     1      -1.065  -9.969  15.232  0.00  0.00    +0.116 A 
ATOM     24  C   UNL     1      -1.418 -10.086  13.904  0.00  0.00    +0.048 A 
ATOM     35  H   UNL     1      -3.412 -11.417  17.850  0.00  0.00    +0.149 HD
BRANCH  21  25
ATOM     25  C   UNL     1      -3.088 -10.936  12.311  0.00  0.00    +0.001 A 
ATOM     27  C   UNL     1      -3.181 -12.221  11.777  0.00  0.00    +0.012 A 
ATOM     28  C   UNL     1      -3.459  -9.833  11.542  0.00  0.00    +0.012 A 
ATOM     29  C   UNL     1      -3.647 -12.404  10.475  0.00  0.00    +0.024 A 
ATOM     30  C   UNL     1      -3.925 -10.015  10.240  0.00  0.00    +0.024 A 
ATOM     31  C   UNL     1      -4.019 -11.301   9.707  0.00  0.00    +0.029 A 
BRANCH  31  10
ATOM     10  N   UNL     1      -4.490 -11.486   8.390  0.00  0.00    -0.336 N 
ATOM     32  C   UNL     1      -4.373 -12.778   7.744  0.00  0.00    +0.129 C 
ATOM     33  C   UNL     1      -5.109 -10.390   7.671  0.00  0.00    +0.129 C 
ENDBRANCH  31  10
ENDBRANCH  21  25
ENDBRANCH  14   7
BRANCH  13   6
ATOM      3  O   UNL     1     -10.774 -10.156  18.139  0.00  0.00    -0.276 OA
ATOM      6  N   UNL     1      -8.544  -9.727  17.667  0.00  0.00    -0.308 N 
ATOM     17  C   UNL     1      -9.881  -9.384  17.800  0.00  0.00    +0.213 C 
ATOM     34  H   UNL     1      -7.887  -9.029  17.322  0.00  0.00    +0.149 HD
BRANCH  17  19
ATOM     19  C   UNL     1     -10.128  -7.927  17.443  0.00  0.00    +0.096 C 
BRANCH  19  20
ATOM     20  C   UNL     1      -9.785  -7.583  15.994  0.00  0.00    +0.020 C 
BRANCH  20  22
ATOM     22  C   UNL     1     -10.494  -8.497  14.994  0.00  0.00    +0.121 C 
BRANCH  22  26
ATOM      5  O   UNL     1      -9.814 -10.186  13.378  0.00  0.00    -0.251 OA
ATOM     26  C   UNL     1      -9.518  -9.377  14.247  0.00  0.00    +0.305 C 
BRANCH  26   4
ATOM      4  O   UNL     1      -8.241  -9.161  14.656  0.00  0.00    -0.481 OA
ATOM     36  H   UNL     1      -7.709  -8.707  13.968  0.00  0.00    +0.295 HD
ENDBRANCH  26   4
ENDBRANCH  22  26
ENDBRANCH  20  22
ENDBRANCH  19  20
ENDBRANCH  17  19
ENDBRANCH  13   6
TORSDOF 9
ENDMDL
MODEL 2
REMARK VINA RESULT:      -6.1      4.633      9.687
REMARK  Name = 11911865
REMARK  11 active torsions:
REMARK  status: ('A' for Active; 'I' for Inactive)
REMARK    1  A    between atoms: O_4  and  C_26
REMARK    2  A    between atoms: N_6  and  C_13
REMARK    3  A    between atoms: N_7  and  C_14
REMARK    4  A    between atoms: N_10  and  C_31
REMARK    5  A    between atoms: N_10  and  C_32
REMARK    6  A    between atoms: N_10  and  C_33
REMARK    7  A    between atoms: C_17  and  C_19
REMARK    8  A    between atoms: C_19  and  C_20
REMARK    9  A    between atoms: C_20  and  C_22
REMARK   10  A    between atoms: C_21  and  C_25
REMARK   11  A    between atoms: C_22  and  C_26
REMARK                            x       y       z     vdW  Elec       q    Type
REMARK                         _______ _______ _______ _____ _____    ______ ____
ROOT
ATOM      1  O   UNL     1      -5.774 -11.816  10.124  0.00  0.00    -0.370 OA
ATOM      2  O   UNL     1      -4.676  -8.898   9.983  0.00  0.00    -0.370 OA
ATOM     11  C   UNL     1      -4.250 -10.139   9.399  0.00  0.00    +0.171 C 
ATOM     12  C   UNL     1      -4.496 -11.229  10.423  0.00  0.00    +0.171 C 
ATOM     13  C   UNL     1      -5.149 -10.512   8.241  0.00  0.00    +0.130 C 
ATOM     14  C   UNL     1      -4.553 -10.492  11.740  0.00  0.00    +0.130 C 
ATOM     15  C   UNL     1      -6.307 -11.203   8.940  0.00  0.00    +0.185 C 
ATOM     16  C   UNL     1      -5.093  -9.132  11.337  0.00  0.00    +0.185 C 
ENDROOT
BRANCH  14   7
ATOM      7  N   UNL     1      -3.223 -10.359  12.291  0.00  0.00    -0.306 N 
ATOM      8  N   UNL     1      -3.986 -10.691  14.460  0.00  0.00    -0.214 NA
ATOM      9  N   UNL     1      -1.651 -10.314  14.000  0.00  0.00    -0.223 NA
ATOM     18  C   UNL     1      -2.940 -10.459  13.643  0.00  0.00    +0.216 A 
ATOM     21  C   UNL     1      -3.675 -10.783  15.770  0.00  0.00    +0.076 A 
ATOM     23  C   UNL     1      -1.412 -10.418  15.324  0.00  0.00    +0.116 A 
ATOM     24  C   UNL     1      -2.393 -10.653  16.264  0.00  0.00    +0.048 A 
ATOM     35  H   UNL     1      -2.434 -10.237  11.666  0.00  0.00    +0.149 HD
BRANCH  21  25
ATOM     25  C   UNL     1      -4.793 -11.032  16.648  0.00  0.00    +0.001 A 
ATOM     27  C   UNL     1      -6.084 -11.116  16.127  0.00  0.00    +0.012 A 
ATOM     28  C   UNL     1      -4.582 -11.185  18.019  0.00  0.00    +0.012 A 
ATOM     29  C   UNL     1      -7.165 -11.355  16.977  0.00  0.00    +0.024 A 
ATOM     30  C   UNL     1      -5.662 -11.423  18.868  0.00  0.00    +0.024 A 
ATOM     31  C   UNL     1      -6.954 -11.508  18.347  0.00  0.00    +0.029 A 
BRANCH  31  10
ATOM     10  N   UNL     1      -8.047 -11.750  19.206  0.00  0.00    -0.336 N 
ATOM     32  C   UNL     1      -9.129 -10.791  19.302  0.00  0.00    +0.129 C 
ATOM     33  C   UNL     1      -8.108 -12.966  19.992  0.00  0.00    +0.129 C 
ENDBRANCH  31  10
ENDBRANCH  21  25
ENDBRANCH  14   7
BRANCH  13   6
ATOM      3  O   UNL     1      -5.607 -10.725   5.416  0.00  0.00    -0.276 OA
ATOM      6  N   UNL     1      -4.481 -11.405   7.327  0.00  0.00    -0.308 N 
ATOM     17  C   UNL     1      -4.773 -11.435   5.971  0.00  0.00    +0.213 C 
ATOM     34  H   UNL     1      -3.814 -12.075   7.703  0.00  0.00    +0.149 HD
BRANCH  17  19
ATOM     19  C   UNL     1      -3.951 -12.484   5.241  0.00  0.00    +0.096 C 
BRANCH  19  20
ATOM     20  C   UNL     1      -4.072 -12.412   3.719  0.00  0.00    +0.020 C 
BRANCH  20  22
ATOM     22  C   UNL     1      -2.714 -12.505   3.021  0.00  0.00    +0.121 C 
BRANCH  22  26
ATOM      5  O   UNL     1      -2.856 -14.544   1.698  0.00  0.00    -0.251 OA
ATOM     26  C   UNL     1      -2.788 -13.324   1.753  0.00  0.00    +0.305 C 
BRANCH  26   4
ATOM      4  O   UNL     1      -2.774 -12.531   0.649  0.00  0.00    -0.481 OA
ATOM     36  H   UNL     1      -3.210 -12.963  -0.116  0.00  0.00    +0.295 HD
ENDBRANCH  26   4
ENDBRANCH  22  26
ENDBRANCH  20  22
ENDBRANCH  19  20
ENDBRANCH  17  19
ENDBRANCH  13   6
TORSDOF 9
ENDMDL
MODEL 3
REMARK VINA RESULT:      -5.9      3.461      8.909
REMARK  Name = 11911865
REMARK  11 active torsions:
REMARK  status: ('A' for Active; 'I' for Inactive)
REMARK    1  A    between atoms: O_4  and  C_26
REMARK    2  A    between atoms: N_6  and  C_13
REMARK    3  A    between atoms: N_7  and  C_14
REMARK    4  A    between atoms: N_10  and  C_31
REMARK    5  A    between atoms: N_10  and  C_32
REMARK    6  A    between atoms: N_10  and  C_33
REMARK    7  A    between atoms: C_17  and  C_19
REMARK    8  A    between atoms: C_19  and  C_20
REMARK    9  A    between atoms: C_20  and  C_22
REMARK   10  A    between atoms: C_21  and  C_25
REMARK   11  A    between atoms: C_22  and  C_26
REMARK                            x       y       z     vdW  Elec       q    Type
REMARK                         _______ _______ _______ _____ _____    ______ ____
ROOT
ATOM      1  O   UNL     1      -6.051 -11.474   9.890  0.00  0.00    -0.370 OA
ATOM      2  O   UNL     1      -4.850  -8.593   9.875  0.00  0.00    -0.370 OA
ATOM     11  C   UNL     1      -4.488  -9.814   9.210  0.00  0.00    +0.171 C 
ATOM     12  C   UNL     1      -4.744 -10.951  10.179  0.00  0.00    +0.171 C 
ATOM     13  C   UNL     1      -5.436 -10.089   8.063  0.00  0.00    +0.130 C 
ATOM     14  C   UNL     1      -4.734 -10.288  11.537  0.00  0.00    +0.130 C 
ATOM     15  C   UNL     1      -6.597 -10.777   8.759  0.00  0.00    +0.185 C 
ATOM     16  C   UNL     1      -5.234  -8.889  11.227  0.00  0.00    +0.185 C 
ENDROOT
BRANCH  14   7
ATOM      7  N   UNL     1      -3.383 -10.233  12.051  0.00  0.00    -0.306 N 
ATOM      8  N   UNL     1      -4.097 -10.609  14.230  0.00  0.00    -0.214 NA
ATOM      9  N   UNL     1      -1.762 -10.319  13.712  0.00  0.00    -0.223 NA
ATOM     18  C   UNL     1      -3.066 -10.394  13.389  0.00  0.00    +0.216 A 
ATOM     21  C   UNL     1      -3.753 -10.761  15.525  0.00  0.00    +0.076 A 
ATOM     23  C   UNL     1      -1.489 -10.480  15.024  0.00  0.00    +0.116 A 
ATOM     24  C   UNL     1      -2.453 -10.705  15.984  0.00  0.00    +0.048 A 
ATOM     35  H   UNL     1      -2.608 -10.124  11.407  0.00  0.00    +0.149 HD
BRANCH  21  25
ATOM     25  C   UNL     1      -4.855 -10.991  16.428  0.00  0.00    +0.001 A 
ATOM     27  C   UNL     1      -4.608 -11.318  17.762  0.00  0.00    +0.012 A 
ATOM     28  C   UNL     1      -6.168 -10.891  15.966  0.00  0.00    +0.012 A 
ATOM     29  C   UNL     1      -5.674 -11.542  18.634  0.00  0.00    +0.024 A 
ATOM     30  C   UNL     1      -7.233 -11.116  16.838  0.00  0.00    +0.024 A 
ATOM     31  C   UNL     1      -6.986 -11.442  18.172  0.00  0.00    +0.029 A 
BRANCH  31  10
ATOM     10  N   UNL     1      -8.063 -11.669  19.054  0.00  0.00    -0.336 N 
ATOM     32  C   UNL     1      -8.035 -12.791  19.971  0.00  0.00    +0.129 C 
ATOM     33  C   UNL     1      -9.204 -10.776  19.064  0.00  0.00    +0.129 C 
ENDBRANCH  31  10
ENDBRANCH  21  25
ENDBRANCH  14   7
BRANCH  13   6
ATOM      3  O   UNL     1      -6.204 -10.351   5.310  0.00  0.00    -0.276 OA
ATOM      6  N   UNL     1      -4.829 -10.952   7.080  0.00  0.00    -0.308 N 
ATOM     17  C   UNL     1      -5.273 -11.010   5.767  0.00  0.00    +0.213 C 
ATOM     34  H   UNL     1      -4.087 -11.581   7.378  0.00  0.00    +0.149 HD
BRANCH  17  19
ATOM     19  C   UNL     1      -4.484 -12.019   4.949  0.00  0.00    +0.096 C 
BRANCH  19  20
ATOM     20  C   UNL     1      -3.347 -12.684   5.724  0.00  0.00    +0.020 C 
BRANCH  20  22
ATOM     22  C   UNL     1      -3.519 -14.200   5.826  0.00  0.00    +0.121 C 
BRANCH  22  26
ATOM      5  O   UNL     1      -4.010 -15.791   7.602  0.00  0.00    -0.251 OA
ATOM     26  C   UNL     1      -3.793 -14.641   7.245  0.00  0.00    +0.305 C 
BRANCH  26   4
ATOM      4  O   UNL     1      -3.767 -13.590   8.106  0.00  0.00    -0.481 OA
ATOM     36  H   UNL     1      -4.591 -13.060   8.061  0.00  0.00    +0.295 HD
ENDBRANCH  26   4
ENDBRANCH  22  26
ENDBRANCH  20  22
ENDBRANCH  19  20
ENDBRANCH  17  19
ENDBRANCH  13   6
TORSDOF 9
ENDMDL
MODEL 4
REMARK VINA RESULT:      -5.9      3.059      6.512
REMARK  Name = 11911865
REMARK  11 active torsions:
REMARK  status: ('A' for Active; 'I' for Inactive)
REMARK    1  A    between atoms: O_4  and  C_26
REMARK    2  A    between atoms: N_6  and  C_13
REMARK    3  A    between atoms: N_7  and  C_14
REMARK    4  A    between atoms: N_10  and  C_31
REMARK    5  A    between atoms: N_10  and  C_32
REMARK    6  A    between atoms: N_10  and  C_33
REMARK    7  A    between atoms: C_17  and  C_19
REMARK    8  A    between atoms: C_19  and  C_20
REMARK    9  A    between atoms: C_20  and  C_22
REMARK   10  A    between atoms: C_21  and  C_25
REMARK   11  A    between atoms: C_22  and  C_26
REMARK                            x       y       z     vdW  Elec       q    Type
REMARK                         _______ _______ _______ _____ _____    ______ ____
ROOT
ATOM      1  O   UNL     1      -2.622 -12.954  12.629  0.00  0.00    -0.370 OA
ATOM      2  O   UNL     1      -1.790  -9.985  13.110  0.00  0.00    -0.370 OA
ATOM     11  C   UNL     1      -2.802 -10.828  13.683  0.00  0.00    +0.171 C 
ATOM     12  C   UNL     1      -3.339 -11.709  12.572  0.00  0.00    +0.171 C 
ATOM     13  C   UNL     1      -2.182 -11.804  14.658  0.00  0.00    +0.130 C 
ATOM     14  C   UNL     1      -2.990 -10.961  11.306  0.00  0.00    +0.130 C 
ATOM     15  C   UNL     1      -1.720 -12.927  13.746  0.00  0.00    +0.185 C 
ATOM     16  C   UNL     1      -1.722 -10.223  11.695  0.00  0.00    +0.185 C 
ENDROOT
BRANCH  14   7
ATOM      7  N   UNL     1      -4.038 -10.018  10.984  0.00  0.00    -0.306 N 
ATOM      8  N   UNL     1      -4.304 -10.901   8.851  0.00  0.00    -0.214 NA
ATOM      9  N   UNL     1      -5.648  -9.052   9.616  0.00  0.00    -0.223 NA
ATOM     18  C   UNL     1      -4.692  -9.989   9.764  0.00  0.00    +0.216 A 
ATOM     21  C   UNL     1      -4.961 -10.843   7.674  0.00  0.00    +0.076 A 
ATOM     23  C   UNL     1      -6.264  -9.052   8.416  0.00  0.00    +0.116 A 
ATOM     24  C   UNL     1      -5.960  -9.932   7.398  0.00  0.00    +0.048 A 
ATOM     35  H   UNL     1      -4.361  -9.370  11.693  0.00  0.00    +0.149 HD
BRANCH  21  25
ATOM     25  C   UNL     1      -4.548 -11.819   6.694  0.00  0.00    +0.001 A 
ATOM     27  C   UNL     1      -4.784 -11.590   5.339  0.00  0.00    +0.012 A 
ATOM     28  C   UNL     1      -3.915 -12.993   7.103  0.00  0.00    +0.012 A 
ATOM     29  C   UNL     1      -4.386 -12.534   4.392  0.00  0.00    +0.024 A 
ATOM     30  C   UNL     1      -3.518 -13.937   6.157  0.00  0.00    +0.024 A 
ATOM     31  C   UNL     1      -3.753 -13.708   4.801  0.00  0.00    +0.029 A 
BRANCH  31  10
ATOM     10  N   UNL     1      -3.351 -14.662   3.843  0.00  0.00    -0.336 N 
ATOM     32  C   UNL     1      -3.693 -14.487   2.446  0.00  0.00    +0.129 C 
ATOM     33  C   UNL     1      -2.579 -15.822   4.242  0.00  0.00    +0.129 C 
ENDBRANCH  31  10
ENDBRANCH  21  25
ENDBRANCH  14   7
BRANCH  13   6
ATOM      3  O   UNL     1      -3.384 -10.276  16.769  0.00  0.00    -0.276 OA
ATOM      6  N   UNL     1      -3.154 -12.275  15.615  0.00  0.00    -0.308 N 
ATOM     17  C   UNL     1      -3.679 -11.456  16.604  0.00  0.00    +0.213 C 
ATOM     34  H   UNL     1      -3.418 -13.257  15.595  0.00  0.00    +0.149 HD
BRANCH  17  19
ATOM     19  C   UNL     1      -4.657 -12.205  17.495  0.00  0.00    +0.096 C 
BRANCH  19  20
ATOM     20  C   UNL     1      -6.091 -11.686  17.407  0.00  0.00    +0.020 C 
BRANCH  20  22
ATOM     22  C   UNL     1      -6.311 -10.433  18.254  0.00  0.00    +0.121 C 
BRANCH  22  26
ATOM      5  O   UNL     1      -6.011 -11.233  20.534  0.00  0.00    -0.251 OA
ATOM     26  C   UNL     1      -6.737 -10.773  19.664  0.00  0.00    +0.305 C 
BRANCH  26   4
ATOM      4  O   UNL     1      -8.053 -10.500  19.864  0.00  0.00    -0.481 OA
ATOM     36  H   UNL     1      -8.204  -9.549  20.053  0.00  0.00    +0.295 HD
ENDBRANCH  26   4
ENDBRANCH  22  26
ENDBRANCH  20  22
ENDBRANCH  19  20
ENDBRANCH  17  19
ENDBRANCH  13   6
TORSDOF 9
ENDMDL
MODEL 5
REMARK VINA RESULT:      -5.9     19.491     22.519
REMARK  Name = 11911865
REMARK  11 active torsions:
REMARK  status: ('A' for Active; 'I' for Inactive)
REMARK    1  A    between atoms: O_4  and  C_26
REMARK    2  A    between atoms: N_6  and  C_13
REMARK    3  A    between atoms: N_7  and  C_14
REMARK    4  A    between atoms: N_10  and  C_31
REMARK    5  A    between atoms: N_10  and  C_32
REMARK    6  A    between atoms: N_10  and  C_33
REMARK    7  A    between atoms: C_17  and  C_19
REMARK    8  A    between atoms: C_19  and  C_20
REMARK    9  A    between atoms: C_20  and  C_22
REMARK   10  A    between atoms: C_21  and  C_25
REMARK   11  A    between atoms: C_22  and  C_26
REMARK                            x       y       z     vdW  Elec       q    Type
REMARK                         _______ _______ _______ _____ _____    ______ ____
ROOT
ATOM      1  O   UNL     1     -16.888   5.207  25.231  0.00  0.00    -0.370 OA
ATOM      2  O   UNL     1     -16.361   2.455  23.855  0.00  0.00    -0.370 OA
ATOM     11  C   UNL     1     -15.711   3.162  24.924  0.00  0.00    +0.171 C 
ATOM     12  C   UNL     1     -15.742   4.637  24.576  0.00  0.00    +0.171 C 
ATOM     13  C   UNL     1     -16.529   3.066  26.192  0.00  0.00    +0.130 C 
ATOM     14  C   UNL     1     -15.932   4.659  23.077  0.00  0.00    +0.130 C 
ATOM     15  C   UNL     1     -17.532   4.193  26.017  0.00  0.00    +0.185 C 
ATOM     16  C   UNL     1     -16.720   3.387  22.823  0.00  0.00    +0.185 C 
ENDROOT
BRANCH  14   7
ATOM      7  N   UNL     1     -14.648   4.592  22.415  0.00  0.00    -0.306 N 
ATOM      8  N   UNL     1     -14.500   6.905  22.264  0.00  0.00    -0.214 NA
ATOM      9  N   UNL     1     -12.753   5.482  21.409  0.00  0.00    -0.223 NA
ATOM     18  C   UNL     1     -13.935   5.708  22.012  0.00  0.00    +0.216 A 
ATOM     21  C   UNL     1     -13.779   7.971  21.858  0.00  0.00    +0.076 A 
ATOM     23  C   UNL     1     -12.086   6.592  21.030  0.00  0.00    +0.116 A 
ATOM     24  C   UNL     1     -12.554   7.874  21.230  0.00  0.00    +0.048 A 
ATOM     35  H   UNL     1     -14.205   3.691  22.275  0.00  0.00    +0.149 HD
BRANCH  21  25
ATOM     25  C   UNL     1     -14.380   9.255  22.128  0.00  0.00    +0.001 A 
ATOM     27  C   UNL     1     -15.740   9.453  21.887  0.00  0.00    +0.012 A 
ATOM     28  C   UNL     1     -13.601  10.300  22.625  0.00  0.00    +0.012 A 
ATOM     29  C   UNL     1     -16.321  10.695  22.146  0.00  0.00    +0.024 A 
ATOM     30  C   UNL     1     -14.182  11.541  22.883  0.00  0.00    +0.024 A 
ATOM     31  C   UNL     1     -15.542  11.739  22.643  0.00  0.00    +0.029 A 
BRANCH  31  10
ATOM     10  N   UNL     1     -16.130  12.994  22.905  0.00  0.00    -0.336 N 
ATOM     32  C   UNL     1     -17.489  13.078  23.399  0.00  0.00    +0.129 C 
ATOM     33  C   UNL     1     -15.377  14.215  22.695  0.00  0.00    +0.129 C 
ENDBRANCH  31  10
ENDBRANCH  21  25
ENDBRANCH  14   7
BRANCH  13   6
ATOM      3  O   UNL     1     -17.003   2.021  28.823  0.00  0.00    -0.276 OA
ATOM      6  N   UNL     1     -15.708   3.273  27.360  0.00  0.00    -0.308 N 
ATOM     17  C   UNL     1     -16.022   2.724  28.595  0.00  0.00    +0.213 C 
ATOM     34  H   UNL     1     -14.904   3.891  27.285  0.00  0.00    +0.149 HD
BRANCH  17  19
ATOM     19  C   UNL     1     -15.012   3.120  29.660  0.00  0.00    +0.096 C 
BRANCH  19  20
ATOM     20  C   UNL     1     -14.762   2.034  30.705  0.00  0.00    +0.020 C 
BRANCH  20  22
ATOM     22  C   UNL     1     -13.521   1.197  30.391  0.00  0.00    +0.121 C 
BRANCH  22  26
ATOM      5  O   UNL     1     -15.005  -0.561  29.595  0.00  0.00    -0.251 OA
ATOM     26  C   UNL     1     -13.883  -0.189  29.911  0.00  0.00    +0.305 C 
BRANCH  26   4
ATOM      4  O   UNL     1     -12.793  -0.999  29.864  0.00  0.00    -0.481 OA
ATOM     36  H   UNL     1     -12.028  -0.609  30.339  0.00  0.00    +0.295 HD
ENDBRANCH  26   4
ENDBRANCH  22  26
ENDBRANCH  20  22
ENDBRANCH  19  20
ENDBRANCH  17  19
ENDBRANCH  13   6
TORSDOF 9
ENDMDL
MODEL 6
REMARK VINA RESULT:      -5.8     26.846     29.961
REMARK  Name = 11911865
REMARK  11 active torsions:
REMARK  status: ('A' for Active; 'I' for Inactive)
REMARK    1  A    between atoms: O_4  and  C_26
REMARK    2  A    between atoms: N_6  and  C_13
REMARK    3  A    between atoms: N_7  and  C_14
REMARK    4  A    between atoms: N_10  and  C_31
REMARK    5  A    between atoms: N_10  and  C_32
REMARK    6  A    between atoms: N_10  and  C_33
REMARK    7  A    between atoms: C_17  and  C_19
REMARK    8  A    between atoms: C_19  and  C_20
REMARK    9  A    between atoms: C_20  and  C_22
REMARK   10  A    between atoms: C_21  and  C_25
REMARK   11  A    between atoms: C_22  and  C_26
REMARK                            x       y       z     vdW  Elec       q    Type
REMARK                         _______ _______ _______ _____ _____    ______ ____
ROOT
ATOM      1  O   UNL     1      16.055   7.776   3.973  0.00  0.00    -0.370 OA
ATOM      2  O   UNL     1      15.141   9.553   6.371  0.00  0.00    -0.370 OA
ATOM     11  C   UNL     1      16.159   8.549   6.220  0.00  0.00    +0.171 C 
ATOM     12  C   UNL     1      15.604   7.477   5.304  0.00  0.00    +0.171 C 
ATOM     13  C   UNL     1      17.340   9.109   5.459  0.00  0.00    +0.130 C 
ATOM     14  C   UNL     1      14.106   7.647   5.402  0.00  0.00    +0.130 C 
ATOM     15  C   UNL     1      16.908   8.930   4.014  0.00  0.00    +0.185 C 
ATOM     16  C   UNL     1      13.957   9.132   5.676  0.00  0.00    +0.185 C 
ENDROOT
BRANCH  14   7
ATOM      7  N   UNL     1      13.591   6.878   6.513  0.00  0.00    -0.306 N 
ATOM      8  N   UNL     1      11.389   7.329   5.927  0.00  0.00    -0.214 NA
ATOM      9  N   UNL     1      11.920   5.972   7.847  0.00  0.00    -0.223 NA
ATOM     18  C   UNL     1      12.241   6.719   6.774  0.00  0.00    +0.216 A 
ATOM     21  C   UNL     1      10.082   7.153   6.211  0.00  0.00    +0.076 A 
ATOM     23  C   UNL     1      10.596   5.838   8.071  0.00  0.00    +0.116 A 
ATOM     24  C   UNL     1       9.623   6.411   7.280  0.00  0.00    +0.048 A 
ATOM     35  H   UNL     1      14.237   6.379   7.115  0.00  0.00    +0.149 HD
BRANCH  21  25
ATOM     25  C   UNL     1       9.166   7.804   5.305  0.00  0.00    +0.001 A 
ATOM     27  C   UNL     1       9.154   7.455   3.955  0.00  0.00    +0.012 A 
ATOM     28  C   UNL     1       8.296   8.787   5.780  0.00  0.00    +0.012 A 
ATOM     29  C   UNL     1       8.270   8.087   3.079  0.00  0.00    +0.024 A 
ATOM     30  C   UNL     1       7.413   9.418   4.905  0.00  0.00    +0.024 A 
ATOM     31  C   UNL     1       7.400   9.068   3.554  0.00  0.00    +0.029 A 
BRANCH  31  10
ATOM     10  N   UNL     1       6.506   9.706   2.669  0.00  0.00    -0.336 N 
ATOM     32  C   UNL     1       6.782   9.738   1.246  0.00  0.00    +0.129 C 
ATOM     33  C   UNL     1       5.295  10.325   3.168  0.00  0.00    +0.129 C 
ENDBRANCH  31  10
ENDBRANCH  21  25
ENDBRANCH  14   7
BRANCH  13   6
ATOM      3  O   UNL     1      19.479   9.907   7.198  0.00  0.00    -0.276 OA
ATOM      6  N   UNL     1      18.543   8.364   5.740  0.00  0.00    -0.308 N 
ATOM     17  C   UNL     1      19.525   8.836   6.600  0.00  0.00    +0.213 C 
ATOM     34  H   UNL     1      18.699   7.489   5.245  0.00  0.00    +0.149 HD
BRANCH  17  19
ATOM     19  C   UNL     1      20.698   7.874   6.697  0.00  0.00    +0.096 C 
BRANCH  19  20
ATOM     20  C   UNL     1      21.703   8.014   5.554  0.00  0.00    +0.020 C 
BRANCH  20  22
ATOM     22  C   UNL     1      21.743   6.775   4.659  0.00  0.00    +0.121 C 
BRANCH  22  26
ATOM      5  O   UNL     1      20.134   7.767   3.125  0.00  0.00    -0.251 OA
ATOM     26  C   UNL     1      21.087   7.026   3.321  0.00  0.00    +0.305 C 
BRANCH  26   4
ATOM      4  O   UNL     1      21.693   6.319   2.330  0.00  0.00    -0.481 OA
ATOM     36  H   UNL     1      21.182   6.352   1.493  0.00  0.00    +0.295 HD
ENDBRANCH  26   4
ENDBRANCH  22  26
ENDBRANCH  20  22
ENDBRANCH  19  20
ENDBRANCH  17  19
ENDBRANCH  13   6
TORSDOF 9
ENDMDL
MODEL 7
REMARK VINA RESULT:      -5.8     24.059     27.552
REMARK  Name = 11911865
REMARK  11 active torsions:
REMARK  status: ('A' for Active; 'I' for Inactive)
REMARK    1  A    between atoms: O_4  and  C_26
REMARK    2  A    between atoms: N_6  and  C_13
REMARK    3  A    between atoms: N_7  and  C_14
REMARK    4  A    between atoms: N_10  and  C_31
REMARK    5  A    between atoms: N_10  and  C_32
REMARK    6  A    between atoms: N_10  and  C_33
REMARK    7  A    between atoms: C_17  and  C_19
REMARK    8  A    between atoms: C_19  and  C_20
REMARK    9  A    between atoms: C_20  and  C_22
REMARK   10  A    between atoms: C_21  and  C_25
REMARK   11  A    between atoms: C_22  and  C_26
REMARK                            x       y       z     vdW  Elec       q    Type
REMARK                         _______ _______ _______ _____ _____    ______ ____
ROOT
ATOM      1  O   UNL     1       6.864   6.378  -3.195  0.00  0.00    -0.370 OA
ATOM      2  O   UNL     1       7.804   6.498  -6.169  0.00  0.00    -0.370 OA
ATOM     11  C   UNL     1       7.013   5.558  -5.423  0.00  0.00    +0.171 C 
ATOM     12  C   UNL     1       7.605   5.473  -4.030  0.00  0.00    +0.171 C 
ATOM     13  C   UNL     1       5.621   6.104  -5.198  0.00  0.00    +0.130 C 
ATOM     14  C   UNL     1       9.024   5.962  -4.202  0.00  0.00    +0.130 C 
ATOM     15  C   UNL     1       5.807   6.971  -3.966  0.00  0.00    +0.185 C 
ATOM     16  C   UNL     1       8.902   6.940  -5.356  0.00  0.00    +0.185 C 
ENDROOT
BRANCH  14   7
ATOM      7  N   UNL     1       9.886   4.860  -4.570  0.00  0.00    -0.306 N 
ATOM      8  N   UNL     1      10.570   4.539  -2.373  0.00  0.00    -0.214 NA
ATOM      9  N   UNL     1      11.403   3.151  -4.158  0.00  0.00    -0.223 NA
ATOM     18  C   UNL     1      10.653   4.152  -3.661  0.00  0.00    +0.216 A 
ATOM     21  C   UNL     1      11.330   3.828  -1.514  0.00  0.00    +0.076 A 
ATOM     23  C   UNL     1      12.138   2.482  -3.244  0.00  0.00    +0.116 A 
ATOM     24  C   UNL     1      12.141   2.780  -1.897  0.00  0.00    +0.048 A 
ATOM     35  H   UNL     1       9.904   4.541  -5.532  0.00  0.00    +0.149 HD
BRANCH  21  25
ATOM     25  C   UNL     1      11.242   4.240  -0.134  0.00  0.00    +0.001 A 
ATOM     27  C   UNL     1      10.264   5.152   0.261  0.00  0.00    +0.012 A 
ATOM     28  C   UNL     1      12.139   3.728   0.805  0.00  0.00    +0.012 A 
ATOM     29  C   UNL     1      10.181   5.551   1.596  0.00  0.00    +0.024 A 
ATOM     30  C   UNL     1      12.056   4.128   2.138  0.00  0.00    +0.024 A 
ATOM     31  C   UNL     1      11.077   5.040   2.534  0.00  0.00    +0.029 A 
BRANCH  31  10
ATOM     10  N   UNL     1      10.993   5.444   3.883  0.00  0.00    -0.336 N 
ATOM     32  C   UNL     1      11.709   6.617   4.343  0.00  0.00    +0.129 C 
ATOM     33  C   UNL     1      10.178   4.699   4.822  0.00  0.00    +0.129 C 
ENDBRANCH  31  10
ENDBRANCH  21  25
ENDBRANCH  14   7
BRANCH  13   6
ATOM      3  O   UNL     1       2.773   6.237  -5.528  0.00  0.00    -0.276 OA
ATOM      6  N   UNL     1       4.676   5.042  -4.953  0.00  0.00    -0.308 N 
ATOM     17  C   UNL     1       3.311   5.203  -5.142  0.00  0.00    +0.213 C 
ATOM     34  H   UNL     1       5.022   4.163  -4.573  0.00  0.00    +0.149 HD
BRANCH  17  19
ATOM     19  C   UNL     1       2.540   3.943  -4.783  0.00  0.00    +0.096 C 
BRANCH  19  20
ATOM     20  C   UNL     1       2.411   2.951  -5.938  0.00  0.00    +0.020 C 
BRANCH  20  22
ATOM     22  C   UNL     1       1.951   1.569  -5.471  0.00  0.00    +0.121 C 
BRANCH  22  26
ATOM      5  O   UNL     1       0.168   1.335  -3.830  0.00  0.00    -0.251 OA
ATOM     26  C   UNL     1       0.525   1.589  -4.972  0.00  0.00    +0.305 C 
BRANCH  26   4
ATOM      4  O   UNL     1      -0.342   1.933  -5.961  0.00  0.00    -0.481 OA
ATOM     36  H   UNL     1       0.114   2.374  -6.709  0.00  0.00    +0.295 HD
ENDBRANCH  26   4
ENDBRANCH  22  26
ENDBRANCH  20  22
ENDBRANCH  19  20
ENDBRANCH  17  19
ENDBRANCH  13   6
TORSDOF 9
ENDMDL
MODEL 8
REMARK VINA RESULT:      -5.8     23.307     26.043
REMARK  Name = 11911865
REMARK  11 active torsions:
REMARK  status: ('A' for Active; 'I' for Inactive)
REMARK    1  A    between atoms: O_4  and  C_26
REMARK    2  A    between atoms: N_6  and  C_13
REMARK    3  A    between atoms: N_7  and  C_14
REMARK    4  A    between atoms: N_10  and  C_31
REMARK    5  A    between atoms: N_10  and  C_32
REMARK    6  A    between atoms: N_10  and  C_33
REMARK    7  A    between atoms: C_17  and  C_19
REMARK    8  A    between atoms: C_19  and  C_20
REMARK    9  A    between atoms: C_20  and  C_22
REMARK   10  A    between atoms: C_21  and  C_25
REMARK   11  A    between atoms: C_22  and  C_26
REMARK                            x       y       z     vdW  Elec       q    Type
REMARK                         _______ _______ _______ _____ _____    ______ ____
ROOT
ATOM      1  O   UNL     1       4.829  10.306   3.584  0.00  0.00    -0.370 OA
ATOM      2  O   UNL     1       7.048  12.428   4.142  0.00  0.00    -0.370 OA
ATOM     11  C   UNL     1       6.661  11.212   4.803  0.00  0.00    +0.171 C 
ATOM     12  C   UNL     1       5.150  11.117   4.726  0.00  0.00    +0.171 C 
ATOM     13  C   UNL     1       7.144  10.011   4.019  0.00  0.00    +0.130 C 
ATOM     14  C   UNL     1       4.702  12.543   4.498  0.00  0.00    +0.130 C 
ATOM     15  C   UNL     1       6.046   9.835   2.985  0.00  0.00    +0.185 C 
ATOM     16  C   UNL     1       5.869  13.140   3.735  0.00  0.00    +0.185 C 
ENDROOT
BRANCH  14   7
ATOM      7  N   UNL     1       4.535  13.218   5.766  0.00  0.00    -0.306 N 
ATOM      8  N   UNL     1       2.383  12.385   6.033  0.00  0.00    -0.214 NA
ATOM      9  N   UNL     1       3.382  13.823   7.689  0.00  0.00    -0.223 NA
ATOM     18  C   UNL     1       3.383  13.139   6.530  0.00  0.00    +0.216 A 
ATOM     21  C   UNL     1       1.276  12.330   6.803  0.00  0.00    +0.076 A 
ATOM     23  C   UNL     1       2.244  13.724   8.407  0.00  0.00    +0.116 A 
ATOM     24  C   UNL     1       1.149  12.985   8.011  0.00  0.00    +0.048 A 
ATOM     35  H   UNL     1       5.310  13.741   6.158  0.00  0.00    +0.149 HD
BRANCH  21  25
ATOM     25  C   UNL     1       0.203  11.523   6.274  0.00  0.00    +0.001 A 
ATOM     27  C   UNL     1      -0.071  11.535   4.907  0.00  0.00    +0.012 A 
ATOM     28  C   UNL     1      -0.563  10.733   7.132  0.00  0.00    +0.012 A 
ATOM     29  C   UNL     1      -1.110  10.756   4.396  0.00  0.00    +0.024 A 
ATOM     30  C   UNL     1      -1.602   9.955   6.622  0.00  0.00    +0.024 A 
ATOM     31  C   UNL     1      -1.875   9.966   5.254  0.00  0.00    +0.029 A 
BRANCH  31  10
ATOM     10  N   UNL     1      -2.925   9.178   4.737  0.00  0.00    -0.336 N 
ATOM     32  C   UNL     1      -3.718   9.654   3.621  0.00  0.00    +0.129 C 
ATOM     33  C   UNL     1      -3.217   7.878   5.307  0.00  0.00    +0.129 C 
ENDBRANCH  31  10
ENDBRANCH  21  25
ENDBRANCH  14   7
BRANCH  13   6
ATOM      3  O   UNL     1       9.403   9.282   5.633  0.00  0.00    -0.276 OA
ATOM      6  N   UNL     1       7.258   8.848   4.864  0.00  0.00    -0.308 N 
ATOM     17  C   UNL     1       8.396   8.580   5.610  0.00  0.00    +0.213 C 
ATOM     34  H   UNL     1       6.496   8.173   4.866  0.00  0.00    +0.149 HD
BRANCH  17  19
ATOM     19  C   UNL     1       8.267   7.279   6.387  0.00  0.00    +0.096 C 
BRANCH  19  20
ATOM     20  C   UNL     1       8.857   7.343   7.795  0.00  0.00    +0.020 C 
BRANCH  20  22
ATOM     22  C   UNL     1      10.061   6.415   7.965  0.00  0.00    +0.121 C 
BRANCH  22  26
ATOM      5  O   UNL     1       8.915   5.101   9.665  0.00  0.00    -0.251 OA
ATOM     26  C   UNL     1       9.702   5.162   8.730  0.00  0.00    +0.305 C 
BRANCH  26   4
ATOM      4  O   UNL     1      10.366   4.079   8.249  0.00  0.00    -0.481 OA
ATOM     36  H   UNL     1      10.242   3.975   7.281  0.00  0.00    +0.295 HD
ENDBRANCH  26   4
ENDBRANCH  22  26
ENDBRANCH  20  22
ENDBRANCH  19  20
ENDBRANCH  17  19
ENDBRANCH  13   6
TORSDOF 9
ENDMDL
MODEL 9
REMARK VINA RESULT:      -5.8     25.725     28.822
REMARK  Name = 11911865
REMARK  11 active torsions:
REMARK  status: ('A' for Active; 'I' for Inactive)
REMARK    1  A    between atoms: O_4  and  C_26
REMARK    2  A    between atoms: N_6  and  C_13
REMARK    3  A    between atoms: N_7  and  C_14
REMARK    4  A    between atoms: N_10  and  C_31
REMARK    5  A    between atoms: N_10  and  C_32
REMARK    6  A    between atoms: N_10  and  C_33
REMARK    7  A    between atoms: C_17  and  C_19
REMARK    8  A    between atoms: C_19  and  C_20
REMARK    9  A    between atoms: C_20  and  C_22
REMARK   10  A    between atoms: C_21  and  C_25
REMARK   11  A    between atoms: C_22  and  C_26
REMARK                            x       y       z     vdW  Elec       q    Type
REMARK                         _______ _______ _______ _____ _____    ______ ____
ROOT
ATOM      1  O   UNL     1      13.841   8.771   2.866  0.00  0.00    -0.370 OA
ATOM      2  O   UNL     1      15.561   7.489   5.132  0.00  0.00    -0.370 OA
ATOM     11  C   UNL     1      15.046   6.992   3.886  0.00  0.00    +0.171 C 
ATOM     12  C   UNL     1      13.674   7.604   3.687  0.00  0.00    +0.171 C 
ATOM     13  C   UNL     1      15.859   7.530   2.730  0.00  0.00    +0.130 C 
ATOM     14  C   UNL     1      13.242   8.001   5.080  0.00  0.00    +0.130 C 
ATOM     15  C   UNL     1      15.221   8.886   2.487  0.00  0.00    +0.185 C 
ATOM     16  C   UNL     1      14.562   8.304   5.764  0.00  0.00    +0.185 C 
ENDROOT
BRANCH  14   7
ATOM      7  N   UNL     1      12.585   6.889   5.731  0.00  0.00    -0.306 N 
ATOM      8  N   UNL     1      10.514   7.481   4.860  0.00  0.00    -0.214 NA
ATOM      9  N   UNL     1      10.768   5.553   6.285  0.00  0.00    -0.223 NA
ATOM     18  C   UNL     1      11.230   6.629   5.621  0.00  0.00    +0.216 A 
ATOM     21  C   UNL     1       9.197   7.198   4.775  0.00  0.00    +0.076 A 
ATOM     23  C   UNL     1       9.443   5.330   6.155  0.00  0.00    +0.116 A 
ATOM     24  C   UNL     1       8.601   6.127   5.407  0.00  0.00    +0.048 A 
ATOM     35  H   UNL     1      13.138   6.222   6.258  0.00  0.00    +0.149 HD
BRANCH  21  25
ATOM     25  C   UNL     1       8.428   8.108   3.961  0.00  0.00    +0.001 A 
ATOM     27  C   UNL     1       7.469   8.932   4.551  0.00  0.00    +0.012 A 
ATOM     28  C   UNL     1       8.641   8.162   2.583  0.00  0.00    +0.012 A 
ATOM     29  C   UNL     1       6.724   9.811   3.763  0.00  0.00    +0.024 A 
ATOM     30  C   UNL     1       7.896   9.039   1.796  0.00  0.00    +0.024 A 
ATOM     31  C   UNL     1       6.937   9.864   2.386  0.00  0.00    +0.029 A 
BRANCH  31  10
ATOM     10  N   UNL     1       6.184  10.752   1.590  0.00  0.00    -0.336 N 
ATOM     32  C   UNL     1       6.846  11.779   0.811  0.00  0.00    +0.129 C 
ATOM     33  C   UNL     1       4.740  10.640   1.531  0.00  0.00    +0.129 C 
ENDBRANCH  31  10
ENDBRANCH  21  25
ENDBRANCH  14   7
BRANCH  13   6
ATOM      3  O   UNL     1      17.641   7.448   0.481  0.00  0.00    -0.276 OA
ATOM      6  N   UNL     1      15.741   6.681   1.569  0.00  0.00    -0.308 N 
ATOM     17  C   UNL     1      16.658   6.714   0.528  0.00  0.00    +0.213 C 
ATOM     34  H   UNL     1      14.925   6.079   1.489  0.00  0.00    +0.149 HD
BRANCH  17  19
ATOM     19  C   UNL     1      16.285   5.745  -0.582  0.00  0.00    +0.096 C 
BRANCH  19  20
ATOM     20  C   UNL     1      16.139   4.298  -0.112  0.00  0.00    +0.020 C 
BRANCH  20  22
ATOM     22  C   UNL     1      14.676   3.873   0.020  0.00  0.00    +0.121 C 
BRANCH  22  26
ATOM      5  O   UNL     1      13.237   3.077   1.815  0.00  0.00    -0.251 OA
ATOM     26  C   UNL     1      14.336   3.453   1.431  0.00  0.00    +0.305 C 
BRANCH  26   4
ATOM      4  O   UNL     1      15.418   3.537   2.249  0.00  0.00    -0.481 OA
ATOM     36  H   UNL     1      15.544   4.447   2.595  0.00  0.00    +0.295 HD
ENDBRANCH  26   4
ENDBRANCH  22  26
ENDBRANCH  20  22
ENDBRANCH  19  20
ENDBRANCH  17  19
ENDBRANCH  13   6
TORSDOF 9
ENDMDL
MODEL 10
REMARK VINA RESULT:      -5.7     27.163     30.201
REMARK  Name = 11911865
REMARK  11 active torsions:
REMARK  status: ('A' for Active; 'I' for Inactive)
REMARK    1  A    between atoms: O_4  and  C_26
REMARK    2  A    between atoms: N_6  and  C_13
REMARK    3  A    between atoms: N_7  and  C_14
REMARK    4  A    between atoms: N_10  and  C_31
REMARK    5  A    between atoms: N_10  and  C_32
REMARK    6  A    between atoms: N_10  and  C_33
REMARK    7  A    between atoms: C_17  and  C_19
REMARK    8  A    between atoms: C_19  and  C_20
REMARK    9  A    between atoms: C_20  and  C_22
REMARK   10  A    between atoms: C_21  and  C_25
REMARK   11  A    between atoms: C_22  and  C_26
REMARK                            x       y       z     vdW  Elec       q    Type
REMARK                         _______ _______ _______ _____ _____    ______ ____
ROOT
ATOM      1  O   UNL     1      15.845   8.504   3.510  0.00  0.00    -0.370 OA
ATOM      2  O   UNL     1      14.377  10.481   5.427  0.00  0.00    -0.370 OA
ATOM     11  C   UNL     1      15.289   9.392   5.646  0.00  0.00    +0.171 C 
ATOM     12  C   UNL     1      14.961   8.317   4.628  0.00  0.00    +0.171 C 
ATOM     13  C   UNL     1      16.700   9.810   5.298  0.00  0.00    +0.130 C 
ATOM     14  C   UNL     1      13.535   8.613   4.225  0.00  0.00    +0.130 C 
ATOM     15  C   UNL     1      16.744   9.585   3.797  0.00  0.00    +0.185 C 
ATOM     16  C   UNL     1      13.447  10.119   4.395  0.00  0.00    +0.185 C 
ENDROOT
BRANCH  14   7
ATOM      7  N   UNL     1      12.618   7.953   5.127  0.00  0.00    -0.306 N 
ATOM      8  N   UNL     1      12.076   6.340   3.546  0.00  0.00    -0.214 NA
ATOM      9  N   UNL     1      11.082   6.324   5.741  0.00  0.00    -0.223 NA
ATOM     18  C   UNL     1      11.893   6.823   4.791  0.00  0.00    +0.216 A 
ATOM     21  C   UNL     1      11.354   5.239   3.252  0.00  0.00    +0.076 A 
ATOM     23  C   UNL     1      10.391   5.222   5.379  0.00  0.00    +0.116 A 
ATOM     24  C   UNL     1      10.488   4.631   4.137  0.00  0.00    +0.048 A 
ATOM     35  H   UNL     1      12.525   8.291   6.079  0.00  0.00    +0.149 HD
BRANCH  21  25
ATOM     25  C   UNL     1      11.547   4.719   1.919  0.00  0.00    +0.001 A 
ATOM     27  C   UNL     1      12.707   4.009   1.609  0.00  0.00    +0.012 A 
ATOM     28  C   UNL     1      10.576   4.930   0.941  0.00  0.00    +0.012 A 
ATOM     29  C   UNL     1      12.894   3.508   0.320  0.00  0.00    +0.024 A 
ATOM     30  C   UNL     1      10.763   4.429  -0.347  0.00  0.00    +0.024 A 
ATOM     31  C   UNL     1      11.923   3.718  -0.658  0.00  0.00    +0.029 A 
BRANCH  31  10
ATOM     10  N   UNL     1      12.112   3.212  -1.961  0.00  0.00    -0.336 N 
ATOM     32  C   UNL     1      11.189   2.239  -2.510  0.00  0.00    +0.129 C 
ATOM     33  C   UNL     1      13.224   3.667  -2.771  0.00  0.00    +0.129 C 
ENDBRANCH  31  10
ENDBRANCH  21  25
ENDBRANCH  14   7
BRANCH  13   6
ATOM      3  O   UNL     1      19.416  10.514   5.900  0.00  0.00    -0.276 OA
ATOM      6  N   UNL     1      17.671   8.988   5.978  0.00  0.00    -0.308 N 
ATOM     17  C   UNL     1      18.967   9.418   6.225  0.00  0.00    +0.213 C 
ATOM     34  H   UNL     1      17.409   8.039   6.234  0.00  0.00    +0.149 HD
BRANCH  17  19
ATOM     19  C   UNL     1      19.790   8.351   6.927  0.00  0.00    +0.096 C 
BRANCH  19  20
ATOM     20  C   UNL     1      21.029   7.916   6.145  0.00  0.00    +0.020 C 
BRANCH  20  22
ATOM     22  C   UNL     1      20.673   7.161   4.863  0.00  0.00    +0.121 C 
BRANCH  22  26
ATOM      5  O   UNL     1      22.349   7.865   3.244  0.00  0.00    -0.251 OA
ATOM     26  C   UNL     1      21.871   6.994   3.957  0.00  0.00    +0.305 C 
BRANCH  26   4
ATOM      4  O   UNL     1      22.375   5.734   4.028  0.00  0.00    -0.481 OA
ATOM     36  H   UNL     1      22.261   5.345   4.921  0.00  0.00    +0.295 HD
ENDBRANCH  26   4
ENDBRANCH  22  26
ENDBRANCH  20  22
ENDBRANCH  19  20
ENDBRANCH  17  19
ENDBRANCH  13   6
TORSDOF 9
ENDMDL
