MODEL 1
REMARK VINA RESULT:      -7.5      0.000      0.000
REMARK  Name = 45783985
REMARK  11 active torsions:
REMARK  status: ('A' for Active; 'I' for Inactive)
REMARK    1  A    between atoms: N_5  and  C_15
REMARK    2  A    between atoms: N_9  and  C_35
REMARK    3  A    between atoms: C_10  and  C_14
REMARK    4  A    between atoms: C_11  and  C_15
REMARK    5  A    between atoms: C_13  and  C_18
REMARK    6  A    between atoms: C_14  and  C_19
REMARK    7  A    between atoms: C_14  and  C_20
REMARK    8  A    between atoms: C_17  and  C_23
REMARK    9  A    between atoms: C_18  and  C_26
REMARK   10  A    between atoms: C_27  and  C_29
REMARK   11  A    between atoms: C_28  and  C_30
REMARK                            x       y       z     vdW  Elec       q    Type
REMARK                         _______ _______ _______ _____ _____    ______ ____
ROOT
ATOM     10  C   UNL     1      -5.604 -10.787  10.943  0.00  0.00    +0.000 C 
ATOM     11  C   UNL     1      -4.943 -10.517   9.571  0.00  0.00    +0.029 C 
ATOM     12  C   UNL     1      -4.570 -11.328  11.941  0.00  0.00    +0.012 C 
ATOM     13  C   UNL     1      -3.356 -10.392  12.131  0.00  0.00    +0.024 C 
ATOM     16  C   UNL     1      -3.608  -9.827   9.697  0.00  0.00    -0.023 C 
ATOM     17  C   UNL     1      -2.891  -9.749  10.833  0.00  0.00    -0.073 C 
ATOM     23  C   UNL     1      -1.611  -8.961  10.868  0.00  0.00    +0.039 C 
ENDROOT
BRANCH  10  14
ATOM     14  C   UNL     1      -6.297  -9.531  11.486  0.00  0.00    -0.013 C 
ATOM     19  C   UNL     1      -6.932  -9.819  12.843  0.00  0.00    +0.007 C 
ATOM     20  C   UNL     1      -7.342  -9.029  10.496  0.00  0.00    +0.007 C 
ENDBRANCH  10  14
BRANCH  11  15
ATOM     15  C   UNL     1      -4.768 -11.808   8.763  0.00  0.00    +0.092 C 
BRANCH  15   5
ATOM      2  O   UNL     1      -6.482 -11.922   2.767  0.00  0.00    -0.276 OA
ATOM      5  N   UNL     1      -4.583 -11.508   7.345  0.00  0.00    -0.299 NA
ATOM      6  N   UNL     1      -4.972 -11.886   4.531  0.00  0.00    -0.299 N 
ATOM     21  C   UNL     1      -5.868 -11.167   6.717  0.00  0.00    +0.103 C 
ATOM     22  C   UNL     1      -3.959 -12.646   6.652  0.00  0.00    +0.103 C 
ATOM     24  C   UNL     1      -5.674 -10.818   5.242  0.00  0.00    +0.123 C 
ATOM     25  C   UNL     1      -3.732 -12.331   5.173  0.00  0.00    +0.123 C 
ATOM     27  C   UNL     1      -5.433 -12.312   3.286  0.00  0.00    +0.213 C 
ATOM     29  C   UNL     1      -4.575 -13.313   2.556  0.00  0.00    +0.109 C 
ENDBRANCH  15   5
ENDBRANCH  11  15
BRANCH  13  18
ATOM     18  C   UNL     1      -2.244 -11.171  12.843  0.00  0.00    +0.105 C 
BRANCH  18  26
ATOM      1  O   UNL     1      -3.582 -11.305  14.880  0.00  0.00    -0.420 OA
ATOM      7  N   UNL     1      -1.445 -10.741  15.224  0.00  0.00    -0.112 NA
ATOM      8  N   UNL     1      -2.080 -10.780  16.451  0.00  0.00    -0.107 NA
ATOM     26  C   UNL     1      -2.360 -11.054  14.336  0.00  0.00    +0.218 A 
ATOM     28  C   UNL     1      -3.325 -11.113  16.202  0.00  0.00    +0.248 A 
BRANCH  28  30
ATOM     30  C   UNL     1      -4.434 -11.302  17.092  0.00  0.00    +0.039 A 
ATOM     31  C   UNL     1      -4.207 -11.593  18.437  0.00  0.00    +0.015 A 
ATOM     32  C   UNL     1      -5.739 -11.195  16.612  0.00  0.00    +0.015 A 
ATOM     33  C   UNL     1      -5.285 -11.778  19.302  0.00  0.00    +0.033 A 
ATOM     34  C   UNL     1      -6.817 -11.379  17.476  0.00  0.00    +0.033 A 
ATOM     35  C   UNL     1      -6.590 -11.671  18.822  0.00  0.00    +0.126 A 
BRANCH  35   9
ATOM      3  O   UNL     1      -7.940 -13.009  20.127  0.00  0.00    -0.126 OA
ATOM      4  O   UNL     1      -8.378 -10.860  20.032  0.00  0.00    -0.126 OA
ATOM      9  N   UNL     1      -7.689 -11.855  19.703  0.00  0.00    +0.056 N 
ENDBRANCH  35   9
ENDBRANCH  28  30
ENDBRANCH  18  26
ENDBRANCH  13  18
TORSDOF 7
ENDMDL
MODEL 2
REMARK VINA RESULT:      -7.3     27.728     31.448
REMARK  Name = 45783985
REMARK  11 active torsions:
REMARK  status: ('A' for Active; 'I' for Inactive)
REMARK    1  A    between atoms: N_5  and  C_15
REMARK    2  A    between atoms: N_9  and  C_35
REMARK    3  A    between atoms: C_10  and  C_14
REMARK    4  A    between atoms: C_11  and  C_15
REMARK    5  A    between atoms: C_13  and  C_18
REMARK    6  A    between atoms: C_14  and  C_19
REMARK    7  A    between atoms: C_14  and  C_20
REMARK    8  A    between atoms: C_17  and  C_23
REMARK    9  A    between atoms: C_18  and  C_26
REMARK   10  A    between atoms: C_27  and  C_29
REMARK   11  A    between atoms: C_28  and  C_30
REMARK                            x       y       z     vdW  Elec       q    Type
REMARK                         _______ _______ _______ _____ _____    ______ ____
ROOT
ATOM     10  C   UNL     1      13.863  10.510  20.496  0.00  0.00    +0.000 C 
ATOM     11  C   UNL     1      12.348  10.407  20.207  0.00  0.00    +0.029 C 
ATOM     12  C   UNL     1      14.464   9.115  20.718  0.00  0.00    +0.012 C 
ATOM     13  C   UNL     1      14.231   8.152  19.533  0.00  0.00    +0.024 C 
ATOM     16  C   UNL     1      12.016   9.298  19.240  0.00  0.00    -0.023 C 
ATOM     17  C   UNL     1      12.847   8.291  18.917  0.00  0.00    -0.073 C 
ATOM     23  C   UNL     1      12.448   7.284  17.874  0.00  0.00    +0.039 C 
ENDROOT
BRANCH  10  14
ATOM     14  C   UNL     1      14.597  11.258  19.375  0.00  0.00    -0.013 C 
ATOM     19  C   UNL     1      16.044  11.529  19.775  0.00  0.00    +0.007 C 
ATOM     20  C   UNL     1      13.875  12.559  19.042  0.00  0.00    +0.007 C 
ENDBRANCH  10  14
BRANCH  11  15
ATOM     15  C   UNL     1      11.538  10.212  21.493  0.00  0.00    +0.092 C 
BRANCH  15   5
ATOM      2  O   UNL     1      10.282  13.855  26.399  0.00  0.00    -0.276 OA
ATOM      5  N   UNL     1      11.868  11.246  22.472  0.00  0.00    -0.299 NA
ATOM      6  N   UNL     1      11.290  13.305  24.380  0.00  0.00    -0.299 N 
ATOM     21  C   UNL     1      11.310  10.907  23.789  0.00  0.00    +0.103 C 
ATOM     22  C   UNL     1      11.373  12.558  22.026  0.00  0.00    +0.103 C 
ATOM     24  C   UNL     1      11.682  11.968  24.825  0.00  0.00    +0.123 C 
ATOM     25  C   UNL     1      11.741  13.653  23.029  0.00  0.00    +0.123 C 
ATOM     27  C   UNL     1      10.652  14.172  25.265  0.00  0.00    +0.213 C 
ATOM     29  C   UNL     1      10.411  15.578  24.776  0.00  0.00    +0.109 C 
ENDBRANCH  15   5
ENDBRANCH  11  15
BRANCH  13  18
ATOM     18  C   UNL     1      14.538   6.723  19.996  0.00  0.00    +0.105 C 
BRANCH  18  26
ATOM      1  O   UNL     1      16.869   6.580  20.705  0.00  0.00    -0.420 OA
ATOM      7  N   UNL     1      16.493   5.817  18.636  0.00  0.00    -0.112 NA
ATOM      8  N   UNL     1      17.842   5.677  18.905  0.00  0.00    -0.107 NA
ATOM     26  C   UNL     1      15.965   6.348  19.715  0.00  0.00    +0.218 A 
ATOM     28  C   UNL     1      18.015   6.135  20.122  0.00  0.00    +0.248 A 
BRANCH  28  30
ATOM     30  C   UNL     1      19.204   6.236  20.918  0.00  0.00    +0.039 A 
ATOM     31  C   UNL     1      20.344   5.514  20.563  0.00  0.00    +0.015 A 
ATOM     32  C   UNL     1      19.221   7.056  22.046  0.00  0.00    +0.015 A 
ATOM     33  C   UNL     1      21.500   5.612  21.337  0.00  0.00    +0.033 A 
ATOM     34  C   UNL     1      20.377   7.154  22.820  0.00  0.00    +0.033 A 
ATOM     35  C   UNL     1      21.517   6.432  22.466  0.00  0.00    +0.126 A 
BRANCH  35   9
ATOM      3  O   UNL     1      23.680   7.160  22.792  0.00  0.00    -0.126 OA
ATOM      4  O   UNL     1      22.718   5.996  24.385  0.00  0.00    -0.126 OA
ATOM      9  N   UNL     1      22.695   6.534  23.253  0.00  0.00    +0.056 N 
ENDBRANCH  35   9
ENDBRANCH  28  30
ENDBRANCH  18  26
ENDBRANCH  13  18
TORSDOF 7
ENDMDL
MODEL 3
REMARK VINA RESULT:      -7.1     23.552     27.053
REMARK  Name = 45783985
REMARK  11 active torsions:
REMARK  status: ('A' for Active; 'I' for Inactive)
REMARK    1  A    between atoms: N_5  and  C_15
REMARK    2  A    between atoms: N_9  and  C_35
REMARK    3  A    between atoms: C_10  and  C_14
REMARK    4  A    between atoms: C_11  and  C_15
REMARK    5  A    between atoms: C_13  and  C_18
REMARK    6  A    between atoms: C_14  and  C_19
REMARK    7  A    between atoms: C_14  and  C_20
REMARK    8  A    between atoms: C_17  and  C_23
REMARK    9  A    between atoms: C_18  and  C_26
REMARK   10  A    between atoms: C_27  and  C_29
REMARK   11  A    between atoms: C_28  and  C_30
REMARK                            x       y       z     vdW  Elec       q    Type
REMARK                         _______ _______ _______ _____ _____    ______ ____
ROOT
ATOM     10  C   UNL     1      13.879   5.623   2.145  0.00  0.00    +0.000 C 
ATOM     11  C   UNL     1      14.067   7.158   2.146  0.00  0.00    +0.029 C 
ATOM     12  C   UNL     1      12.388   5.264   2.203  0.00  0.00    +0.012 C 
ATOM     13  C   UNL     1      11.564   5.883   1.052  0.00  0.00    +0.024 C 
ATOM     16  C   UNL     1      13.103   7.861   1.224  0.00  0.00    -0.023 C 
ATOM     17  C   UNL     1      11.988   7.305   0.715  0.00  0.00    -0.073 C 
ATOM     23  C   UNL     1      11.141   8.068  -0.265  0.00  0.00    +0.039 C 
ENDROOT
BRANCH  10  14
ATOM     14  C   UNL     1      14.559   4.977   0.930  0.00  0.00    -0.013 C 
ATOM     19  C   UNL     1      15.050   3.575   1.278  0.00  0.00    +0.007 C 
ATOM     20  C   UNL     1      15.711   5.847   0.440  0.00  0.00    +0.007 C 
ENDBRANCH  10  14
BRANCH  11  15
ATOM     15  C   UNL     1      13.933   7.743   3.555  0.00  0.00    +0.092 C 
BRANCH  15   5
ATOM      2  O   UNL     1      20.097   8.259   4.366  0.00  0.00    -0.276 OA
ATOM      5  N   UNL     1      15.146   8.467   3.932  0.00  0.00    -0.299 NA
ATOM      6  N   UNL     1      17.863   8.715   4.809  0.00  0.00    -0.299 N 
ATOM     21  C   UNL     1      16.255   8.118   3.032  0.00  0.00    +0.103 C 
ATOM     22  C   UNL     1      15.508   8.178   5.328  0.00  0.00    +0.103 C 
ATOM     24  C   UNL     1      17.517   8.899   3.400  0.00  0.00    +0.123 C 
ATOM     25  C   UNL     1      16.759   8.956   5.742  0.00  0.00    +0.123 C 
ATOM     27  C   UNL     1      19.184   8.458   5.172  0.00  0.00    +0.213 C 
ATOM     29  C   UNL     1      19.483   8.425   6.649  0.00  0.00    +0.109 C 
ENDBRANCH  15   5
ENDBRANCH  11  15
BRANCH  13  18
ATOM     18  C   UNL     1      10.075   5.771   1.401  0.00  0.00    +0.105 C 
BRANCH  18  26
ATOM      1  O   UNL     1       9.813   5.740   3.827  0.00  0.00    -0.420 OA
ATOM      7  N   UNL     1       9.426   7.734   2.891  0.00  0.00    -0.112 NA
ATOM      8  N   UNL     1       9.243   7.859   4.255  0.00  0.00    -0.107 NA
ATOM     26  C   UNL     1       9.757   6.480   2.687  0.00  0.00    +0.218 A 
ATOM     28  C   UNL     1       9.479   6.672   4.760  0.00  0.00    +0.248 A 
BRANCH  28  30
ATOM     30  C   UNL     1       9.441   6.214   6.120  0.00  0.00    +0.039 A 
ATOM     31  C   UNL     1       9.035   7.078   7.136  0.00  0.00    +0.015 A 
ATOM     32  C   UNL     1       9.808   4.903   6.424  0.00  0.00    +0.015 A 
ATOM     33  C   UNL     1       8.998   6.634   8.457  0.00  0.00    +0.033 A 
ATOM     34  C   UNL     1       9.772   4.458   7.745  0.00  0.00    +0.033 A 
ATOM     35  C   UNL     1       9.367   5.324   8.762  0.00  0.00    +0.126 A 
BRANCH  35   9
ATOM      3  O   UNL     1       8.212   4.731  10.668  0.00  0.00    -0.126 OA
ATOM      4  O   UNL     1      10.404   4.618  10.696  0.00  0.00    -0.126 OA
ATOM      9  N   UNL     1       9.326   4.869  10.107  0.00  0.00    +0.056 N 
ENDBRANCH  35   9
ENDBRANCH  28  30
ENDBRANCH  18  26
ENDBRANCH  13  18
TORSDOF 7
ENDMDL
MODEL 4
REMARK VINA RESULT:      -7.0      2.179      2.845
REMARK  Name = 45783985
REMARK  11 active torsions:
REMARK  status: ('A' for Active; 'I' for Inactive)
REMARK    1  A    between atoms: N_5  and  C_15
REMARK    2  A    between atoms: N_9  and  C_35
REMARK    3  A    between atoms: C_10  and  C_14
REMARK    4  A    between atoms: C_11  and  C_15
REMARK    5  A    between atoms: C_13  and  C_18
REMARK    6  A    between atoms: C_14  and  C_19
REMARK    7  A    between atoms: C_14  and  C_20
REMARK    8  A    between atoms: C_17  and  C_23
REMARK    9  A    between atoms: C_18  and  C_26
REMARK   10  A    between atoms: C_27  and  C_29
REMARK   11  A    between atoms: C_28  and  C_30
REMARK                            x       y       z     vdW  Elec       q    Type
REMARK                         _______ _______ _______ _____ _____    ______ ____
ROOT
ATOM     10  C   UNL     1      -7.196 -10.230   9.432  0.00  0.00    +0.000 C 
ATOM     11  C   UNL     1      -6.383  -9.747   8.209  0.00  0.00    +0.029 C 
ATOM     12  C   UNL     1      -6.333 -11.127  10.331  0.00  0.00    +0.012 C 
ATOM     13  C   UNL     1      -5.036 -10.443  10.814  0.00  0.00    +0.024 C 
ATOM     16  C   UNL     1      -4.991  -9.302   8.577  0.00  0.00    -0.023 C 
ATOM     17  C   UNL     1      -4.377  -9.590   9.739  0.00  0.00    -0.073 C 
ATOM     23  C   UNL     1      -3.019  -9.021  10.041  0.00  0.00    +0.039 C 
ENDROOT
BRANCH  10  14
ATOM     14  C   UNL     1      -7.776  -9.048  10.220  0.00  0.00    -0.013 C 
ATOM     19  C   UNL     1      -8.265  -9.510  11.589  0.00  0.00    +0.007 C 
ATOM     20  C   UNL     1      -8.906  -8.389   9.436  0.00  0.00    +0.007 C 
ENDBRANCH  10  14
BRANCH  11  15
ATOM     15  C   UNL     1      -6.295 -10.828   7.125  0.00  0.00    +0.092 C 
BRANCH  15   5
ATOM      2  O   UNL     1      -7.752  -8.847   1.393  0.00  0.00    -0.276 OA
ATOM      5  N   UNL     1      -7.230 -10.546   6.038  0.00  0.00    -0.299 NA
ATOM      6  N   UNL     1      -8.130  -9.243   3.650  0.00  0.00    -0.299 N 
ATOM     21  C   UNL     1      -6.623 -10.869   4.738  0.00  0.00    +0.103 C 
ATOM     22  C   UNL     1      -7.654  -9.138   6.072  0.00  0.00    +0.103 C 
ATOM     24  C   UNL     1      -7.610 -10.609   3.600  0.00  0.00    +0.123 C 
ATOM     25  C   UNL     1      -8.658  -8.840   4.956  0.00  0.00    +0.123 C 
ATOM     27  C   UNL     1      -8.205  -8.486   2.482  0.00  0.00    +0.213 C 
ATOM     29  C   UNL     1      -8.884  -7.144   2.591  0.00  0.00    +0.109 C 
ENDBRANCH  15   5
ENDBRANCH  11  15
BRANCH  13  18
ATOM     18  C   UNL     1      -4.099 -11.515  11.382  0.00  0.00    +0.105 C 
BRANCH  18  26
ATOM      1  O   UNL     1      -4.545 -11.290  13.771  0.00  0.00    -0.420 OA
ATOM      7  N   UNL     1      -2.461 -10.739  13.174  0.00  0.00    -0.112 NA
ATOM      8  N   UNL     1      -2.574 -10.568  14.541  0.00  0.00    -0.107 NA
ATOM     26  C   UNL     1      -3.636 -11.162  12.767  0.00  0.00    +0.218 A 
ATOM     28  C   UNL     1      -3.806 -10.901  14.845  0.00  0.00    +0.248 A 
BRANCH  28  30
ATOM     30  C   UNL     1      -4.480 -10.917  16.111  0.00  0.00    +0.039 A 
ATOM     31  C   UNL     1      -3.892 -11.548  17.207  0.00  0.00    +0.015 A 
ATOM     32  C   UNL     1      -5.724 -10.301  16.247  0.00  0.00    +0.015 A 
ATOM     33  C   UNL     1      -4.547 -11.565  18.437  0.00  0.00    +0.033 A 
ATOM     34  C   UNL     1      -6.380 -10.317  17.477  0.00  0.00    +0.033 A 
ATOM     35  C   UNL     1      -5.792 -10.949  18.573  0.00  0.00    +0.126 A 
BRANCH  35   9
ATOM      3  O   UNL     1      -5.778 -11.064  20.875  0.00  0.00    -0.126 OA
ATOM      4  O   UNL     1      -7.709 -10.872  19.851  0.00  0.00    -0.126 OA
ATOM      9  N   UNL     1      -6.459 -10.962  19.827  0.00  0.00    +0.056 N 
ENDBRANCH  35   9
ENDBRANCH  28  30
ENDBRANCH  18  26
ENDBRANCH  13  18
TORSDOF 7
ENDMDL
MODEL 5
REMARK VINA RESULT:      -6.9      3.829      5.984
REMARK  Name = 45783985
REMARK  11 active torsions:
REMARK  status: ('A' for Active; 'I' for Inactive)
REMARK    1  A    between atoms: N_5  and  C_15
REMARK    2  A    between atoms: N_9  and  C_35
REMARK    3  A    between atoms: C_10  and  C_14
REMARK    4  A    between atoms: C_11  and  C_15
REMARK    5  A    between atoms: C_13  and  C_18
REMARK    6  A    between atoms: C_14  and  C_19
REMARK    7  A    between atoms: C_14  and  C_20
REMARK    8  A    between atoms: C_17  and  C_23
REMARK    9  A    between atoms: C_18  and  C_26
REMARK   10  A    between atoms: C_27  and  C_29
REMARK   11  A    between atoms: C_28  and  C_30
REMARK                            x       y       z     vdW  Elec       q    Type
REMARK                         _______ _______ _______ _____ _____    ______ ____
ROOT
ATOM     10  C   UNL     1      -4.648 -10.010  11.672  0.00  0.00    +0.000 C 
ATOM     11  C   UNL     1      -5.811 -10.868  12.219  0.00  0.00    +0.029 C 
ATOM     12  C   UNL     1      -3.323 -10.413  12.336  0.00  0.00    +0.012 C 
ATOM     13  C   UNL     1      -2.983 -11.910  12.163  0.00  0.00    +0.024 C 
ATOM     16  C   UNL     1      -5.454 -12.330  12.325  0.00  0.00    -0.023 C 
ATOM     17  C   UNL     1      -4.200 -12.815  12.289  0.00  0.00    -0.073 C 
ATOM     23  C   UNL     1      -3.961 -14.299  12.315  0.00  0.00    +0.039 C 
ENDROOT
BRANCH  10  14
ATOM     14  C   UNL     1      -4.554 -10.104  10.144  0.00  0.00    -0.013 C 
ATOM     19  C   UNL     1      -3.574  -9.066   9.606  0.00  0.00    +0.007 C 
ATOM     20  C   UNL     1      -5.931  -9.925   9.514  0.00  0.00    +0.007 C 
ENDBRANCH  10  14
BRANCH  11  15
ATOM     15  C   UNL     1      -6.290 -10.368  13.587  0.00  0.00    +0.092 C 
BRANCH  15   5
ATOM      2  O   UNL     1     -12.072  -8.069  13.140  0.00  0.00    -0.276 OA
ATOM      5  N   UNL     1      -7.745 -10.460  13.690  0.00  0.00    -0.299 NA
ATOM      6  N   UNL     1     -10.403  -9.436  14.002  0.00  0.00    -0.299 N 
ATOM     21  C   UNL     1      -8.388  -9.712  12.600  0.00  0.00    +0.103 C 
ATOM     22  C   UNL     1      -8.203  -9.962  14.996  0.00  0.00    +0.103 C 
ATOM     24  C   UNL     1      -9.909  -9.834  12.684  0.00  0.00    +0.123 C 
ATOM     25  C   UNL     1      -9.722 -10.083  15.127  0.00  0.00    +0.123 C 
ATOM     27  C   UNL     1     -11.516  -8.603  14.104  0.00  0.00    +0.213 C 
ATOM     29  C   UNL     1     -12.048  -8.356  15.493  0.00  0.00    +0.109 C 
ENDBRANCH  15   5
ENDBRANCH  11  15
BRANCH  13  18
ATOM     18  C   UNL     1      -1.864 -12.274  13.145  0.00  0.00    +0.105 C 
BRANCH  18  26
ATOM      1  O   UNL     1      -3.351 -12.077  15.071  0.00  0.00    -0.420 OA
ATOM      7  N   UNL     1      -1.403 -11.002  15.305  0.00  0.00    -0.112 NA
ATOM      8  N   UNL     1      -2.140 -10.808  16.459  0.00  0.00    -0.107 NA
ATOM     26  C   UNL     1      -2.150 -11.748  14.523  0.00  0.00    +0.218 A 
ATOM     28  C   UNL     1      -3.268 -11.453  16.277  0.00  0.00    +0.248 A 
BRANCH  28  30
ATOM     30  C   UNL     1      -4.406 -11.599  17.139  0.00  0.00    +0.039 A 
ATOM     31  C   UNL     1      -4.363 -11.100  18.441  0.00  0.00    +0.015 A 
ATOM     32  C   UNL     1      -5.555 -12.238  16.675  0.00  0.00    +0.015 A 
ATOM     33  C   UNL     1      -5.468 -11.242  19.279  0.00  0.00    +0.033 A 
ATOM     34  C   UNL     1      -6.661 -12.380  17.512  0.00  0.00    +0.033 A 
ATOM     35  C   UNL     1      -6.617 -11.882  18.815  0.00  0.00    +0.126 A 
BRANCH  35   9
ATOM      3  O   UNL     1      -8.373 -10.997  20.019  0.00  0.00    -0.126 OA
ATOM      4  O   UNL     1      -8.082 -13.172  20.043  0.00  0.00    -0.126 OA
ATOM      9  N   UNL     1      -7.745 -12.024  19.667  0.00  0.00    +0.056 N 
ENDBRANCH  35   9
ENDBRANCH  28  30
ENDBRANCH  18  26
ENDBRANCH  13  18
TORSDOF 7
ENDMDL
MODEL 6
REMARK VINA RESULT:      -6.9      3.342      5.924
REMARK  Name = 45783985
REMARK  11 active torsions:
REMARK  status: ('A' for Active; 'I' for Inactive)
REMARK    1  A    between atoms: N_5  and  C_15
REMARK    2  A    between atoms: N_9  and  C_35
REMARK    3  A    between atoms: C_10  and  C_14
REMARK    4  A    between atoms: C_11  and  C_15
REMARK    5  A    between atoms: C_13  and  C_18
REMARK    6  A    between atoms: C_14  and  C_19
REMARK    7  A    between atoms: C_14  and  C_20
REMARK    8  A    between atoms: C_17  and  C_23
REMARK    9  A    between atoms: C_18  and  C_26
REMARK   10  A    between atoms: C_27  and  C_29
REMARK   11  A    between atoms: C_28  and  C_30
REMARK                            x       y       z     vdW  Elec       q    Type
REMARK                         _______ _______ _______ _____ _____    ______ ____
ROOT
ATOM     10  C   UNL     1      -3.845 -10.632  15.339  0.00  0.00    +0.000 C 
ATOM     11  C   UNL     1      -4.823 -10.941  14.181  0.00  0.00    +0.029 C 
ATOM     12  C   UNL     1      -4.343 -11.266  16.645  0.00  0.00    +0.012 C 
ATOM     13  C   UNL     1      -4.554 -12.793  16.544  0.00  0.00    +0.024 C 
ATOM     16  C   UNL     1      -5.281 -12.377  14.176  0.00  0.00    -0.023 C 
ATOM     17  C   UNL     1      -5.158 -13.223  15.215  0.00  0.00    -0.073 C 
ATOM     23  C   UNL     1      -5.571 -14.662  15.074  0.00  0.00    +0.039 C 
ENDROOT
BRANCH  10  14
ATOM     14  C   UNL     1      -2.420 -11.094  15.005  0.00  0.00    -0.013 C 
ATOM     19  C   UNL     1      -1.436 -10.578  16.051  0.00  0.00    +0.007 C 
ATOM     20  C   UNL     1      -2.022 -10.624  13.610  0.00  0.00    +0.007 C 
ENDBRANCH  10  14
BRANCH  11  15
ATOM     15  C   UNL     1      -6.048 -10.021  14.215  0.00  0.00    +0.092 C 
BRANCH  15   5
ATOM      2  O   UNL     1      -7.802 -10.184   8.231  0.00  0.00    -0.276 OA
ATOM      5  N   UNL     1      -6.279  -9.419  12.903  0.00  0.00    -0.299 NA
ATOM      6  N   UNL     1      -6.582  -9.422  10.054  0.00  0.00    -0.299 N 
ATOM     21  C   UNL     1      -7.487  -9.980  12.282  0.00  0.00    +0.103 C 
ATOM     22  C   UNL     1      -5.112  -9.620  12.030  0.00  0.00    +0.103 C 
ATOM     24  C   UNL     1      -7.752  -9.328  10.926  0.00  0.00    +0.123 C 
ATOM     25  C   UNL     1      -5.330  -8.965  10.665  0.00  0.00    +0.123 C 
ATOM     27  C   UNL     1      -6.737  -9.803   8.722  0.00  0.00    +0.213 C 
ATOM     29  C   UNL     1      -5.506  -9.737   7.854  0.00  0.00    +0.109 C 
ENDBRANCH  15   5
ENDBRANCH  11  15
BRANCH  13  18
ATOM     18  C   UNL     1      -5.377 -13.255  17.752  0.00  0.00    +0.105 C 
BRANCH  18  26
ATOM      1  O   UNL     1      -7.142 -11.576  17.602  0.00  0.00    -0.420 OA
ATOM      7  N   UNL     1      -6.014 -11.549  19.534  0.00  0.00    -0.112 NA
ATOM      8  N   UNL     1      -6.975 -10.557  19.586  0.00  0.00    -0.107 NA
ATOM     26  C   UNL     1      -6.149 -12.118  18.358  0.00  0.00    +0.218 A 
ATOM     28  C   UNL     1      -7.609 -10.609  18.438  0.00  0.00    +0.248 A 
BRANCH  28  30
ATOM     30  C   UNL     1      -8.697  -9.819  17.938  0.00  0.00    +0.039 A 
ATOM     31  C   UNL     1      -9.983 -10.002  18.447  0.00  0.00    +0.015 A 
ATOM     32  C   UNL     1      -8.469  -8.868  16.944  0.00  0.00    +0.015 A 
ATOM     33  C   UNL     1     -11.041  -9.235  17.960  0.00  0.00    +0.033 A 
ATOM     34  C   UNL     1      -9.526  -8.100  16.457  0.00  0.00    +0.033 A 
ATOM     35  C   UNL     1     -10.813  -8.284  16.966  0.00  0.00    +0.126 A 
BRANCH  35   9
ATOM      3  O   UNL     1     -13.002  -8.047  16.282  0.00  0.00    -0.126 OA
ATOM      4  O   UNL     1     -11.698  -6.282  16.240  0.00  0.00    -0.126 OA
ATOM      9  N   UNL     1     -11.889  -7.499  16.472  0.00  0.00    +0.056 N 
ENDBRANCH  35   9
ENDBRANCH  28  30
ENDBRANCH  18  26
ENDBRANCH  13  18
TORSDOF 7
ENDMDL
MODEL 7
REMARK VINA RESULT:      -6.8     23.964     27.025
REMARK  Name = 45783985
REMARK  11 active torsions:
REMARK  status: ('A' for Active; 'I' for Inactive)
REMARK    1  A    between atoms: N_5  and  C_15
REMARK    2  A    between atoms: N_9  and  C_35
REMARK    3  A    between atoms: C_10  and  C_14
REMARK    4  A    between atoms: C_11  and  C_15
REMARK    5  A    between atoms: C_13  and  C_18
REMARK    6  A    between atoms: C_14  and  C_19
REMARK    7  A    between atoms: C_14  and  C_20
REMARK    8  A    between atoms: C_17  and  C_23
REMARK    9  A    between atoms: C_18  and  C_26
REMARK   10  A    between atoms: C_27  and  C_29
REMARK   11  A    between atoms: C_28  and  C_30
REMARK                            x       y       z     vdW  Elec       q    Type
REMARK                         _______ _______ _______ _____ _____    ______ ____
ROOT
ATOM     10  C   UNL     1      14.465   7.237   1.020  0.00  0.00    +0.000 C 
ATOM     11  C   UNL     1      15.043   6.059   0.201  0.00  0.00    +0.029 C 
ATOM     12  C   UNL     1      12.942   7.102   1.154  0.00  0.00    +0.012 C 
ATOM     13  C   UNL     1      12.499   5.767   1.792  0.00  0.00    +0.024 C 
ATOM     16  C   UNL     1      14.451   4.731   0.600  0.00  0.00    -0.023 C 
ATOM     17  C   UNL     1      13.326   4.580   1.321  0.00  0.00    -0.073 C 
ATOM     23  C   UNL     1      12.871   3.208   1.738  0.00  0.00    +0.039 C 
ENDROOT
BRANCH  10  14
ATOM     14  C   UNL     1      15.137   7.344   2.395  0.00  0.00    -0.013 C 
ATOM     19  C   UNL     1      14.355   8.294   3.297  0.00  0.00    +0.007 C 
ATOM     20  C   UNL     1      16.582   7.805   2.247  0.00  0.00    +0.007 C 
ENDBRANCH  10  14
BRANCH  11  15
ATOM     15  C   UNL     1      14.844   6.266  -1.305  0.00  0.00    +0.092 C 
BRANCH  15   5
ATOM      2  O   UNL     1      20.338   3.571  -2.516  0.00  0.00    -0.276 OA
ATOM      5  N   UNL     1      16.118   6.154  -2.013  0.00  0.00    -0.299 NA
ATOM      6  N   UNL     1      18.844   5.342  -2.356  0.00  0.00    -0.299 N 
ATOM     21  C   UNL     1      16.451   4.744  -2.259  0.00  0.00    +0.103 C 
ATOM     22  C   UNL     1      17.192   6.811  -1.252  0.00  0.00    +0.103 C 
ATOM     24  C   UNL     1      17.764   4.624  -3.031  0.00  0.00    +0.123 C 
ATOM     25  C   UNL     1      18.524   6.728  -2.001  0.00  0.00    +0.123 C 
ATOM     27  C   UNL     1      20.093   4.741  -2.209  0.00  0.00    +0.213 C 
ATOM     29  C   UNL     1      21.191   5.598  -1.633  0.00  0.00    +0.109 C 
ENDBRANCH  15   5
ENDBRANCH  11  15
BRANCH  13  18
ATOM     18  C   UNL     1      10.997   5.583   1.550  0.00  0.00    +0.105 C 
BRANCH  18  26
ATOM      1  O   UNL     1      10.391   5.536   3.913  0.00  0.00    -0.420 OA
ATOM      7  N   UNL     1       9.286   7.068   2.716  0.00  0.00    -0.112 NA
ATOM      8  N   UNL     1       8.849   7.152   4.025  0.00  0.00    -0.107 NA
ATOM     26  C   UNL     1      10.186   6.112   2.698  0.00  0.00    +0.218 A 
ATOM     28  C   UNL     1       9.521   6.239   4.687  0.00  0.00    +0.248 A 
BRANCH  28  30
ATOM     30  C   UNL     1       9.479   5.877   6.074  0.00  0.00    +0.039 A 
ATOM     31  C   UNL     1       9.862   4.596   6.472  0.00  0.00    +0.015 A 
ATOM     32  C   UNL     1       9.057   6.805   7.025  0.00  0.00    +0.015 A 
ATOM     33  C   UNL     1       9.821   4.243   7.820  0.00  0.00    +0.033 A 
ATOM     34  C   UNL     1       9.015   6.453   8.374  0.00  0.00    +0.033 A 
ATOM     35  C   UNL     1       9.397   5.171   8.772  0.00  0.00    +0.126 A 
BRANCH  35   9
ATOM      3  O   UNL     1      10.439   4.654  10.763  0.00  0.00    -0.126 OA
ATOM      4  O   UNL     1       8.245   4.666  10.704  0.00  0.00    -0.126 OA
ATOM      9  N   UNL     1       9.358   4.813  10.146  0.00  0.00    +0.056 N 
ENDBRANCH  35   9
ENDBRANCH  28  30
ENDBRANCH  18  26
ENDBRANCH  13  18
TORSDOF 7
ENDMDL
MODEL 8
REMARK VINA RESULT:      -6.7      3.720      8.734
REMARK  Name = 45783985
REMARK  11 active torsions:
REMARK  status: ('A' for Active; 'I' for Inactive)
REMARK    1  A    between atoms: N_5  and  C_15
REMARK    2  A    between atoms: N_9  and  C_35
REMARK    3  A    between atoms: C_10  and  C_14
REMARK    4  A    between atoms: C_11  and  C_15
REMARK    5  A    between atoms: C_13  and  C_18
REMARK    6  A    between atoms: C_14  and  C_19
REMARK    7  A    between atoms: C_14  and  C_20
REMARK    8  A    between atoms: C_17  and  C_23
REMARK    9  A    between atoms: C_18  and  C_26
REMARK   10  A    between atoms: C_27  and  C_29
REMARK   11  A    between atoms: C_28  and  C_30
REMARK                            x       y       z     vdW  Elec       q    Type
REMARK                         _______ _______ _______ _____ _____    ______ ____
ROOT
ATOM     10  C   UNL     1      -5.127 -12.421  15.781  0.00  0.00    +0.000 C 
ATOM     11  C   UNL     1      -4.924 -10.909  16.033  0.00  0.00    +0.029 C 
ATOM     12  C   UNL     1      -4.250 -12.894  14.613  0.00  0.00    +0.012 C 
ATOM     13  C   UNL     1      -2.747 -12.606  14.821  0.00  0.00    +0.024 C 
ATOM     16  C   UNL     1      -3.472 -10.504  15.989  0.00  0.00    -0.023 C 
ATOM     17  C   UNL     1      -2.484 -11.253  15.465  0.00  0.00    -0.073 C 
ATOM     23  C   UNL     1      -1.056 -10.791  15.552  0.00  0.00    +0.039 C 
ENDROOT
BRANCH  10  14
ATOM     14  C   UNL     1      -4.853 -13.241  17.049  0.00  0.00    -0.013 C 
ATOM     19  C   UNL     1      -5.225 -14.704  16.826  0.00  0.00    +0.007 C 
ATOM     20  C   UNL     1      -5.621 -12.662  18.232  0.00  0.00    +0.007 C 
ENDBRANCH  10  14
BRANCH  11  15
ATOM     15  C   UNL     1      -5.713 -10.058  15.033  0.00  0.00    +0.092 C 
BRANCH  15   5
ATOM      2  O   UNL     1     -11.623  -8.115  14.568  0.00  0.00    -0.276 OA
ATOM      5  N   UNL     1      -7.150 -10.169  15.281  0.00  0.00    -0.299 NA
ATOM      6  N   UNL     1      -9.825  -9.186  15.575  0.00  0.00    -0.299 N 
ATOM     21  C   UNL     1      -7.913  -9.721  14.107  0.00  0.00    +0.103 C 
ATOM     22  C   UNL     1      -7.531  -9.391  16.470  0.00  0.00    +0.103 C 
ATOM     24  C   UNL     1      -9.415  -9.869  14.349  0.00  0.00    +0.123 C 
ATOM     25  C   UNL     1      -9.027  -9.527  16.757  0.00  0.00    +0.123 C 
ATOM     27  C   UNL     1     -10.968  -8.388  15.577  0.00  0.00    +0.213 C 
ATOM     29  C   UNL     1     -11.404  -7.837  16.911  0.00  0.00    +0.109 C 
ENDBRANCH  15   5
ENDBRANCH  11  15
BRANCH  13  18
ATOM     18  C   UNL     1      -2.025 -12.778  13.479  0.00  0.00    +0.105 C 
BRANCH  18  26
ATOM      1  O   UNL     1      -3.451 -11.361  12.094  0.00  0.00    -0.420 OA
ATOM      7  N   UNL     1      -1.328 -10.668  12.232  0.00  0.00    -0.112 NA
ATOM      8  N   UNL     1      -2.017  -9.781  11.425  0.00  0.00    -0.107 NA
ATOM     26  C   UNL     1      -2.205 -11.573  12.600  0.00  0.00    +0.218 A 
ATOM     28  C   UNL     1      -3.250 -10.225  11.373  0.00  0.00    +0.248 A 
BRANCH  28  30
ATOM     30  C   UNL     1      -4.398  -9.707  10.686  0.00  0.00    +0.039 A 
ATOM     31  C   UNL     1      -4.356  -9.517   9.305  0.00  0.00    +0.015 A 
ATOM     32  C   UNL     1      -5.555  -9.394  11.398  0.00  0.00    +0.015 A 
ATOM     33  C   UNL     1      -5.471  -9.012   8.636  0.00  0.00    +0.033 A 
ATOM     34  C   UNL     1      -6.670  -8.889  10.731  0.00  0.00    +0.033 A 
ATOM     35  C   UNL     1      -6.629  -8.698   9.349  0.00  0.00    +0.126 A 
BRANCH  35   9
ATOM      3  O   UNL     1      -8.800  -8.895   8.598  0.00  0.00    -0.126 OA
ATOM      4  O   UNL     1      -7.706  -7.045   8.157  0.00  0.00    -0.126 OA
ATOM      9  N   UNL     1      -7.766  -8.188   8.668  0.00  0.00    +0.056 N 
ENDBRANCH  35   9
ENDBRANCH  28  30
ENDBRANCH  18  26
ENDBRANCH  13  18
TORSDOF 7
ENDMDL
MODEL 9
REMARK VINA RESULT:      -6.6     23.711     27.678
REMARK  Name = 45783985
REMARK  11 active torsions:
REMARK  status: ('A' for Active; 'I' for Inactive)
REMARK    1  A    between atoms: N_5  and  C_15
REMARK    2  A    between atoms: N_9  and  C_35
REMARK    3  A    between atoms: C_10  and  C_14
REMARK    4  A    between atoms: C_11  and  C_15
REMARK    5  A    between atoms: C_13  and  C_18
REMARK    6  A    between atoms: C_14  and  C_19
REMARK    7  A    between atoms: C_14  and  C_20
REMARK    8  A    between atoms: C_17  and  C_23
REMARK    9  A    between atoms: C_18  and  C_26
REMARK   10  A    between atoms: C_27  and  C_29
REMARK   11  A    between atoms: C_28  and  C_30
REMARK                            x       y       z     vdW  Elec       q    Type
REMARK                         _______ _______ _______ _____ _____    ______ ____
ROOT
ATOM     10  C   UNL     1      10.385  10.047   6.984  0.00  0.00    +0.000 C 
ATOM     11  C   UNL     1      11.538   9.057   7.267  0.00  0.00    +0.029 C 
ATOM     12  C   UNL     1       9.242   9.343   6.239  0.00  0.00    +0.012 C 
ATOM     13  C   UNL     1       8.690   8.112   6.990  0.00  0.00    +0.024 C 
ATOM     16  C   UNL     1      11.047   7.721   7.764  0.00  0.00    -0.023 C 
ATOM     17  C   UNL     1       9.777   7.287   7.662  0.00  0.00    -0.073 C 
ATOM     23  C   UNL     1       9.375   5.972   8.270  0.00  0.00    +0.039 C 
ENDROOT
BRANCH  10  14
ATOM     14  C   UNL     1       9.883  10.705   8.276  0.00  0.00    -0.013 C 
ATOM     19  C   UNL     1       9.060  11.949   7.955  0.00  0.00    +0.007 C 
ATOM     20  C   UNL     1      11.057  11.054   9.185  0.00  0.00    +0.007 C 
ENDBRANCH  10  14
BRANCH  11  15
ATOM     15  C   UNL     1      12.415   8.841   6.029  0.00  0.00    +0.092 C 
BRANCH  15   5
ATOM      2  O   UNL     1      18.245  10.828   5.038  0.00  0.00    -0.276 OA
ATOM      5  N   UNL     1      13.831   8.963   6.371  0.00  0.00    -0.299 NA
ATOM      6  N   UNL     1      16.615   9.376   5.830  0.00  0.00    -0.299 N 
ATOM     21  C   UNL     1      14.333  10.301   6.025  0.00  0.00    +0.103 C 
ATOM     22  C   UNL     1      14.620   7.926   5.688  0.00  0.00    +0.103 C 
ATOM     24  C   UNL     1      15.804  10.444   6.414  0.00  0.00    +0.123 C 
ATOM     25  C   UNL     1      16.099   8.024   6.064  0.00  0.00    +0.123 C 
ATOM     27  C   UNL     1      17.832   9.681   5.224  0.00  0.00    +0.213 C 
ATOM     29  C   UNL     1      18.673   8.512   4.775  0.00  0.00    +0.109 C 
ENDBRANCH  15   5
ENDBRANCH  11  15
BRANCH  13  18
ATOM     18  C   UNL     1       7.831   7.291   6.020  0.00  0.00    +0.105 C 
BRANCH  18  26
ATOM      1  O   UNL     1       9.518   6.387   4.506  0.00  0.00    -0.420 OA
ATOM      7  N   UNL     1       8.131   7.861   3.555  0.00  0.00    -0.112 NA
ATOM      8  N   UNL     1       9.026   7.433   2.592  0.00  0.00    -0.107 NA
ATOM     26  C   UNL     1       8.456   7.224   4.656  0.00  0.00    +0.218 A 
ATOM     28  C   UNL     1       9.816   6.574   3.192  0.00  0.00    +0.248 A 
BRANCH  28  30
ATOM     30  C   UNL     1      10.924   5.817   2.685  0.00  0.00    +0.039 A 
ATOM     31  C   UNL     1      10.813   4.435   2.532  0.00  0.00    +0.015 A 
ATOM     32  C   UNL     1      12.112   6.463   2.344  0.00  0.00    +0.015 A 
ATOM     33  C   UNL     1      11.890   3.699   2.040  0.00  0.00    +0.033 A 
ATOM     34  C   UNL     1      13.190   5.728   1.852  0.00  0.00    +0.033 A 
ATOM     35  C   UNL     1      13.079   4.345   1.700  0.00  0.00    +0.126 A 
BRANCH  35   9
ATOM      3  O   UNL     1      14.313   3.483  -0.047  0.00  0.00    -0.126 OA
ATOM      4  O   UNL     1      14.976   3.070   2.005  0.00  0.00    -0.126 OA
ATOM      9  N   UNL     1      14.176   3.596   1.195  0.00  0.00    +0.056 N 
ENDBRANCH  35   9
ENDBRANCH  28  30
ENDBRANCH  18  26
ENDBRANCH  13  18
TORSDOF 7
ENDMDL
MODEL 10
REMARK VINA RESULT:      -6.6     23.774     27.348
REMARK  Name = 45783985
REMARK  11 active torsions:
REMARK  status: ('A' for Active; 'I' for Inactive)
REMARK    1  A    between atoms: N_5  and  C_15
REMARK    2  A    between atoms: N_9  and  C_35
REMARK    3  A    between atoms: C_10  and  C_14
REMARK    4  A    between atoms: C_11  and  C_15
REMARK    5  A    between atoms: C_13  and  C_18
REMARK    6  A    between atoms: C_14  and  C_19
REMARK    7  A    between atoms: C_14  and  C_20
REMARK    8  A    between atoms: C_17  and  C_23
REMARK    9  A    between atoms: C_18  and  C_26
REMARK   10  A    between atoms: C_27  and  C_29
REMARK   11  A    between atoms: C_28  and  C_30
REMARK                            x       y       z     vdW  Elec       q    Type
REMARK                         _______ _______ _______ _____ _____    ______ ____
ROOT
ATOM     10  C   UNL     1       8.143   9.663   4.052  0.00  0.00    +0.000 C 
ATOM     11  C   UNL     1       9.250  10.215   4.979  0.00  0.00    +0.029 C 
ATOM     12  C   UNL     1       8.175   8.129   4.030  0.00  0.00    +0.012 C 
ATOM     13  C   UNL     1       8.035   7.494   5.431  0.00  0.00    +0.024 C 
ATOM     16  C   UNL     1       9.345   9.460   6.281  0.00  0.00    -0.023 C 
ATOM     17  C   UNL     1       8.798   8.252   6.507  0.00  0.00    -0.073 C 
ATOM     23  C   UNL     1       8.879   7.627   7.872  0.00  0.00    +0.039 C 
ENDROOT
BRANCH  10  14
ATOM     14  C   UNL     1       6.759  10.184   4.462  0.00  0.00    -0.013 C 
ATOM     19  C   UNL     1       5.758   9.982   3.329  0.00  0.00    +0.007 C 
ATOM     20  C   UNL     1       6.840  11.655   4.856  0.00  0.00    +0.007 C 
ENDBRANCH  10  14
BRANCH  11  15
ATOM     15  C   UNL     1      10.620  10.206   4.292  0.00  0.00    +0.092 C 
BRANCH  15   5
ATOM      2  O   UNL     1      16.098  11.483   6.990  0.00  0.00    -0.276 OA
ATOM      5  N   UNL     1      11.685   9.971   5.266  0.00  0.00    -0.299 NA
ATOM      6  N   UNL     1      14.358  10.115   6.287  0.00  0.00    -0.299 N 
ATOM     21  C   UNL     1      12.228  11.245   5.756  0.00  0.00    +0.103 C 
ATOM     22  C   UNL     1      12.753   9.150   4.676  0.00  0.00    +0.103 C 
ATOM     24  C   UNL     1      13.317  11.004   6.801  0.00  0.00    +0.123 C 
ATOM     25  C   UNL     1      13.857   8.870   5.697  0.00  0.00    +0.123 C 
ATOM     27  C   UNL     1      15.701  10.428   6.490  0.00  0.00    +0.213 C 
ATOM     29  C   UNL     1      16.708   9.391   6.058  0.00  0.00    +0.109 C 
ENDBRANCH  15   5
ENDBRANCH  11  15
BRANCH  13  18
ATOM     18  C   UNL     1       8.437   6.017   5.342  0.00  0.00    +0.105 C 
BRANCH  18  26
ATOM      1  O   UNL     1       9.762   5.239   3.446  0.00  0.00    -0.420 OA
ATOM      7  N   UNL     1      10.963   6.211   5.063  0.00  0.00    -0.112 NA
ATOM      8  N   UNL     1      11.832   5.822   4.060  0.00  0.00    -0.107 NA
ATOM     26  C   UNL     1       9.766   5.850   4.661  0.00  0.00    +0.218 A 
ATOM     28  C   UNL     1      11.087   5.259   3.138  0.00  0.00    +0.248 A 
BRANCH  28  30
ATOM     30  C   UNL     1      11.449   4.674   1.879  0.00  0.00    +0.039 A 
ATOM     31  C   UNL     1      10.687   4.940   0.742  0.00  0.00    +0.015 A 
ATOM     32  C   UNL     1      12.563   3.840   1.793  0.00  0.00    +0.015 A 
ATOM     33  C   UNL     1      11.038   4.371  -0.482  0.00  0.00    +0.033 A 
ATOM     34  C   UNL     1      12.915   3.270   0.569  0.00  0.00    +0.033 A 
ATOM     35  C   UNL     1      12.152   3.536  -0.568  0.00  0.00    +0.126 A 
BRANCH  35   9
ATOM      3  O   UNL     1      13.243   3.611  -2.598  0.00  0.00    -0.126 OA
ATOM      4  O   UNL     1      12.090   1.811  -2.098  0.00  0.00    -0.126 OA
ATOM      9  N   UNL     1      12.512   2.958  -1.815  0.00  0.00    +0.056 N 
ENDBRANCH  35   9
ENDBRANCH  28  30
ENDBRANCH  18  26
ENDBRANCH  13  18
TORSDOF 7
ENDMDL
