MODEL 1
REMARK VINA RESULT:      -7.1      0.000      0.000
REMARK  Name = 75536715
REMARK  9 active torsions:
REMARK  status: ('A' for Active; 'I' for Inactive)
REMARK    1  A    between atoms: S_1  and  N_7
REMARK    2  A    between atoms: S_1  and  C_17
REMARK    3  A    between atoms: O_3  and  C_11
REMARK    4  A    between atoms: N_6  and  C_10
REMARK    5  A    between atoms: N_6  and  C_15
REMARK    6  A    between atoms: N_7  and  C_14
REMARK    7  A    between atoms: C_12  and  C_14
REMARK    8  A    between atoms: C_15  and  C_16
REMARK    9  A    between atoms: C_24  and  C_25
REMARK                            x       y       z     vdW  Elec       q    Type
REMARK                         _______ _______ _______ _____ _____    ______ ____
ROOT
ATOM      2  O   UNL     1      16.660   8.544  21.689  0.00  0.00    -0.371 OA
ATOM     10  C   UNL     1      17.742   7.088  20.156  0.00  0.00    +0.111 C 
ATOM     11  C   UNL     1      16.343   6.567  20.431  0.00  0.00    +0.164 C 
ATOM     12  C   UNL     1      15.659   7.824  20.951  0.00  0.00    +0.164 C 
ATOM     13  C   UNL     1      17.953   8.021  21.338  0.00  0.00    +0.181 C 
ENDROOT
BRANCH  11   3
ATOM      3  O   UNL     1      15.710   6.064  19.271  0.00  0.00    -0.388 OA
ATOM     28  H   UNL     1      15.257   5.237  19.504  0.00  0.00    +0.210 HD
ENDBRANCH  11   3
BRANCH  10   6
ATOM      6  N   UNL     1      18.748   6.042  20.075  0.00  0.00    -0.304 NA
ATOM     26  H   UNL     1      18.891   5.795  19.095  0.00  0.00    +0.123 HD
BRANCH   6  15
ATOM     15  C   UNL     1      20.017   6.488  20.640  0.00  0.00    +0.136 C 
BRANCH  15  16
ATOM      8  N   UNL     1      21.051   4.197  20.441  0.00  0.00    -0.347 N 
ATOM      9  N   UNL     1      22.108   3.906  22.372  0.00  0.00    -0.244 NA
ATOM     16  C   UNL     1      20.832   5.337  21.164  0.00  0.00    +0.049 A 
ATOM     18  C   UNL     1      21.494   5.133  22.352  0.00  0.00    +0.134 A 
ATOM     21  C   UNL     1      21.822   3.368  21.207  0.00  0.00    +0.196 A 
ATOM     29  H   UNL     1      20.708   4.001  19.511  0.00  0.00    +0.167 HD
ENDBRANCH  15  16
ENDBRANCH   6  15
ENDBRANCH  10   6
BRANCH  12  14
ATOM     14  C   UNL     1      14.470   7.533  21.848  0.00  0.00    +0.140 C 
BRANCH  14   7
ATOM      7  N   UNL     1      13.667   6.439  21.267  0.00  0.00    -0.187 NA
ATOM     27  H   UNL     1      14.197   5.622  20.937  0.00  0.00    +0.148 HD
BRANCH   7   1
ATOM      1  S   UNL     1      12.165   6.776  20.542  0.00  0.00    +0.058 S 
ATOM      4  O   UNL     1      11.150   5.914  21.116  0.00  0.00    -0.153 OA
ATOM      5  O   UNL     1      12.339   6.841  19.103  0.00  0.00    -0.153 OA
BRANCH   1  17
ATOM     17  C   UNL     1      11.857   8.426  21.098  0.00  0.00    +0.105 A 
ATOM     19  C   UNL     1      11.123   8.642  22.264  0.00  0.00    +0.029 A 
ATOM     20  C   UNL     1      12.345   9.511  20.370  0.00  0.00    +0.029 A 
ATOM     22  C   UNL     1      10.878   9.944  22.702  0.00  0.00    +0.005 A 
ATOM     23  C   UNL     1      12.099  10.812  20.807  0.00  0.00    +0.005 A 
ATOM     24  C   UNL     1      11.365  11.029  21.973  0.00  0.00    -0.050 A 
ATOM     25  C   UNL     1      11.102  12.421  22.442  0.00  0.00    +0.044 C 
ENDBRANCH   1  17
ENDBRANCH   7   1
ENDBRANCH  14   7
ENDBRANCH  12  14
TORSDOF 8
ENDMDL
MODEL 2
REMARK VINA RESULT:      -6.9      1.536      2.168
REMARK  Name = 75536715
REMARK  9 active torsions:
REMARK  status: ('A' for Active; 'I' for Inactive)
REMARK    1  A    between atoms: S_1  and  N_7
REMARK    2  A    between atoms: S_1  and  C_17
REMARK    3  A    between atoms: O_3  and  C_11
REMARK    4  A    between atoms: N_6  and  C_10
REMARK    5  A    between atoms: N_6  and  C_15
REMARK    6  A    between atoms: N_7  and  C_14
REMARK    7  A    between atoms: C_12  and  C_14
REMARK    8  A    between atoms: C_15  and  C_16
REMARK    9  A    between atoms: C_24  and  C_25
REMARK                            x       y       z     vdW  Elec       q    Type
REMARK                         _______ _______ _______ _____ _____    ______ ____
ROOT
ATOM      2  O   UNL     1      16.141   6.125  18.930  0.00  0.00    -0.371 OA
ATOM     10  C   UNL     1      16.868   6.621  21.136  0.00  0.00    +0.111 C 
ATOM     11  C   UNL     1      15.531   7.294  20.894  0.00  0.00    +0.164 C 
ATOM     12  C   UNL     1      14.997   6.473  19.727  0.00  0.00    +0.164 C 
ATOM     13  C   UNL     1      17.327   6.342  19.714  0.00  0.00    +0.181 C 
ENDROOT
BRANCH  11   3
ATOM      3  O   UNL     1      14.675   7.230  22.018  0.00  0.00    -0.388 OA
ATOM     28  H   UNL     1      13.805   7.576  21.760  0.00  0.00    +0.210 HD
ENDBRANCH  11   3
BRANCH  10   6
ATOM      6  N   UNL     1      17.808   7.441  21.883  0.00  0.00    -0.304 NA
ATOM     26  H   UNL     1      17.915   7.053  22.820  0.00  0.00    +0.123 HD
BRANCH   6  15
ATOM     15  C   UNL     1      19.112   7.472  21.231  0.00  0.00    +0.136 C 
BRANCH  15  16
ATOM      8  N   UNL     1      20.706   5.519  21.325  0.00  0.00    -0.347 N 
ATOM      9  N   UNL     1      21.522   5.579  23.388  0.00  0.00    -0.244 NA
ATOM     16  C   UNL     1      20.110   6.589  21.932  0.00  0.00    +0.049 A 
ATOM     18  C   UNL     1      20.629   6.605  23.205  0.00  0.00    +0.134 A 
ATOM     21  C   UNL     1      21.545   4.945  22.237  0.00  0.00    +0.196 A 
ATOM     29  H   UNL     1      20.556   5.208  20.374  0.00  0.00    +0.167 HD
ENDBRANCH  15  16
ENDBRANCH   6  15
ENDBRANCH  10   6
BRANCH  12  14
ATOM     14  C   UNL     1      13.988   7.225  18.877  0.00  0.00    +0.140 C 
BRANCH  14   7
ATOM      7  N   UNL     1      13.315   8.251  19.697  0.00  0.00    -0.187 NA
ATOM     27  H   UNL     1      13.917   8.763  20.355  0.00  0.00    +0.148 HD
BRANCH   7   1
ATOM      1  S   UNL     1      11.661   8.099  20.065  0.00  0.00    +0.058 S 
ATOM      4  O   UNL     1      11.431   6.829  20.727  0.00  0.00    -0.153 OA
ATOM      5  O   UNL     1      10.882   8.467  18.898  0.00  0.00    -0.153 OA
BRANCH   1  17
ATOM     17  C   UNL     1      11.437   9.384  21.259  0.00  0.00    +0.105 A 
ATOM     19  C   UNL     1      11.814  10.692  20.955  0.00  0.00    +0.029 A 
ATOM     20  C   UNL     1      10.887   9.089  22.506  0.00  0.00    +0.029 A 
ATOM     22  C   UNL     1      11.639  11.705  21.898  0.00  0.00    +0.005 A 
ATOM     23  C   UNL     1      10.713  10.101  23.450  0.00  0.00    +0.005 A 
ATOM     24  C   UNL     1      11.090  11.410  23.146  0.00  0.00    -0.050 A 
ATOM     25  C   UNL     1      10.904  12.493  24.154  0.00  0.00    +0.044 C 
ENDBRANCH   1  17
ENDBRANCH   7   1
ENDBRANCH  14   7
ENDBRANCH  12  14
TORSDOF 8
ENDMDL
MODEL 3
REMARK VINA RESULT:      -6.8     28.942     31.766
REMARK  Name = 75536715
REMARK  9 active torsions:
REMARK  status: ('A' for Active; 'I' for Inactive)
REMARK    1  A    between atoms: S_1  and  N_7
REMARK    2  A    between atoms: S_1  and  C_17
REMARK    3  A    between atoms: O_3  and  C_11
REMARK    4  A    between atoms: N_6  and  C_10
REMARK    5  A    between atoms: N_6  and  C_15
REMARK    6  A    between atoms: N_7  and  C_14
REMARK    7  A    between atoms: C_12  and  C_14
REMARK    8  A    between atoms: C_15  and  C_16
REMARK    9  A    between atoms: C_24  and  C_25
REMARK                            x       y       z     vdW  Elec       q    Type
REMARK                         _______ _______ _______ _____ _____    ______ ____
ROOT
ATOM      2  O   UNL     1     -17.444   1.675  25.216  0.00  0.00    -0.371 OA
ATOM     10  C   UNL     1     -16.457   3.123  26.820  0.00  0.00    +0.111 C 
ATOM     11  C   UNL     1     -16.094   3.605  25.429  0.00  0.00    +0.164 C 
ATOM     12  C   UNL     1     -17.184   2.945  24.595  0.00  0.00    +0.164 C 
ATOM     13  C   UNL     1     -16.882   1.690  26.541  0.00  0.00    +0.181 C 
ENDROOT
BRANCH  11   3
ATOM      3  O   UNL     1     -16.124   5.015  25.313  0.00  0.00    -0.388 OA
ATOM     28  H   UNL     1     -17.052   5.298  25.268  0.00  0.00    +0.210 HD
ENDBRANCH  11   3
BRANCH  10   6
ATOM      6  N   UNL     1     -15.363   3.212  27.773  0.00  0.00    -0.304 NA
ATOM     26  H   UNL     1     -15.066   4.186  27.848  0.00  0.00    +0.123 HD
BRANCH   6  15
ATOM     15  C   UNL     1     -15.773   2.739  29.090  0.00  0.00    +0.136 C 
BRANCH  15  16
ATOM      8  N   UNL     1     -15.308   0.272  29.330  0.00  0.00    -0.347 N 
ATOM      9  N   UNL     1     -13.378   0.183  30.424  0.00  0.00    -0.244 NA
ATOM     16  C   UNL     1     -14.942   1.570  29.549  0.00  0.00    +0.049 A 
ATOM     18  C   UNL     1     -13.748   1.490  30.226  0.00  0.00    +0.134 A 
ATOM     21  C   UNL     1     -14.339  -0.524  29.872  0.00  0.00    +0.196 A 
ATOM     29  H   UNL     1     -16.142  -0.045  28.853  0.00  0.00    +0.167 HD
ENDBRANCH  15  16
ENDBRANCH   6  15
ENDBRANCH  10   6
BRANCH  12  14
ATOM     14  C   UNL     1     -16.786   2.735  23.145  0.00  0.00    +0.140 C 
BRANCH  14   7
ATOM      7  N   UNL     1     -15.835   3.786  22.734  0.00  0.00    -0.187 NA
ATOM     27  H   UNL     1     -15.016   3.911  23.343  0.00  0.00    +0.148 HD
BRANCH   7   1
ATOM      1  S   UNL     1     -16.377   5.119  21.826  0.00  0.00    +0.058 S 
ATOM      4  O   UNL     1     -17.087   6.037  22.696  0.00  0.00    -0.153 OA
ATOM      5  O   UNL     1     -17.001   4.638  20.608  0.00  0.00    -0.153 OA
BRANCH   1  17
ATOM     17  C   UNL     1     -14.852   5.881  21.357  0.00  0.00    +0.105 A 
ATOM     19  C   UNL     1     -14.851   6.932  20.440  0.00  0.00    +0.029 A 
ATOM     20  C   UNL     1     -13.650   5.428  21.901  0.00  0.00    +0.029 A 
ATOM     22  C   UNL     1     -13.647   7.531  20.068  0.00  0.00    +0.005 A 
ATOM     23  C   UNL     1     -12.447   6.027  21.529  0.00  0.00    +0.005 A 
ATOM     24  C   UNL     1     -12.445   7.078  20.612  0.00  0.00    -0.050 A 
ATOM     25  C   UNL     1     -11.158   7.720  20.214  0.00  0.00    +0.044 C 
ENDBRANCH   1  17
ENDBRANCH   7   1
ENDBRANCH  14   7
ENDBRANCH  12  14
TORSDOF 8
ENDMDL
MODEL 4
REMARK VINA RESULT:      -6.8      4.764      7.313
REMARK  Name = 75536715
REMARK  9 active torsions:
REMARK  status: ('A' for Active; 'I' for Inactive)
REMARK    1  A    between atoms: S_1  and  N_7
REMARK    2  A    between atoms: S_1  and  C_17
REMARK    3  A    between atoms: O_3  and  C_11
REMARK    4  A    between atoms: N_6  and  C_10
REMARK    5  A    between atoms: N_6  and  C_15
REMARK    6  A    between atoms: N_7  and  C_14
REMARK    7  A    between atoms: C_12  and  C_14
REMARK    8  A    between atoms: C_15  and  C_16
REMARK    9  A    between atoms: C_24  and  C_25
REMARK                            x       y       z     vdW  Elec       q    Type
REMARK                         _______ _______ _______ _____ _____    ______ ____
ROOT
ATOM      2  O   UNL     1      14.897   8.065  20.372  0.00  0.00    -0.371 OA
ATOM     10  C   UNL     1      12.942   7.553  21.620  0.00  0.00    +0.111 C 
ATOM     11  C   UNL     1      12.699   7.216  20.161  0.00  0.00    +0.164 C 
ATOM     12  C   UNL     1      14.128   7.090  19.648  0.00  0.00    +0.164 C 
ATOM     13  C   UNL     1      14.138   8.486  21.519  0.00  0.00    +0.181 C 
ENDROOT
BRANCH  11   3
ATOM      3  O   UNL     1      11.971   6.016  19.991  0.00  0.00    -0.388 OA
ATOM     28  H   UNL     1      11.511   5.817  20.823  0.00  0.00    +0.210 HD
ENDBRANCH  11   3
BRANCH  10   6
ATOM      6  N   UNL     1      11.799   8.169  22.275  0.00  0.00    -0.304 NA
ATOM     26  H   UNL     1      12.078   8.478  23.207  0.00  0.00    +0.123 HD
BRANCH   6  15
ATOM     15  C   UNL     1      11.316   9.318  21.518  0.00  0.00    +0.136 C 
BRANCH  15  16
ATOM      8  N   UNL     1      11.040  11.796  21.899  0.00  0.00    -0.347 N 
ATOM      9  N   UNL     1      10.838  11.991  24.101  0.00  0.00    -0.244 NA
ATOM     16  C   UNL     1      11.123  10.526  22.397  0.00  0.00    +0.049 A 
ATOM     18  C   UNL     1      10.996  10.672  23.758  0.00  0.00    +0.134 A 
ATOM     21  C   UNL     1      10.869  12.641  22.959  0.00  0.00    +0.196 A 
ATOM     29  H   UNL     1      11.095  12.064  20.925  0.00  0.00    +0.167 HD
ENDBRANCH  15  16
ENDBRANCH   6  15
ENDBRANCH  10   6
BRANCH  12  14
ATOM     14  C   UNL     1      14.254   7.343  18.156  0.00  0.00    +0.140 C 
BRANCH  14   7
ATOM      7  N   UNL     1      12.917   7.587  17.580  0.00  0.00    -0.187 NA
ATOM     27  H   UNL     1      12.306   6.763  17.504  0.00  0.00    +0.148 HD
BRANCH   7   1
ATOM      1  S   UNL     1      12.679   8.873  16.493  0.00  0.00    +0.058 S 
ATOM      4  O   UNL     1      11.266   9.195  16.431  0.00  0.00    -0.153 OA
ATOM      5  O   UNL     1      13.420   8.607  15.275  0.00  0.00    -0.153 OA
BRANCH   1  17
ATOM     17  C   UNL     1      13.505  10.202  17.318  0.00  0.00    +0.105 A 
ATOM     19  C   UNL     1      14.605  10.817  16.720  0.00  0.00    +0.029 A 
ATOM     20  C   UNL     1      13.058  10.631  18.567  0.00  0.00    +0.029 A 
ATOM     22  C   UNL     1      15.258  11.863  17.372  0.00  0.00    +0.005 A 
ATOM     23  C   UNL     1      13.712  11.677  19.219  0.00  0.00    +0.005 A 
ATOM     24  C   UNL     1      14.812  12.293  18.622  0.00  0.00    -0.050 A 
ATOM     25  C   UNL     1      15.511  13.411  19.319  0.00  0.00    +0.044 C 
ENDBRANCH   1  17
ENDBRANCH   7   1
ENDBRANCH  14   7
ENDBRANCH  12  14
TORSDOF 8
ENDMDL
MODEL 5
REMARK VINA RESULT:      -6.7      1.521      1.927
REMARK  Name = 75536715
REMARK  9 active torsions:
REMARK  status: ('A' for Active; 'I' for Inactive)
REMARK    1  A    between atoms: S_1  and  N_7
REMARK    2  A    between atoms: S_1  and  C_17
REMARK    3  A    between atoms: O_3  and  C_11
REMARK    4  A    between atoms: N_6  and  C_10
REMARK    5  A    between atoms: N_6  and  C_15
REMARK    6  A    between atoms: N_7  and  C_14
REMARK    7  A    between atoms: C_12  and  C_14
REMARK    8  A    between atoms: C_15  and  C_16
REMARK    9  A    between atoms: C_24  and  C_25
REMARK                            x       y       z     vdW  Elec       q    Type
REMARK                         _______ _______ _______ _____ _____    ______ ____
ROOT
ATOM      2  O   UNL     1      16.916   7.837  20.967  0.00  0.00    -0.371 OA
ATOM     10  C   UNL     1      18.451   6.407  19.852  0.00  0.00    +0.111 C 
ATOM     11  C   UNL     1      17.041   5.896  19.621  0.00  0.00    +0.164 C 
ATOM     12  C   UNL     1      16.224   7.147  19.913  0.00  0.00    +0.164 C 
ATOM     13  C   UNL     1      18.250   7.307  21.061  0.00  0.00    +0.181 C 
ENDROOT
BRANCH  11   3
ATOM      3  O   UNL     1      16.838   5.431  18.301  0.00  0.00    -0.388 OA
ATOM     28  H   UNL     1      16.694   4.471  18.334  0.00  0.00    +0.210 HD
ENDBRANCH  11   3
BRANCH  10   6
ATOM      6  N   UNL     1      19.423   5.353  20.088  0.00  0.00    -0.304 NA
ATOM     26  H   UNL     1      19.596   4.860  19.211  0.00  0.00    +0.123 HD
BRANCH   6  15
ATOM     15  C   UNL     1      20.681   5.899  20.582  0.00  0.00    +0.136 C 
BRANCH  15  16
ATOM      8  N   UNL     1      21.425   3.498  20.789  0.00  0.00    -0.347 N 
ATOM      9  N   UNL     1      23.631   3.627  21.008  0.00  0.00    -0.244 NA
ATOM     16  C   UNL     1      21.729   4.830  20.747  0.00  0.00    +0.049 A 
ATOM     18  C   UNL     1      23.096   4.884  20.884  0.00  0.00    +0.134 A 
ATOM     21  C   UNL     1      22.599   2.816  20.947  0.00  0.00    +0.196 A 
ATOM     29  H   UNL     1      20.503   3.090  20.716  0.00  0.00    +0.167 HD
ENDBRANCH  15  16
ENDBRANCH   6  15
ENDBRANCH  10   6
BRANCH  12  14
ATOM     14  C   UNL     1      14.799   6.847  20.345  0.00  0.00    +0.140 C 
BRANCH  14   7
ATOM      7  N   UNL     1      13.992   6.476  19.166  0.00  0.00    -0.187 NA
ATOM     27  H   UNL     1      14.257   5.598  18.701  0.00  0.00    +0.148 HD
BRANCH   7   1
ATOM      1  S   UNL     1      13.230   7.683  18.241  0.00  0.00    +0.058 S 
ATOM      4  O   UNL     1      12.082   7.114  17.560  0.00  0.00    -0.153 OA
ATOM      5  O   UNL     1      14.236   8.410  17.492  0.00  0.00    -0.153 OA
BRANCH   1  17
ATOM     17  C   UNL     1      12.632   8.777  19.495  0.00  0.00    +0.105 A 
ATOM     19  C   UNL     1      13.254  10.008  19.701  0.00  0.00    +0.029 A 
ATOM     20  C   UNL     1      11.540   8.407  20.280  0.00  0.00    +0.029 A 
ATOM     22  C   UNL     1      12.783  10.870  20.692  0.00  0.00    +0.005 A 
ATOM     23  C   UNL     1      11.070   9.268  21.272  0.00  0.00    +0.005 A 
ATOM     24  C   UNL     1      11.692  10.499  21.478  0.00  0.00    -0.050 A 
ATOM     25  C   UNL     1      11.189  11.421  22.538  0.00  0.00    +0.044 C 
ENDBRANCH   1  17
ENDBRANCH   7   1
ENDBRANCH  14   7
ENDBRANCH  12  14
TORSDOF 8
ENDMDL
MODEL 6
REMARK VINA RESULT:      -6.7      5.508      8.360
REMARK  Name = 75536715
REMARK  9 active torsions:
REMARK  status: ('A' for Active; 'I' for Inactive)
REMARK    1  A    between atoms: S_1  and  N_7
REMARK    2  A    between atoms: S_1  and  C_17
REMARK    3  A    between atoms: O_3  and  C_11
REMARK    4  A    between atoms: N_6  and  C_10
REMARK    5  A    between atoms: N_6  and  C_15
REMARK    6  A    between atoms: N_7  and  C_14
REMARK    7  A    between atoms: C_12  and  C_14
REMARK    8  A    between atoms: C_15  and  C_16
REMARK    9  A    between atoms: C_24  and  C_25
REMARK                            x       y       z     vdW  Elec       q    Type
REMARK                         _______ _______ _______ _____ _____    ______ ____
ROOT
ATOM      2  O   UNL     1      13.119   6.858  20.313  0.00  0.00    -0.371 OA
ATOM     10  C   UNL     1      10.970   7.696  20.878  0.00  0.00    +0.111 C 
ATOM     11  C   UNL     1      11.448   8.376  19.609  0.00  0.00    +0.164 C 
ATOM     12  C   UNL     1      12.504   7.391  19.128  0.00  0.00    +0.164 C 
ATOM     13  C   UNL     1      12.275   7.154  21.439  0.00  0.00    +0.181 C 
ENDROOT
BRANCH  11   3
ATOM      3  O   UNL     1      10.416   8.548  18.658  0.00  0.00    -0.388 OA
ATOM     28  H   UNL     1       9.871   9.305  18.931  0.00  0.00    +0.210 HD
ENDBRANCH  11   3
BRANCH  10   6
ATOM      6  N   UNL     1      10.288   8.591  21.798  0.00  0.00    -0.304 NA
ATOM     26  H   UNL     1       9.651   8.045  22.381  0.00  0.00    +0.123 HD
BRANCH   6  15
ATOM     15  C   UNL     1      11.238   9.286  22.658  0.00  0.00    +0.136 C 
BRANCH  15  16
ATOM      8  N   UNL     1      10.586  11.610  23.389  0.00  0.00    -0.347 N 
ATOM      9  N   UNL     1      11.319  12.923  21.756  0.00  0.00    -0.244 NA
ATOM     16  C   UNL     1      11.171  10.779  22.475  0.00  0.00    +0.049 A 
ATOM     18  C   UNL     1      11.616  11.612  21.476  0.00  0.00    +0.134 A 
ATOM     21  C   UNL     1      10.699  12.886  22.914  0.00  0.00    +0.196 A 
ATOM     29  H   UNL     1      10.149  11.333  24.258  0.00  0.00    +0.167 HD
ENDBRANCH  15  16
ENDBRANCH   6  15
ENDBRANCH  10   6
BRANCH  12  14
ATOM     14  C   UNL     1      13.562   8.028  18.243  0.00  0.00    +0.140 C 
BRANCH  14   7
ATOM      7  N   UNL     1      12.961   9.132  17.470  0.00  0.00    -0.187 NA
ATOM     27  H   UNL     1      12.042   9.457  17.797  0.00  0.00    +0.148 HD
BRANCH   7   1
ATOM      1  S   UNL     1      13.355   9.337  15.828  0.00  0.00    +0.058 S 
ATOM      4  O   UNL     1      12.221   9.912  15.130  0.00  0.00    -0.153 OA
ATOM      5  O   UNL     1      13.975   8.122  15.336  0.00  0.00    -0.153 OA
BRANCH   1  17
ATOM     17  C   UNL     1      14.624  10.566  15.912  0.00  0.00    +0.105 A 
ATOM     19  C   UNL     1      15.476  10.762  14.825  0.00  0.00    +0.029 A 
ATOM     20  C   UNL     1      14.774  11.336  17.065  0.00  0.00    +0.029 A 
ATOM     22  C   UNL     1      16.479  11.730  14.892  0.00  0.00    +0.005 A 
ATOM     23  C   UNL     1      15.777  12.303  17.132  0.00  0.00    +0.005 A 
ATOM     24  C   UNL     1      16.630  12.499  16.046  0.00  0.00    -0.050 A 
ATOM     25  C   UNL     1      17.703  13.534  16.116  0.00  0.00    +0.044 C 
ENDBRANCH   1  17
ENDBRANCH   7   1
ENDBRANCH  14   7
ENDBRANCH  12  14
TORSDOF 8
ENDMDL
MODEL 7
REMARK VINA RESULT:      -6.6     30.095     32.784
REMARK  Name = 75536715
REMARK  9 active torsions:
REMARK  status: ('A' for Active; 'I' for Inactive)
REMARK    1  A    between atoms: S_1  and  N_7
REMARK    2  A    between atoms: S_1  and  C_17
REMARK    3  A    between atoms: O_3  and  C_11
REMARK    4  A    between atoms: N_6  and  C_10
REMARK    5  A    between atoms: N_6  and  C_15
REMARK    6  A    between atoms: N_7  and  C_14
REMARK    7  A    between atoms: C_12  and  C_14
REMARK    8  A    between atoms: C_15  and  C_16
REMARK    9  A    between atoms: C_24  and  C_25
REMARK                            x       y       z     vdW  Elec       q    Type
REMARK                         _______ _______ _______ _____ _____    ______ ____
ROOT
ATOM      2  O   UNL     1     -17.071   2.844  27.657  0.00  0.00    -0.371 OA
ATOM     10  C   UNL     1     -16.660   2.568  25.334  0.00  0.00    +0.111 C 
ATOM     11  C   UNL     1     -16.618   1.209  26.009  0.00  0.00    +0.164 C 
ATOM     12  C   UNL     1     -17.395   1.493  27.287  0.00  0.00    +0.164 C 
ATOM     13  C   UNL     1     -16.479   3.499  26.522  0.00  0.00    +0.181 C 
ENDROOT
BRANCH  11   3
ATOM      3  O   UNL     1     -17.230   0.196  25.235  0.00  0.00    -0.388 OA
ATOM     28  H   UNL     1     -17.417  -0.561  25.815  0.00  0.00    +0.210 HD
ENDBRANCH  11   3
BRANCH  10   6
ATOM      6  N   UNL     1     -15.637   2.745  24.316  0.00  0.00    -0.304 NA
ATOM     26  H   UNL     1     -15.331   1.828  23.991  0.00  0.00    +0.123 HD
BRANCH   6  15
ATOM     15  C   UNL     1     -16.152   3.503  23.181  0.00  0.00    +0.136 C 
BRANCH  15  16
ATOM      8  N   UNL     1     -13.958   4.312  22.237  0.00  0.00    -0.347 N 
ATOM      9  N   UNL     1     -14.140   6.525  22.253  0.00  0.00    -0.244 NA
ATOM     16  C   UNL     1     -15.196   4.583  22.750  0.00  0.00    +0.049 A 
ATOM     18  C   UNL     1     -15.285   5.955  22.750  0.00  0.00    +0.134 A 
ATOM     21  C   UNL     1     -13.362   5.509  21.953  0.00  0.00    +0.196 A 
ATOM     29  H   UNL     1     -13.555   3.396  22.092  0.00  0.00    +0.167 HD
ENDBRANCH  15  16
ENDBRANCH   6  15
ENDBRANCH  10   6
BRANCH  12  14
ATOM     14  C   UNL     1     -17.043   0.551  28.425  0.00  0.00    +0.140 C 
BRANCH  14   7
ATOM      7  N   UNL     1     -15.624   0.726  28.793  0.00  0.00    -0.187 NA
ATOM     27  H   UNL     1     -14.983   0.930  28.015  0.00  0.00    +0.148 HD
BRANCH   7   1
ATOM      1  S   UNL     1     -14.999  -0.043  30.175  0.00  0.00    +0.058 S 
ATOM      4  O   UNL     1     -13.643  -0.483  29.909  0.00  0.00    -0.153 OA
ATOM      5  O   UNL     1     -15.985  -0.980  30.680  0.00  0.00    -0.153 OA
BRANCH   1  17
ATOM     17  C   UNL     1     -14.921   1.294  31.329  0.00  0.00    +0.105 A 
ATOM     19  C   UNL     1     -15.059   2.608  30.883  0.00  0.00    +0.029 A 
ATOM     20  C   UNL     1     -14.719   1.035  32.685  0.00  0.00    +0.029 A 
ATOM     22  C   UNL     1     -14.995   3.664  31.793  0.00  0.00    +0.005 A 
ATOM     23  C   UNL     1     -14.654   2.090  33.595  0.00  0.00    +0.005 A 
ATOM     24  C   UNL     1     -14.792   3.405  33.149  0.00  0.00    -0.050 A 
ATOM     25  C   UNL     1     -14.723   4.533  34.122  0.00  0.00    +0.044 C 
ENDBRANCH   1  17
ENDBRANCH   7   1
ENDBRANCH  14   7
ENDBRANCH  12  14
TORSDOF 8
ENDMDL
MODEL 8
REMARK VINA RESULT:      -6.6      3.222      8.901
REMARK  Name = 75536715
REMARK  9 active torsions:
REMARK  status: ('A' for Active; 'I' for Inactive)
REMARK    1  A    between atoms: S_1  and  N_7
REMARK    2  A    between atoms: S_1  and  C_17
REMARK    3  A    between atoms: O_3  and  C_11
REMARK    4  A    between atoms: N_6  and  C_10
REMARK    5  A    between atoms: N_6  and  C_15
REMARK    6  A    between atoms: N_7  and  C_14
REMARK    7  A    between atoms: C_12  and  C_14
REMARK    8  A    between atoms: C_15  and  C_16
REMARK    9  A    between atoms: C_24  and  C_25
REMARK                            x       y       z     vdW  Elec       q    Type
REMARK                         _______ _______ _______ _____ _____    ______ ____
ROOT
ATOM      2  O   UNL     1      11.047   7.446  22.190  0.00  0.00    -0.371 OA
ATOM     10  C   UNL     1      10.926   9.775  21.738  0.00  0.00    +0.111 C 
ATOM     11  C   UNL     1      12.087   9.180  20.964  0.00  0.00    +0.164 C 
ATOM     12  C   UNL     1      11.698   7.708  20.936  0.00  0.00    +0.164 C 
ATOM     13  C   UNL     1      10.685   8.703  22.789  0.00  0.00    +0.181 C 
ENDROOT
BRANCH  11   3
ATOM      3  O   UNL     1      12.208   9.717  19.661  0.00  0.00    -0.388 OA
ATOM     28  H   UNL     1      12.822  10.469  19.696  0.00  0.00    +0.210 HD
ENDBRANCH  11   3
BRANCH  10   6
ATOM      6  N   UNL     1      11.216  11.077  22.315  0.00  0.00    -0.304 NA
ATOM     26  H   UNL     1      10.473  11.728  22.055  0.00  0.00    +0.123 HD
BRANCH   6  15
ATOM     15  C   UNL     1      11.291  11.002  23.770  0.00  0.00    +0.136 C 
BRANCH  15  16
ATOM      8  N   UNL     1      10.640  12.483  25.704  0.00  0.00    -0.347 N 
ATOM      9  N   UNL     1      10.869  14.546  24.914  0.00  0.00    -0.244 NA
ATOM     16  C   UNL     1      11.064  12.345  24.412  0.00  0.00    +0.049 A 
ATOM     18  C   UNL     1      11.198  13.631  23.945  0.00  0.00    +0.134 A 
ATOM     21  C   UNL     1      10.538  13.822  25.960  0.00  0.00    +0.196 A 
ATOM     29  H   UNL     1      10.439  11.735  26.354  0.00  0.00    +0.167 HD
ENDBRANCH  15  16
ENDBRANCH   6  15
ENDBRANCH  10   6
BRANCH  12  14
ATOM     14  C   UNL     1      12.886   6.776  20.770  0.00  0.00    +0.140 C 
BRANCH  14   7
ATOM      7  N   UNL     1      14.139   7.548  20.873  0.00  0.00    -0.187 NA
ATOM     27  H   UNL     1      14.211   8.178  21.683  0.00  0.00    +0.148 HD
BRANCH   7   1
ATOM      1  S   UNL     1      15.024   7.929  19.471  0.00  0.00    +0.058 S 
ATOM      4  O   UNL     1      15.254   9.361  19.423  0.00  0.00    -0.153 OA
ATOM      5  O   UNL     1      14.430   7.247  18.338  0.00  0.00    -0.153 OA
BRANCH   1  17
ATOM     17  C   UNL     1      16.572   7.139  19.795  0.00  0.00    +0.105 A 
ATOM     19  C   UNL     1      16.962   6.033  19.040  0.00  0.00    +0.029 A 
ATOM     20  C   UNL     1      17.403   7.621  20.807  0.00  0.00    +0.029 A 
ATOM     22  C   UNL     1      18.182   5.409  19.296  0.00  0.00    +0.005 A 
ATOM     23  C   UNL     1      18.623   6.996  21.064  0.00  0.00    +0.005 A 
ATOM     24  C   UNL     1      19.013   5.889  20.310  0.00  0.00    -0.050 A 
ATOM     25  C   UNL     1      20.318   5.221  20.584  0.00  0.00    +0.044 C 
ENDBRANCH   1  17
ENDBRANCH   7   1
ENDBRANCH  14   7
ENDBRANCH  12  14
TORSDOF 8
ENDMDL
MODEL 9
REMARK VINA RESULT:      -6.5     28.866     32.173
REMARK  Name = 75536715
REMARK  9 active torsions:
REMARK  status: ('A' for Active; 'I' for Inactive)
REMARK    1  A    between atoms: S_1  and  N_7
REMARK    2  A    between atoms: S_1  and  C_17
REMARK    3  A    between atoms: O_3  and  C_11
REMARK    4  A    between atoms: N_6  and  C_10
REMARK    5  A    between atoms: N_6  and  C_15
REMARK    6  A    between atoms: N_7  and  C_14
REMARK    7  A    between atoms: C_12  and  C_14
REMARK    8  A    between atoms: C_15  and  C_16
REMARK    9  A    between atoms: C_24  and  C_25
REMARK                            x       y       z     vdW  Elec       q    Type
REMARK                         _______ _______ _______ _____ _____    ______ ____
ROOT
ATOM      2  O   UNL     1     -17.300   5.501  24.563  0.00  0.00    -0.371 OA
ATOM     10  C   UNL     1     -15.986   4.158  23.109  0.00  0.00    +0.111 C 
ATOM     11  C   UNL     1     -15.749   3.715  24.541  0.00  0.00    +0.164 C 
ATOM     12  C   UNL     1     -16.992   4.264  25.227  0.00  0.00    +0.164 C 
ATOM     13  C   UNL     1     -16.582   5.541  23.317  0.00  0.00    +0.181 C 
ENDROOT
BRANCH  11   3
ATOM      3  O   UNL     1     -15.653   2.310  24.669  0.00  0.00    -0.388 OA
ATOM     28  H   UNL     1     -16.307   2.018  25.326  0.00  0.00    +0.210 HD
ENDBRANCH  11   3
BRANCH  10   6
ATOM      6  N   UNL     1     -14.781   4.178  22.297  0.00  0.00    -0.304 NA
ATOM     26  H   UNL     1     -15.032   4.417  21.337  0.00  0.00    +0.123 HD
BRANCH   6  15
ATOM     15  C   UNL     1     -13.827   5.162  22.796  0.00  0.00    +0.136 C 
BRANCH  15  16
ATOM      8  N   UNL     1     -12.019   6.010  21.257  0.00  0.00    -0.347 N 
ATOM      9  N   UNL     1     -13.025   7.569  20.038  0.00  0.00    -0.244 NA
ATOM     16  C   UNL     1     -13.312   6.051  21.695  0.00  0.00    +0.049 A 
ATOM     18  C   UNL     1     -13.914   7.021  20.928  0.00  0.00    +0.134 A 
ATOM     21  C   UNL     1     -11.894   6.938  20.262  0.00  0.00    +0.196 A 
ATOM     29  H   UNL     1     -11.286   5.404  21.602  0.00  0.00    +0.167 HD
ENDBRANCH  15  16
ENDBRANCH   6  15
ENDBRANCH  10   6
BRANCH  12  14
ATOM     14  C   UNL     1     -16.797   4.514  26.713  0.00  0.00    +0.140 C 
BRANCH  14   7
ATOM      7  N   UNL     1     -16.019   3.407  27.303  0.00  0.00    -0.187 NA
ATOM     27  H   UNL     1     -15.062   3.293  26.945  0.00  0.00    +0.148 HD
BRANCH   7   1
ATOM      1  S   UNL     1     -16.818   2.041  27.926  0.00  0.00    +0.058 S 
ATOM      4  O   UNL     1     -16.399   0.862  27.191  0.00  0.00    -0.153 OA
ATOM      5  O   UNL     1     -18.228   2.345  28.075  0.00  0.00    -0.153 OA
BRANCH   1  17
ATOM     17  C   UNL     1     -16.138   1.936  29.555  0.00  0.00    +0.105 A 
ATOM     19  C   UNL     1     -16.195   3.040  30.406  0.00  0.00    +0.029 A 
ATOM     20  C   UNL     1     -15.543   0.752  29.988  0.00  0.00    +0.029 A 
ATOM     22  C   UNL     1     -15.657   2.959  31.691  0.00  0.00    +0.005 A 
ATOM     23  C   UNL     1     -15.004   0.670  31.272  0.00  0.00    +0.005 A 
ATOM     24  C   UNL     1     -15.060   1.774  32.123  0.00  0.00    -0.050 A 
ATOM     25  C   UNL     1     -14.485   1.687  33.497  0.00  0.00    +0.044 C 
ENDBRANCH   1  17
ENDBRANCH   7   1
ENDBRANCH  14   7
ENDBRANCH  12  14
TORSDOF 8
ENDMDL
MODEL 10
REMARK VINA RESULT:      -6.5     26.483     29.194
REMARK  Name = 75536715
REMARK  9 active torsions:
REMARK  status: ('A' for Active; 'I' for Inactive)
REMARK    1  A    between atoms: S_1  and  N_7
REMARK    2  A    between atoms: S_1  and  C_17
REMARK    3  A    between atoms: O_3  and  C_11
REMARK    4  A    between atoms: N_6  and  C_10
REMARK    5  A    between atoms: N_6  and  C_15
REMARK    6  A    between atoms: N_7  and  C_14
REMARK    7  A    between atoms: C_12  and  C_14
REMARK    8  A    between atoms: C_15  and  C_16
REMARK    9  A    between atoms: C_24  and  C_25
REMARK                            x       y       z     vdW  Elec       q    Type
REMARK                         _______ _______ _______ _____ _____    ______ ____
ROOT
ATOM      2  O   UNL     1      -5.762 -11.709  18.294  0.00  0.00    -0.371 OA
ATOM     10  C   UNL     1      -7.442 -10.192  17.575  0.00  0.00    +0.111 C 
ATOM     11  C   UNL     1      -6.135  -9.843  16.889  0.00  0.00    +0.164 C 
ATOM     12  C   UNL     1      -5.372 -11.154  17.027  0.00  0.00    +0.164 C 
ATOM     13  C   UNL     1      -6.955 -11.039  18.739  0.00  0.00    +0.181 C 
ENDROOT
BRANCH  11   3
ATOM      3  O   UNL     1      -6.309  -9.476  15.535  0.00  0.00    -0.388 OA
ATOM     28  H   UNL     1      -5.526  -8.977  15.250  0.00  0.00    +0.210 HD
ENDBRANCH  11   3
BRANCH  10   6
ATOM      6  N   UNL     1      -8.205  -9.031  18.001  0.00  0.00    -0.304 NA
ATOM     26  H   UNL     1      -7.880  -8.213  17.486  0.00  0.00    +0.123 HD
BRANCH   6  15
ATOM     15  C   UNL     1      -9.629  -9.216  17.747  0.00  0.00    +0.136 C 
BRANCH  15  16
ATOM      8  N   UNL     1     -10.500  -6.938  17.103  0.00  0.00    -0.347 N 
ATOM      9  N   UNL     1     -10.889  -7.099  14.923  0.00  0.00    -0.244 NA
ATOM     16  C   UNL     1     -10.156  -8.214  16.754  0.00  0.00    +0.049 A 
ATOM     18  C   UNL     1     -10.405  -8.290  15.404  0.00  0.00    +0.134 A 
ATOM     21  C   UNL     1     -10.934  -6.307  15.971  0.00  0.00    +0.196 A 
ATOM     29  H   UNL     1     -10.444  -6.533  18.027  0.00  0.00    +0.167 HD
ENDBRANCH  15  16
ENDBRANCH   6  15
ENDBRANCH  10   6
BRANCH  12  14
ATOM     14  C   UNL     1      -3.864 -10.979  16.984  0.00  0.00    +0.140 C 
BRANCH  14   7
ATOM      7  N   UNL     1      -3.485 -10.243  15.763  0.00  0.00    -0.187 NA
ATOM     27  H   UNL     1      -4.238  -9.704  15.314  0.00  0.00    +0.148 HD
BRANCH   7   1
ATOM      1  S   UNL     1      -2.202 -10.799  14.795  0.00  0.00    +0.058 S 
ATOM      4  O   UNL     1      -2.122 -12.245  14.886  0.00  0.00    -0.153 OA
ATOM      5  O   UNL     1      -1.029  -9.986  15.053  0.00  0.00    -0.153 OA
BRANCH   1  17
ATOM     17  C   UNL     1      -2.768 -10.386  13.172  0.00  0.00    +0.105 A 
ATOM     19  C   UNL     1      -1.848 -10.058  12.176  0.00  0.00    +0.029 A 
ATOM     20  C   UNL     1      -4.133 -10.385  12.888  0.00  0.00    +0.029 A 
ATOM     22  C   UNL     1      -2.294  -9.729  10.895  0.00  0.00    +0.005 A 
ATOM     23  C   UNL     1      -4.580 -10.056  11.609  0.00  0.00    +0.005 A 
ATOM     24  C   UNL     1      -3.661  -9.727  10.612  0.00  0.00    -0.050 A 
ATOM     25  C   UNL     1      -4.137  -9.376   9.243  0.00  0.00    +0.044 C 
ENDBRANCH   1  17
ENDBRANCH   7   1
ENDBRANCH  14   7
ENDBRANCH  12  14
TORSDOF 8
ENDMDL
