MODEL 1
REMARK VINA RESULT:      -7.3      0.000      0.000
REMARK  Name = 7674049
REMARK  7 active torsions:
REMARK  status: ('A' for Active; 'I' for Inactive)
REMARK    1  A    between atoms: S_1  and  N_11
REMARK    2  A    between atoms: S_1  and  C_24
REMARK    3  A    between atoms: S_2  and  C_25
REMARK    4  A    between atoms: S_2  and  C_30
REMARK    5  A    between atoms: N_13  and  C_20
REMARK    6  A    between atoms: C_15  and  C_19
REMARK    7  A    between atoms: C_22  and  C_25
REMARK                            x       y       z     vdW  Elec       q    Type
REMARK                         _______ _______ _______ _____ _____    ______ ____
ROOT
ATOM      7  O   UNL     1     -10.125  -6.018  15.403  0.00  0.00    -0.274 OA
ATOM     11  N   UNL     1     -10.064 -10.327  17.967  0.00  0.00    -0.162 NA
ATOM     12  N   UNL     1     -10.710  -7.783  16.802  0.00  0.00    -0.297 N 
ATOM     15  C   UNL     1      -8.996  -9.520  17.314  0.00  0.00    +0.183 C 
ATOM     16  C   UNL     1      -9.333  -8.033  17.230  0.00  0.00    +0.138 C 
ATOM     17  C   UNL     1     -11.208  -9.538  18.493  0.00  0.00    +0.129 C 
ATOM     18  C   UNL     1     -11.744  -8.641  17.386  0.00  0.00    +0.125 C 
ATOM     22  C   UNL     1     -10.984  -6.750  15.904  0.00  0.00    +0.237 C 
ENDROOT
BRANCH  15  19
ATOM      6  O   UNL     1      -9.694 -10.898  15.497  0.00  0.00    -0.274 OA
ATOM     13  N   UNL     1      -7.695  -9.719  15.317  0.00  0.00    -0.303 N 
ATOM     19  C   UNL     1      -8.857 -10.122  15.951  0.00  0.00    +0.234 C 
ATOM     39  H   UNL     1      -7.089  -9.045  15.777  0.00  0.00    +0.149 HD
BRANCH  13  20
ATOM      8  O   UNL     1      -5.053 -10.234  14.843  0.00  0.00    -0.274 OA
ATOM     14  N   UNL     1      -5.311  -9.822  12.611  0.00  0.00    -0.314 N 
ATOM     20  C   UNL     1      -7.316 -10.174  14.004  0.00  0.00    +0.159 C 
ATOM     21  C   UNL     1      -8.098  -9.435  12.927  0.00  0.00    +0.033 C 
ATOM     23  C   UNL     1      -7.554  -9.808  11.556  0.00  0.00    +0.021 C 
ATOM     26  C   UNL     1      -5.801 -10.045  13.881  0.00  0.00    +0.233 C 
ATOM     27  C   UNL     1      -6.099  -9.390  11.471  0.00  0.00    +0.104 C 
ATOM     40  H   UNL     1      -4.302  -9.791  12.508  0.00  0.00    +0.149 HD
ENDBRANCH  13  20
ENDBRANCH  15  19
BRANCH  11   1
ATOM      1  S   UNL     1      -9.550 -11.643  18.933  0.00  0.00    +0.062 S 
ATOM      4  O   UNL     1     -10.038 -12.876  18.354  0.00  0.00    -0.153 OA
ATOM      5  O   UNL     1      -9.791 -11.327  20.325  0.00  0.00    -0.153 OA
BRANCH   1  24
ATOM      3  F   UNL     1      -3.735 -11.394  17.998  0.00  0.00    -0.205 F 
ATOM     24  C   UNL     1      -7.807 -11.568  18.653  0.00  0.00    +0.106 A 
ATOM     28  C   UNL     1      -7.207 -12.457  17.762  0.00  0.00    +0.031 A 
ATOM     29  C   UNL     1      -7.034 -10.622  19.323  0.00  0.00    +0.031 A 
ATOM     31  C   UNL     1      -5.831 -12.397  17.540  0.00  0.00    +0.040 A 
ATOM     32  C   UNL     1      -5.658 -10.562  19.102  0.00  0.00    +0.040 A 
ATOM     33  C   UNL     1      -5.056 -11.450  18.210  0.00  0.00    +0.124 A 
ENDBRANCH   1  24
ENDBRANCH  11   1
BRANCH  22  25
ATOM     25  C   UNL     1     -12.437  -6.545  15.552  0.00  0.00    +0.267 C 
BRANCH  25   2
ATOM      2  S   UNL     1     -12.748  -7.239  13.973  0.00  0.00    +0.005 S 
ATOM      9  O   UNL     1     -14.151  -7.622  13.885  0.00  0.00    -0.169 OA
ATOM     10  O   UNL     1     -11.711  -8.223  13.693  0.00  0.00    -0.169 OA
BRANCH   2  30
ATOM     30  C   UNL     1     -12.521  -5.891  12.846  0.00  0.00    +0.089 A 
ATOM     34  C   UNL     1     -12.338  -6.142  11.486  0.00  0.00    +0.027 A 
ATOM     35  C   UNL     1     -12.526  -4.578  13.318  0.00  0.00    +0.027 A 
ATOM     36  C   UNL     1     -12.158  -5.081  10.599  0.00  0.00    +0.002 A 
ATOM     37  C   UNL     1     -12.347  -3.516  12.431  0.00  0.00    +0.002 A 
ATOM     38  C   UNL     1     -12.163  -3.768  11.071  0.00  0.00    +0.000 A 
ENDBRANCH   2  30
ENDBRANCH  25   2
ENDBRANCH  22  25
TORSDOF 7
ENDMDL
MODEL 2
REMARK VINA RESULT:      -7.3     27.347     30.821
REMARK  Name = 7674049
REMARK  7 active torsions:
REMARK  status: ('A' for Active; 'I' for Inactive)
REMARK    1  A    between atoms: S_1  and  N_11
REMARK    2  A    between atoms: S_1  and  C_24
REMARK    3  A    between atoms: S_2  and  C_25
REMARK    4  A    between atoms: S_2  and  C_30
REMARK    5  A    between atoms: N_13  and  C_20
REMARK    6  A    between atoms: C_15  and  C_19
REMARK    7  A    between atoms: C_22  and  C_25
REMARK                            x       y       z     vdW  Elec       q    Type
REMARK                         _______ _______ _______ _____ _____    ______ ____
ROOT
ATOM      7  O   UNL     1      14.134   9.898   6.690  0.00  0.00    -0.274 OA
ATOM     11  N   UNL     1      12.018   6.608   3.552  0.00  0.00    -0.162 NA
ATOM     12  N   UNL     1      13.797   8.341   4.995  0.00  0.00    -0.297 N 
ATOM     15  C   UNL     1      11.462   7.675   4.431  0.00  0.00    +0.183 C 
ATOM     16  C   UNL     1      12.446   8.813   4.691  0.00  0.00    +0.138 C 
ATOM     17  C   UNL     1      13.379   6.884   3.023  0.00  0.00    +0.129 C 
ATOM     18  C   UNL     1      14.303   7.232   4.181  0.00  0.00    +0.125 C 
ATOM     22  C   UNL     1      14.544   8.964   5.996  0.00  0.00    +0.237 C 
ENDROOT
BRANCH  15  19
ATOM      6  O   UNL     1      11.921   6.814   6.606  0.00  0.00    -0.274 OA
ATOM     13  N   UNL     1       9.802   6.504   5.693  0.00  0.00    -0.303 N 
ATOM     19  C   UNL     1      11.107   6.965   5.699  0.00  0.00    +0.234 C 
ATOM     39  H   UNL     1       9.206   6.716   4.898  0.00  0.00    +0.149 HD
BRANCH  13  20
ATOM      8  O   UNL     1       8.438   7.902   7.605  0.00  0.00    -0.274 OA
ATOM     14  N   UNL     1       8.867   6.295   9.171  0.00  0.00    -0.314 N 
ATOM     20  C   UNL     1       9.222   5.770   6.787  0.00  0.00    +0.159 C 
ATOM     21  C   UNL     1      10.154   4.660   7.252  0.00  0.00    +0.033 C 
ATOM     23  C   UNL     1       9.596   4.019   8.513  0.00  0.00    +0.021 C 
ATOM     26  C   UNL     1       8.843   6.769   7.876  0.00  0.00    +0.233 C 
ATOM     27  C   UNL     1       9.510   5.068   9.605  0.00  0.00    +0.104 C 
ATOM     40  H   UNL     1       8.563   6.934   9.899  0.00  0.00    +0.149 HD
ENDBRANCH  13  20
ENDBRANCH  15  19
BRANCH  11   1
ATOM      1  S   UNL     1      10.927   5.857   2.470  0.00  0.00    +0.062 S 
ATOM      4  O   UNL     1      10.141   6.876   1.807  0.00  0.00    -0.153 OA
ATOM      5  O   UNL     1      10.290   4.743   3.140  0.00  0.00    -0.153 OA
BRANCH   1  24
ATOM      3  F   UNL     1      14.727   3.668  -1.470  0.00  0.00    -0.205 F 
ATOM     24  C   UNL     1      12.066   5.201   1.289  0.00  0.00    +0.106 A 
ATOM     28  C   UNL     1      12.767   4.030   1.574  0.00  0.00    +0.031 A 
ATOM     29  C   UNL     1      12.263   5.855   0.074  0.00  0.00    +0.031 A 
ATOM     31  C   UNL     1      13.665   3.512   0.642  0.00  0.00    +0.040 A 
ATOM     32  C   UNL     1      13.162   5.337  -0.859  0.00  0.00    +0.040 A 
ATOM     33  C   UNL     1      13.863   4.165  -0.575  0.00  0.00    +0.124 A 
ENDBRANCH   1  24
ENDBRANCH  11   1
BRANCH  22  25
ATOM     25  C   UNL     1      15.940   8.432   6.211  0.00  0.00    +0.267 C 
BRANCH  25   2
ATOM      2  S   UNL     1      17.096   9.581   5.571  0.00  0.00    +0.005 S 
ATOM      9  O   UNL     1      17.245  10.686   6.509  0.00  0.00    -0.169 OA
ATOM     10  O   UNL     1      16.750   9.855   4.182  0.00  0.00    -0.169 OA
BRANCH   2  30
ATOM     30  C   UNL     1      18.636   8.706   5.574  0.00  0.00    +0.089 A 
ATOM     34  C   UNL     1      19.051   8.018   4.433  0.00  0.00    +0.027 A 
ATOM     35  C   UNL     1      19.435   8.703   6.718  0.00  0.00    +0.027 A 
ATOM     36  C   UNL     1      20.263   7.328   4.436  0.00  0.00    +0.002 A 
ATOM     37  C   UNL     1      20.648   8.013   6.721  0.00  0.00    +0.002 A 
ATOM     38  C   UNL     1      21.062   7.325   5.580  0.00  0.00    +0.000 A 
ENDBRANCH   2  30
ENDBRANCH  25   2
ENDBRANCH  22  25
TORSDOF 7
ENDMDL
MODEL 3
REMARK VINA RESULT:      -7.2     27.513     30.641
REMARK  Name = 7674049
REMARK  7 active torsions:
REMARK  status: ('A' for Active; 'I' for Inactive)
REMARK    1  A    between atoms: S_1  and  N_11
REMARK    2  A    between atoms: S_1  and  C_24
REMARK    3  A    between atoms: S_2  and  C_25
REMARK    4  A    between atoms: S_2  and  C_30
REMARK    5  A    between atoms: N_13  and  C_20
REMARK    6  A    between atoms: C_15  and  C_19
REMARK    7  A    between atoms: C_22  and  C_25
REMARK                            x       y       z     vdW  Elec       q    Type
REMARK                         _______ _______ _______ _____ _____    ______ ____
ROOT
ATOM      7  O   UNL     1      14.779  11.113   4.928  0.00  0.00    -0.274 OA
ATOM     11  N   UNL     1      11.123   7.699   5.290  0.00  0.00    -0.162 NA
ATOM     12  N   UNL     1      13.602   9.106   4.934  0.00  0.00    -0.297 N 
ATOM     15  C   UNL     1      11.117   9.179   5.119  0.00  0.00    +0.183 C 
ATOM     16  C   UNL     1      12.370   9.710   4.427  0.00  0.00    +0.138 C 
ATOM     17  C   UNL     1      12.290   7.008   4.682  0.00  0.00    +0.129 C 
ATOM     18  C   UNL     1      13.571   7.662   5.180  0.00  0.00    +0.125 C 
ATOM     22  C   UNL     1      14.736   9.897   5.131  0.00  0.00    +0.237 C 
ENDROOT
BRANCH  15  19
ATOM      6  O   UNL     1      11.526   9.147   7.469  0.00  0.00    -0.274 OA
ATOM     13  N   UNL     1      10.234  10.863   6.571  0.00  0.00    -0.303 N 
ATOM     19  C   UNL     1      11.000   9.712   6.512  0.00  0.00    +0.234 C 
ATOM     39  H   UNL     1       9.875  11.262   5.707  0.00  0.00    +0.149 HD
BRANCH  13  20
ATOM      8  O   UNL     1      11.987  12.794   7.389  0.00  0.00    -0.274 OA
ATOM     14  N   UNL     1      11.386  12.497   9.573  0.00  0.00    -0.314 N 
ATOM     20  C   UNL     1       9.952  11.560   7.798  0.00  0.00    +0.159 C 
ATOM     21  C   UNL     1       9.406  10.606   8.852  0.00  0.00    +0.033 C 
ATOM     23  C   UNL     1       9.285  11.331  10.183  0.00  0.00    +0.021 C 
ATOM     26  C   UNL     1      11.216  12.303   8.218  0.00  0.00    +0.233 C 
ATOM     27  C   UNL     1      10.660  11.800  10.619  0.00  0.00    +0.104 C 
ATOM     40  H   UNL     1      12.194  13.040   9.861  0.00  0.00    +0.149 HD
ENDBRANCH  13  20
ENDBRANCH  15  19
BRANCH  11   1
ATOM      1  S   UNL     1       9.617   6.903   5.144  0.00  0.00    +0.062 S 
ATOM      4  O   UNL     1       9.727   5.858   4.148  0.00  0.00    -0.153 OA
ATOM      5  O   UNL     1       8.565   7.894   5.069  0.00  0.00    -0.153 OA
BRANCH   1  24
ATOM      3  F   UNL     1       9.301   4.322  10.435  0.00  0.00    -0.205 F 
ATOM     24  C   UNL     1       9.522   6.129   6.729  0.00  0.00    +0.106 A 
ATOM     28  C   UNL     1       9.929   4.804   6.884  0.00  0.00    +0.031 A 
ATOM     29  C   UNL     1       9.040   6.844   7.825  0.00  0.00    +0.031 A 
ATOM     31  C   UNL     1       9.855   4.194   8.135  0.00  0.00    +0.040 A 
ATOM     32  C   UNL     1       8.966   6.233   9.077  0.00  0.00    +0.040 A 
ATOM     33  C   UNL     1       9.373   4.909   9.233  0.00  0.00    +0.124 A 
ENDBRANCH   1  24
ENDBRANCH  11   1
BRANCH  22  25
ATOM     25  C   UNL     1      15.969   9.177   5.620  0.00  0.00    +0.267 C 
BRANCH  25   2
ATOM      2  S   UNL     1      17.068   8.943   4.276  0.00  0.00    +0.005 S 
ATOM      9  O   UNL     1      17.322  10.226   3.634  0.00  0.00    -0.169 OA
ATOM     10  O   UNL     1      16.587   7.821   3.481  0.00  0.00    -0.169 OA
BRANCH   2  30
ATOM     30  C   UNL     1      18.591   8.447   5.033  0.00  0.00    +0.089 A 
ATOM     34  C   UNL     1      18.861   8.802   6.356  0.00  0.00    +0.027 A 
ATOM     35  C   UNL     1      19.521   7.702   4.308  0.00  0.00    +0.027 A 
ATOM     36  C   UNL     1      20.061   8.412   6.951  0.00  0.00    +0.002 A 
ATOM     37  C   UNL     1      20.721   7.312   4.903  0.00  0.00    +0.002 A 
ATOM     38  C   UNL     1      20.991   7.667   6.225  0.00  0.00    +0.000 A 
ENDBRANCH   2  30
ENDBRANCH  25   2
ENDBRANCH  22  25
TORSDOF 7
ENDMDL
MODEL 4
REMARK VINA RESULT:      -7.2     27.554     30.750
REMARK  Name = 7674049
REMARK  7 active torsions:
REMARK  status: ('A' for Active; 'I' for Inactive)
REMARK    1  A    between atoms: S_1  and  N_11
REMARK    2  A    between atoms: S_1  and  C_24
REMARK    3  A    between atoms: S_2  and  C_25
REMARK    4  A    between atoms: S_2  and  C_30
REMARK    5  A    between atoms: N_13  and  C_20
REMARK    6  A    between atoms: C_15  and  C_19
REMARK    7  A    between atoms: C_22  and  C_25
REMARK                            x       y       z     vdW  Elec       q    Type
REMARK                         _______ _______ _______ _____ _____    ______ ____
ROOT
ATOM      7  O   UNL     1      16.333   7.758   6.128  0.00  0.00    -0.274 OA
ATOM     11  N   UNL     1      11.396   8.481   5.637  0.00  0.00    -0.162 NA
ATOM     12  N   UNL     1      14.192   8.657   6.267  0.00  0.00    -0.297 N 
ATOM     15  C   UNL     1      12.266   7.282   5.484  0.00  0.00    +0.183 C 
ATOM     16  C   UNL     1      13.537   7.350   6.326  0.00  0.00    +0.138 C 
ATOM     17  C   UNL     1      11.872   9.472   6.637  0.00  0.00    +0.129 C 
ATOM     18  C   UNL     1      13.319   9.832   6.331  0.00  0.00    +0.125 C 
ATOM     22  C   UNL     1      15.584   8.736   6.183  0.00  0.00    +0.237 C 
ENDROOT
BRANCH  15  19
ATOM      6  O   UNL     1      12.699   8.264   3.354  0.00  0.00    -0.274 OA
ATOM     13  N   UNL     1      12.705   5.945   3.549  0.00  0.00    -0.303 N 
ATOM     19  C   UNL     1      12.585   7.240   4.022  0.00  0.00    +0.234 C 
ATOM     39  H   UNL     1      12.623   5.170   4.203  0.00  0.00    +0.149 HD
BRANCH  13  20
ATOM      8  O   UNL     1      11.431   3.804   2.426  0.00  0.00    -0.274 OA
ATOM     14  N   UNL     1      13.123   3.512   0.919  0.00  0.00    -0.314 N 
ATOM     20  C   UNL     1      12.988   5.632   2.173  0.00  0.00    +0.159 C 
ATOM     21  C   UNL     1      14.468   5.816   1.867  0.00  0.00    +0.033 C 
ATOM     23  C   UNL     1      14.764   5.313   0.463  0.00  0.00    +0.021 C 
ATOM     26  C   UNL     1      12.458   4.230   1.891  0.00  0.00    +0.233 C 
ATOM     27  C   UNL     1      14.434   3.834   0.387  0.00  0.00    +0.104 C 
ATOM     40  H   UNL     1      12.744   2.600   0.682  0.00  0.00    +0.149 HD
ENDBRANCH  13  20
ENDBRANCH  15  19
BRANCH  11   1
ATOM      1  S   UNL     1       9.706   8.216   5.585  0.00  0.00    +0.062 S 
ATOM      4  O   UNL     1       9.346   7.707   4.279  0.00  0.00    -0.153 OA
ATOM      5  O   UNL     1       9.031   9.367   6.147  0.00  0.00    -0.153 OA
BRANCH   1  24
ATOM      3  F   UNL     1       9.242   3.780   9.440  0.00  0.00    -0.205 F 
ATOM     24  C   UNL     1       9.567   6.887   6.740  0.00  0.00    +0.106 A 
ATOM     28  C   UNL     1       9.806   5.577   6.326  0.00  0.00    +0.031 A 
ATOM     29  C   UNL     1       9.218   7.148   8.064  0.00  0.00    +0.031 A 
ATOM     31  C   UNL     1       9.696   4.528   7.238  0.00  0.00    +0.040 A 
ATOM     32  C   UNL     1       9.109   6.099   8.976  0.00  0.00    +0.040 A 
ATOM     33  C   UNL     1       9.348   4.789   8.564  0.00  0.00    +0.124 A 
ENDBRANCH   1  24
ENDBRANCH  11   1
BRANCH  22  25
ATOM     25  C   UNL     1      16.169  10.127   6.165  0.00  0.00    +0.267 C 
BRANCH  25   2
ATOM      2  S   UNL     1      17.358  10.233   4.884  0.00  0.00    +0.005 S 
ATOM      9  O   UNL     1      17.809  11.613   4.760  0.00  0.00    -0.169 OA
ATOM     10  O   UNL     1      16.835   9.537   3.715  0.00  0.00    -0.169 OA
BRANCH   2  30
ATOM     30  C   UNL     1      18.740   9.302   5.485  0.00  0.00    +0.089 A 
ATOM     34  C   UNL     1      19.222   9.523   6.776  0.00  0.00    +0.027 A 
ATOM     35  C   UNL     1      19.346   8.347   4.670  0.00  0.00    +0.027 A 
ATOM     36  C   UNL     1      20.311   8.791   7.249  0.00  0.00    +0.002 A 
ATOM     37  C   UNL     1      20.435   7.614   5.143  0.00  0.00    +0.002 A 
ATOM     38  C   UNL     1      20.917   7.836   6.433  0.00  0.00    +0.000 A 
ENDBRANCH   2  30
ENDBRANCH  25   2
ENDBRANCH  22  25
TORSDOF 7
ENDMDL
MODEL 5
REMARK VINA RESULT:      -7.1     28.012     31.613
REMARK  Name = 7674049
REMARK  7 active torsions:
REMARK  status: ('A' for Active; 'I' for Inactive)
REMARK    1  A    between atoms: S_1  and  N_11
REMARK    2  A    between atoms: S_1  and  C_24
REMARK    3  A    between atoms: S_2  and  C_25
REMARK    4  A    between atoms: S_2  and  C_30
REMARK    5  A    between atoms: N_13  and  C_20
REMARK    6  A    between atoms: C_15  and  C_19
REMARK    7  A    between atoms: C_22  and  C_25
REMARK                            x       y       z     vdW  Elec       q    Type
REMARK                         _______ _______ _______ _____ _____    ______ ____
ROOT
ATOM      7  O   UNL     1      14.681  10.035   2.665  0.00  0.00    -0.274 OA
ATOM     11  N   UNL     1      13.073   5.304   2.246  0.00  0.00    -0.162 NA
ATOM     12  N   UNL     1      14.600   7.711   2.594  0.00  0.00    -0.297 N 
ATOM     15  C   UNL     1      12.501   6.612   1.821  0.00  0.00    +0.183 C 
ATOM     16  C   UNL     1      13.563   7.678   1.563  0.00  0.00    +0.138 C 
ATOM     17  C   UNL     1      14.558   5.248   2.254  0.00  0.00    +0.129 C 
ATOM     18  C   UNL     1      15.096   6.416   3.068  0.00  0.00    +0.125 C 
ATOM     22  C   UNL     1      15.087   8.936   3.053  0.00  0.00    +0.237 C 
ENDROOT
BRANCH  15  19
ATOM      6  O   UNL     1      10.794   7.928   2.842  0.00  0.00    -0.274 OA
ATOM     13  N   UNL     1      11.809   6.238   4.080  0.00  0.00    -0.303 N 
ATOM     19  C   UNL     1      11.599   7.006   2.948  0.00  0.00    +0.234 C 
ATOM     39  H   UNL     1      12.483   5.478   4.044  0.00  0.00    +0.149 HD
BRANCH  13  20
ATOM      8  O   UNL     1      13.206   7.039   6.289  0.00  0.00    -0.274 OA
ATOM     14  N   UNL     1      11.665   6.087   7.681  0.00  0.00    -0.314 N 
ATOM     20  C   UNL     1      11.085   6.432   5.309  0.00  0.00    +0.159 C 
ATOM     21  C   UNL     1      10.028   5.351   5.492  0.00  0.00    +0.033 C 
ATOM     23  C   UNL     1       9.402   5.478   6.872  0.00  0.00    +0.021 C 
ATOM     26  C   UNL     1      12.099   6.517   6.445  0.00  0.00    +0.233 C 
ATOM     27  C   UNL     1      10.479   5.286   7.923  0.00  0.00    +0.104 C 
ATOM     40  H   UNL     1      12.312   6.192   8.457  0.00  0.00    +0.149 HD
ENDBRANCH  13  20
ENDBRANCH  15  19
BRANCH  11   1
ATOM      1  S   UNL     1      12.270   3.898   1.694  0.00  0.00    +0.062 S 
ATOM      4  O   UNL     1      11.093   3.674   2.507  0.00  0.00    -0.153 OA
ATOM      5  O   UNL     1      13.244   2.847   1.491  0.00  0.00    -0.153 OA
BRANCH   1  24
ATOM      3  F   UNL     1      10.471   5.754  -3.604  0.00  0.00    -0.205 F 
ATOM     24  C   UNL     1      11.731   4.454   0.106  0.00  0.00    +0.106 A 
ATOM     28  C   UNL     1      10.399   4.820  -0.089  0.00  0.00    +0.031 A 
ATOM     29  C   UNL     1      12.636   4.527  -0.951  0.00  0.00    +0.031 A 
ATOM     31  C   UNL     1       9.974   5.259  -1.342  0.00  0.00    +0.040 A 
ATOM     32  C   UNL     1      12.211   4.966  -2.204  0.00  0.00    +0.040 A 
ATOM     33  C   UNL     1      10.880   5.332  -2.400  0.00  0.00    +0.124 A 
ENDBRANCH   1  24
ENDBRANCH  11   1
BRANCH  22  25
ATOM     25  C   UNL     1      16.182   8.869   4.089  0.00  0.00    +0.267 C 
BRANCH  25   2
ATOM      2  S   UNL     1      17.722   9.191   3.319  0.00  0.00    +0.005 S 
ATOM      9  O   UNL     1      17.927  10.631   3.240  0.00  0.00    -0.169 OA
ATOM     10  O   UNL     1      17.807   8.382   2.109  0.00  0.00    -0.169 OA
BRANCH   2  30
ATOM     30  C   UNL     1      18.925   8.570   4.461  0.00  0.00    +0.089 A 
ATOM     34  C   UNL     1      19.923   7.700   4.019  0.00  0.00    +0.027 A 
ATOM     35  C   UNL     1      18.877   8.951   5.801  0.00  0.00    +0.027 A 
ATOM     36  C   UNL     1      20.870   7.210   4.918  0.00  0.00    +0.002 A 
ATOM     37  C   UNL     1      19.824   8.462   6.701  0.00  0.00    +0.002 A 
ATOM     38  C   UNL     1      20.821   7.591   6.259  0.00  0.00    +0.000 A 
ENDBRANCH   2  30
ENDBRANCH  25   2
ENDBRANCH  22  25
TORSDOF 7
ENDMDL
MODEL 6
REMARK VINA RESULT:      -6.9      3.974      7.283
REMARK  Name = 7674049
REMARK  7 active torsions:
REMARK  status: ('A' for Active; 'I' for Inactive)
REMARK    1  A    between atoms: S_1  and  N_11
REMARK    2  A    between atoms: S_1  and  C_24
REMARK    3  A    between atoms: S_2  and  C_25
REMARK    4  A    between atoms: S_2  and  C_30
REMARK    5  A    between atoms: N_13  and  C_20
REMARK    6  A    between atoms: C_15  and  C_19
REMARK    7  A    between atoms: C_22  and  C_25
REMARK                            x       y       z     vdW  Elec       q    Type
REMARK                         _______ _______ _______ _____ _____    ______ ____
ROOT
ATOM      7  O   UNL     1      -4.307 -15.051  14.686  0.00  0.00    -0.274 OA
ATOM     11  N   UNL     1      -6.325 -11.869  17.993  0.00  0.00    -0.162 NA
ATOM     12  N   UNL     1      -4.626 -13.277  16.155  0.00  0.00    -0.297 N 
ATOM     15  C   UNL     1      -6.673 -13.256  17.577  0.00  0.00    +0.183 C 
ATOM     16  C   UNL     1      -5.474 -14.049  17.064  0.00  0.00    +0.138 C 
ATOM     17  C   UNL     1      -4.878 -11.542  17.919  0.00  0.00    +0.129 C 
ATOM     18  C   UNL     1      -4.360 -11.885  16.529  0.00  0.00    +0.125 C 
ATOM     22  C   UNL     1      -4.094 -13.882  15.015  0.00  0.00    +0.237 C 
ENDROOT
BRANCH  15  19
ATOM      6  O   UNL     1      -8.648 -13.850  16.380  0.00  0.00    -0.274 OA
ATOM     13  N   UNL     1      -7.437 -11.980  15.704  0.00  0.00    -0.303 N 
ATOM     19  C   UNL     1      -7.702 -13.075  16.507  0.00  0.00    +0.234 C 
ATOM     39  H   UNL     1      -6.640 -11.388  15.923  0.00  0.00    +0.149 HD
BRANCH  13  20
ATOM      8  O   UNL     1      -6.523 -10.029  14.023  0.00  0.00    -0.274 OA
ATOM     14  N   UNL     1      -8.654  -9.461  13.427  0.00  0.00    -0.314 N 
ATOM     20  C   UNL     1      -8.265 -11.602  14.589  0.00  0.00    +0.159 C 
ATOM     21  C   UNL     1      -9.733 -11.559  14.991  0.00  0.00    +0.033 C 
ATOM     23  C   UNL     1     -10.558 -10.989  13.849  0.00  0.00    +0.021 C 
ATOM     26  C   UNL     1      -7.729 -10.287  14.030  0.00  0.00    +0.233 C 
ATOM     27  C   UNL     1     -10.095  -9.575  13.559  0.00  0.00    +0.104 C 
ATOM     40  H   UNL     1      -8.299  -8.610  13.001  0.00  0.00    +0.149 HD
ENDBRANCH  13  20
ENDBRANCH  15  19
BRANCH  11   1
ATOM      1  S   UNL     1      -7.173 -11.234  19.337  0.00  0.00    +0.062 S 
ATOM      4  O   UNL     1      -6.305 -10.329  20.060  0.00  0.00    -0.153 OA
ATOM      5  O   UNL     1      -7.854 -12.315  20.017  0.00  0.00    -0.153 OA
BRANCH   1  24
ATOM      3  F   UNL     1     -11.237  -7.996  16.554  0.00  0.00    -0.205 F 
ATOM     24  C   UNL     1      -8.391 -10.264  18.503  0.00  0.00    +0.106 A 
ATOM     28  C   UNL     1      -7.996  -9.249  17.632  0.00  0.00    +0.031 A 
ATOM     29  C   UNL     1      -9.746 -10.512  18.717  0.00  0.00    +0.031 A 
ATOM     31  C   UNL     1      -8.957  -8.483  16.973  0.00  0.00    +0.040 A 
ATOM     32  C   UNL     1     -10.707  -9.747  18.058  0.00  0.00    +0.040 A 
ATOM     33  C   UNL     1     -10.314  -8.732  17.186  0.00  0.00    +0.124 A 
ENDBRANCH   1  24
ENDBRANCH  11   1
BRANCH  22  25
ATOM     25  C   UNL     1      -3.201 -13.016  14.160  0.00  0.00    +0.267 C 
BRANCH  25   2
ATOM      2  S   UNL     1      -3.833 -12.978  12.527  0.00  0.00    +0.005 S 
ATOM      9  O   UNL     1      -5.279 -12.797  12.575  0.00  0.00    -0.169 OA
ATOM     10  O   UNL     1      -3.271 -14.103  11.791  0.00  0.00    -0.169 OA
BRANCH   2  30
ATOM     30  C   UNL     1      -3.162 -11.495  11.828  0.00  0.00    +0.089 A 
ATOM     34  C   UNL     1      -1.935 -11.005  12.278  0.00  0.00    +0.027 A 
ATOM     35  C   UNL     1      -3.859 -10.817  10.828  0.00  0.00    +0.027 A 
ATOM     36  C   UNL     1      -1.408  -9.836  11.729  0.00  0.00    +0.002 A 
ATOM     37  C   UNL     1      -3.331  -9.649  10.278  0.00  0.00    +0.002 A 
ATOM     38  C   UNL     1      -2.105  -9.158  10.729  0.00  0.00    +0.000 A 
ENDBRANCH   2  30
ENDBRANCH  25   2
ENDBRANCH  22  25
TORSDOF 7
ENDMDL
MODEL 7
REMARK VINA RESULT:      -6.9     27.263     30.537
REMARK  Name = 7674049
REMARK  7 active torsions:
REMARK  status: ('A' for Active; 'I' for Inactive)
REMARK    1  A    between atoms: S_1  and  N_11
REMARK    2  A    between atoms: S_1  and  C_24
REMARK    3  A    between atoms: S_2  and  C_25
REMARK    4  A    between atoms: S_2  and  C_30
REMARK    5  A    between atoms: N_13  and  C_20
REMARK    6  A    between atoms: C_15  and  C_19
REMARK    7  A    between atoms: C_22  and  C_25
REMARK                            x       y       z     vdW  Elec       q    Type
REMARK                         _______ _______ _______ _____ _____    ______ ____
ROOT
ATOM      7  O   UNL     1      15.301   7.425   6.308  0.00  0.00    -0.274 OA
ATOM     11  N   UNL     1      10.320   7.792   5.860  0.00  0.00    -0.162 NA
ATOM     12  N   UNL     1      13.099   8.153   6.490  0.00  0.00    -0.297 N 
ATOM     15  C   UNL     1      11.278   6.670   5.653  0.00  0.00    +0.183 C 
ATOM     16  C   UNL     1      12.545   6.798   6.494  0.00  0.00    +0.138 C 
ATOM     17  C   UNL     1      10.726   8.772   6.901  0.00  0.00    +0.129 C 
ATOM     18  C   UNL     1      12.140   9.254   6.608  0.00  0.00    +0.125 C 
ATOM     22  C   UNL     1      14.480   8.341   6.407  0.00  0.00    +0.237 C 
ENDROOT
BRANCH  15  19
ATOM      6  O   UNL     1      11.540   7.762   3.549  0.00  0.00    -0.274 OA
ATOM     13  N   UNL     1      11.909   5.467   3.684  0.00  0.00    -0.303 N 
ATOM     19  C   UNL     1      11.592   6.715   4.190  0.00  0.00    +0.234 C 
ATOM     39  H   UNL     1      11.952   4.673   4.317  0.00  0.00    +0.149 HD
BRANCH  13  20
ATOM      8  O   UNL     1      11.339   3.016   2.619  0.00  0.00    -0.274 OA
ATOM     14  N   UNL     1      12.984   3.248   1.050  0.00  0.00    -0.314 N 
ATOM     20  C   UNL     1      12.229   5.237   2.299  0.00  0.00    +0.159 C 
ATOM     21  C   UNL     1      13.563   5.874   1.937  0.00  0.00    +0.033 C 
ATOM     23  C   UNL     1      13.956   5.467   0.525  0.00  0.00    +0.021 C 
ATOM     26  C   UNL     1      12.160   3.735   2.044  0.00  0.00    +0.233 C 
ATOM     27  C   UNL     1      14.108   3.959   0.468  0.00  0.00    +0.104 C 
ATOM     40  H   UNL     1      12.906   2.260   0.833  0.00  0.00    +0.149 HD
ENDBRANCH  13  20
ENDBRANCH  15  19
BRANCH  11   1
ATOM      1  S   UNL     1       8.656   7.402   5.800  0.00  0.00    +0.062 S 
ATOM      4  O   UNL     1       8.029   7.806   7.041  0.00  0.00    -0.153 OA
ATOM      5  O   UNL     1       8.506   6.054   5.294  0.00  0.00    -0.153 OA
BRANCH   1  24
ATOM      3  F   UNL     1       6.877  11.127   1.591  0.00  0.00    -0.205 F 
ATOM     24  C   UNL     1       8.123   8.518   4.539  0.00  0.00    +0.106 A 
ATOM     28  C   UNL     1       7.582   9.756   4.887  0.00  0.00    +0.031 A 
ATOM     29  C   UNL     1       8.242   8.161   3.196  0.00  0.00    +0.031 A 
ATOM     31  C   UNL     1       7.162  10.637   3.891  0.00  0.00    +0.040 A 
ATOM     32  C   UNL     1       7.822   9.043   2.201  0.00  0.00    +0.040 A 
ATOM     33  C   UNL     1       7.282  10.281   2.547  0.00  0.00    +0.124 A 
ENDBRANCH   1  24
ENDBRANCH  11   1
BRANCH  22  25
ATOM     25  C   UNL     1      14.958   9.771   6.448  0.00  0.00    +0.267 C 
BRANCH  25   2
ATOM      2  S   UNL     1      15.725  10.164   4.923  0.00  0.00    +0.005 S 
ATOM      9  O   UNL     1      15.951  11.602   4.855  0.00  0.00    -0.169 OA
ATOM     10  O   UNL     1      14.990   9.498   3.856  0.00  0.00    -0.169 OA
BRANCH   2  30
ATOM     30  C   UNL     1      17.323   9.406   5.024  0.00  0.00    +0.089 A 
ATOM     34  C   UNL     1      18.111   9.587   6.162  0.00  0.00    +0.027 A 
ATOM     35  C   UNL     1      17.794   8.628   3.967  0.00  0.00    +0.027 A 
ATOM     36  C   UNL     1      19.369   8.991   6.241  0.00  0.00    +0.002 A 
ATOM     37  C   UNL     1      19.053   8.031   4.046  0.00  0.00    +0.002 A 
ATOM     38  C   UNL     1      19.840   8.213   5.184  0.00  0.00    +0.000 A 
ENDBRANCH   2  30
ENDBRANCH  25   2
ENDBRANCH  22  25
TORSDOF 7
ENDMDL
MODEL 8
REMARK VINA RESULT:      -6.9     26.011     29.413
REMARK  Name = 7674049
REMARK  7 active torsions:
REMARK  status: ('A' for Active; 'I' for Inactive)
REMARK    1  A    between atoms: S_1  and  N_11
REMARK    2  A    between atoms: S_1  and  C_24
REMARK    3  A    between atoms: S_2  and  C_25
REMARK    4  A    between atoms: S_2  and  C_30
REMARK    5  A    between atoms: N_13  and  C_20
REMARK    6  A    between atoms: C_15  and  C_19
REMARK    7  A    between atoms: C_22  and  C_25
REMARK                            x       y       z     vdW  Elec       q    Type
REMARK                         _______ _______ _______ _____ _____    ______ ____
ROOT
ATOM      7  O   UNL     1       8.818   8.247   2.570  0.00  0.00    -0.274 OA
ATOM     11  N   UNL     1      11.924   4.582   1.133  0.00  0.00    -0.162 NA
ATOM     12  N   UNL     1      10.323   6.473   2.585  0.00  0.00    -0.297 N 
ATOM     15  C   UNL     1      11.362   5.770   0.431  0.00  0.00    +0.183 C 
ATOM     16  C   UNL     1      11.016   6.918   1.375  0.00  0.00    +0.138 C 
ATOM     17  C   UNL     1      12.127   4.761   2.594  0.00  0.00    +0.129 C 
ATOM     18  C   UNL     1      10.830   5.254   3.220  0.00  0.00    +0.125 C 
ATOM     22  C   UNL     1       9.257   7.219   3.091  0.00  0.00    +0.237 C 
ENDROOT
BRANCH  15  19
ATOM      6  O   UNL     1       9.378   4.456   0.284  0.00  0.00    -0.274 OA
ATOM     13  N   UNL     1      10.016   5.746  -1.546  0.00  0.00    -0.303 N 
ATOM     19  C   UNL     1      10.142   5.249  -0.260  0.00  0.00    +0.234 C 
ATOM     39  H   UNL     1      10.694   6.425  -1.882  0.00  0.00    +0.149 HD
BRANCH  13  20
ATOM      8  O   UNL     1      10.146   3.326  -2.810  0.00  0.00    -0.274 OA
ATOM     14  N   UNL     1       8.841   4.085  -4.524  0.00  0.00    -0.314 N 
ATOM     20  C   UNL     1       8.939   5.382  -2.428  0.00  0.00    +0.159 C 
ATOM     21  C   UNL     1       8.474   6.582  -3.242  0.00  0.00    +0.033 C 
ATOM     23  C   UNL     1       7.463   6.131  -4.284  0.00  0.00    +0.021 C 
ATOM     26  C   UNL     1       9.399   4.195  -3.268  0.00  0.00    +0.233 C 
ATOM     27  C   UNL     1       8.125   5.139  -5.220  0.00  0.00    +0.104 C 
ATOM     40  H   UNL     1       9.096   3.268  -5.070  0.00  0.00    +0.149 HD
ENDBRANCH  13  20
ENDBRANCH  15  19
BRANCH  11   1
ATOM      1  S   UNL     1      13.138   3.704   0.307  0.00  0.00    +0.062 S 
ATOM      4  O   UNL     1      12.529   2.952  -0.770  0.00  0.00    -0.153 OA
ATOM      5  O   UNL     1      13.993   3.054   1.277  0.00  0.00    -0.153 OA
BRANCH   1  24
ATOM      3  F   UNL     1      16.172   8.153  -2.093  0.00  0.00    -0.205 F 
ATOM     24  C   UNL     1      14.047   5.037  -0.412  0.00  0.00    +0.106 A 
ATOM     28  C   UNL     1      13.941   5.295  -1.779  0.00  0.00    +0.031 A 
ATOM     29  C   UNL     1      14.870   5.830   0.386  0.00  0.00    +0.031 A 
ATOM     31  C   UNL     1      14.659   6.348  -2.346  0.00  0.00    +0.040 A 
ATOM     32  C   UNL     1      15.588   6.882  -0.181  0.00  0.00    +0.040 A 
ATOM     33  C   UNL     1      15.482   7.142  -1.547  0.00  0.00    +0.124 A 
ENDBRANCH   1  24
ENDBRANCH  11   1
BRANCH  22  25
ATOM     25  C   UNL     1       8.631   6.701   4.363  0.00  0.00    +0.267 C 
BRANCH  25   2
ATOM      2  S   UNL     1       9.275   7.594   5.725  0.00  0.00    +0.005 S 
ATOM      9  O   UNL     1       8.307   8.601   6.140  0.00  0.00    -0.169 OA
ATOM     10  O   UNL     1      10.640   7.993   5.407  0.00  0.00    -0.169 OA
BRANCH   2  30
ATOM     30  C   UNL     1       9.358   6.404   7.034  0.00  0.00    +0.089 A 
ATOM     34  C   UNL     1       8.947   6.752   8.322  0.00  0.00    +0.027 A 
ATOM     35  C   UNL     1       9.835   5.118   6.779  0.00  0.00    +0.027 A 
ATOM     36  C   UNL     1       9.014   5.815   9.352  0.00  0.00    +0.002 A 
ATOM     37  C   UNL     1       9.902   4.180   7.810  0.00  0.00    +0.002 A 
ATOM     38  C   UNL     1       9.491   4.529   9.097  0.00  0.00    +0.000 A 
ENDBRANCH   2  30
ENDBRANCH  25   2
ENDBRANCH  22  25
TORSDOF 7
ENDMDL
MODEL 9
REMARK VINA RESULT:      -6.7      4.144      8.651
REMARK  Name = 7674049
REMARK  7 active torsions:
REMARK  status: ('A' for Active; 'I' for Inactive)
REMARK    1  A    between atoms: S_1  and  N_11
REMARK    2  A    between atoms: S_1  and  C_24
REMARK    3  A    between atoms: S_2  and  C_25
REMARK    4  A    between atoms: S_2  and  C_30
REMARK    5  A    between atoms: N_13  and  C_20
REMARK    6  A    between atoms: C_15  and  C_19
REMARK    7  A    between atoms: C_22  and  C_25
REMARK                            x       y       z     vdW  Elec       q    Type
REMARK                         _______ _______ _______ _____ _____    ______ ____
ROOT
ATOM      7  O   UNL     1      -9.856  -8.893  14.948  0.00  0.00    -0.274 OA
ATOM     11  N   UNL     1     -14.529  -8.606  16.743  0.00  0.00    -0.162 NA
ATOM     12  N   UNL     1     -11.731  -9.089  16.310  0.00  0.00    -0.297 N 
ATOM     15  C   UNL     1     -13.958  -8.472  15.374  0.00  0.00    +0.183 C 
ATOM     16  C   UNL     1     -12.656  -9.247  15.187  0.00  0.00    +0.138 C 
ATOM     17  C   UNL     1     -13.787  -9.529  17.639  0.00  0.00    +0.129 C 
ATOM     18  C   UNL     1     -12.316  -9.136  17.653  0.00  0.00    +0.125 C 
ATOM     22  C   UNL     1     -10.365  -8.935  16.071  0.00  0.00    +0.237 C 
ENDROOT
BRANCH  15  19
ATOM      6  O   UNL     1     -13.449  -6.275  16.151  0.00  0.00    -0.274 OA
ATOM     13  N   UNL     1     -13.935  -6.591  13.896  0.00  0.00    -0.303 N 
ATOM     19  C   UNL     1     -13.742  -7.001  15.204  0.00  0.00    +0.234 C 
ATOM     39  H   UNL     1     -14.144  -7.287  13.186  0.00  0.00    +0.149 HD
BRANCH  13  20
ATOM      8  O   UNL     1     -16.018  -5.465  12.532  0.00  0.00    -0.274 OA
ATOM     14  N   UNL     1     -14.618  -3.982  11.501  0.00  0.00    -0.314 N 
ATOM     20  C   UNL     1     -13.809  -5.220  13.474  0.00  0.00    +0.159 C 
ATOM     21  C   UNL     1     -12.398  -4.932  12.978  0.00  0.00    +0.033 C 
ATOM     23  C   UNL     1     -12.344  -3.536  12.378  0.00  0.00    +0.021 C 
ATOM     26  C   UNL     1     -14.904  -4.941  12.450  0.00  0.00    +0.233 C 
ATOM     27  C   UNL     1     -13.296  -3.465  11.200  0.00  0.00    +0.104 C 
ATOM     40  H   UNL     1     -15.361  -3.747  10.849  0.00  0.00    +0.149 HD
ENDBRANCH  13  20
ENDBRANCH  15  19
BRANCH  11   1
ATOM      1  S   UNL     1     -16.235  -8.649  16.863  0.00  0.00    +0.062 S 
ATOM      4  O   UNL     1     -16.646  -9.966  17.300  0.00  0.00    -0.153 OA
ATOM      5  O   UNL     1     -16.806  -8.046  15.678  0.00  0.00    -0.153 OA
BRANCH   1  24
ATOM      3  F   UNL     1     -17.046  -4.925  21.361  0.00  0.00    -0.205 F 
ATOM     24  C   UNL     1     -16.478  -7.533  18.211  0.00  0.00    +0.106 A 
ATOM     28  C   UNL     1     -16.692  -6.177  17.963  0.00  0.00    +0.031 A 
ATOM     29  C   UNL     1     -16.456  -8.008  19.522  0.00  0.00    +0.031 A 
ATOM     31  C   UNL     1     -16.884  -5.297  19.027  0.00  0.00    +0.040 A 
ATOM     32  C   UNL     1     -16.648  -7.127  20.586  0.00  0.00    +0.040 A 
ATOM     33  C   UNL     1     -16.862  -5.772  20.339  0.00  0.00    +0.124 A 
ENDBRANCH   1  24
ENDBRANCH  11   1
BRANCH  22  25
ATOM     25  C   UNL     1      -9.487  -8.817  17.292  0.00  0.00    +0.267 C 
BRANCH  25   2
ATOM      2  S   UNL     1      -8.933 -10.413  17.757  0.00  0.00    +0.005 S 
ATOM      9  O   UNL     1      -9.482 -11.399  16.835  0.00  0.00    -0.169 OA
ATOM     10  O   UNL     1      -9.140 -10.571  19.190  0.00  0.00    -0.169 OA
BRANCH   2  30
ATOM     30  C   UNL     1      -7.185 -10.374  17.472  0.00  0.00    +0.089 A 
ATOM     34  C   UNL     1      -6.682  -9.823  16.292  0.00  0.00    +0.027 A 
ATOM     35  C   UNL     1      -6.310 -10.894  18.425  0.00  0.00    +0.027 A 
ATOM     36  C   UNL     1      -5.306  -9.793  16.067  0.00  0.00    +0.002 A 
ATOM     37  C   UNL     1      -4.934 -10.864  18.201  0.00  0.00    +0.002 A 
ATOM     38  C   UNL     1      -4.432 -10.313  17.021  0.00  0.00    +0.000 A 
ENDBRANCH   2  30
ENDBRANCH  25   2
ENDBRANCH  22  25
TORSDOF 7
ENDMDL
MODEL 10
REMARK VINA RESULT:      -6.6      3.944      6.463
REMARK  Name = 7674049
REMARK  7 active torsions:
REMARK  status: ('A' for Active; 'I' for Inactive)
REMARK    1  A    between atoms: S_1  and  N_11
REMARK    2  A    between atoms: S_1  and  C_24
REMARK    3  A    between atoms: S_2  and  C_25
REMARK    4  A    between atoms: S_2  and  C_30
REMARK    5  A    between atoms: N_13  and  C_20
REMARK    6  A    between atoms: C_15  and  C_19
REMARK    7  A    between atoms: C_22  and  C_25
REMARK                            x       y       z     vdW  Elec       q    Type
REMARK                         _______ _______ _______ _____ _____    ______ ____
ROOT
ATOM      7  O   UNL     1      -8.873 -11.186   9.955  0.00  0.00    -0.274 OA
ATOM     11  N   UNL     1      -5.677 -12.882  13.427  0.00  0.00    -0.162 NA
ATOM     12  N   UNL     1      -7.040 -12.162  11.003  0.00  0.00    -0.297 N 
ATOM     15  C   UNL     1      -7.116 -12.499  13.472  0.00  0.00    +0.183 C 
ATOM     16  C   UNL     1      -7.825 -12.666  12.131  0.00  0.00    +0.138 C 
ATOM     17  C   UNL     1      -5.221 -13.434  12.125  0.00  0.00    +0.129 C 
ATOM     18  C   UNL     1      -5.608 -12.470  11.012  0.00  0.00    +0.125 C 
ATOM     22  C   UNL     1      -7.669 -11.453   9.978  0.00  0.00    +0.237 C 
ENDROOT
BRANCH  15  19
ATOM      6  O   UNL     1      -6.233 -10.285  13.539  0.00  0.00    -0.274 OA
ATOM     13  N   UNL     1      -8.156 -10.771  14.758  0.00  0.00    -0.303 N 
ATOM     19  C   UNL     1      -7.106 -11.067  13.906  0.00  0.00    +0.234 C 
ATOM     39  H   UNL     1      -8.840 -11.492  14.969  0.00  0.00    +0.149 HD
BRANCH  13  20
ATOM      8  O   UNL     1      -7.077 -10.265  17.218  0.00  0.00    -0.274 OA
ATOM     14  N   UNL     1      -8.658  -8.674  17.650  0.00  0.00    -0.314 N 
ATOM     20  C   UNL     1      -8.358  -9.467  15.333  0.00  0.00    +0.159 C 
ATOM     21  C   UNL     1      -9.770  -8.967  15.063  0.00  0.00    +0.033 C 
ATOM     23  C   UNL     1     -10.009  -7.674  15.828  0.00  0.00    +0.021 C 
ATOM     26  C   UNL     1      -7.991  -9.543  16.812  0.00  0.00    +0.233 C 
ATOM     27  C   UNL     1      -9.867  -7.944  17.313  0.00  0.00    +0.104 C 
ATOM     40  H   UNL     1      -8.382  -8.676  18.627  0.00  0.00    +0.149 HD
ENDBRANCH  13  20
ENDBRANCH  15  19
BRANCH  11   1
ATOM      1  S   UNL     1      -5.036 -13.626  14.827  0.00  0.00    +0.062 S 
ATOM      4  O   UNL     1      -4.447 -14.897  14.461  0.00  0.00    -0.153 OA
ATOM      5  O   UNL     1      -6.007 -13.536  15.896  0.00  0.00    -0.153 OA
BRANCH   1  24
ATOM      3  F   UNL     1      -0.639  -9.895  16.053  0.00  0.00    -0.205 F 
ATOM     24  C   UNL     1      -3.718 -12.508  15.195  0.00  0.00    +0.106 A 
ATOM     28  C   UNL     1      -2.518 -12.591  14.490  0.00  0.00    +0.031 A 
ATOM     29  C   UNL     1      -3.879 -11.544  16.189  0.00  0.00    +0.031 A 
ATOM     31  C   UNL     1      -1.478 -11.708  14.779  0.00  0.00    +0.040 A 
ATOM     32  C   UNL     1      -2.839 -10.662  16.479  0.00  0.00    +0.040 A 
ATOM     33  C   UNL     1      -1.639 -10.742  15.774  0.00  0.00    +0.124 A 
ENDBRANCH   1  24
ENDBRANCH  11   1
BRANCH  22  25
ATOM     25  C   UNL     1      -6.783 -11.007   8.840  0.00  0.00    +0.267 C 
BRANCH  25   2
ATOM      2  S   UNL     1      -6.330  -9.333   9.088  0.00  0.00    +0.005 S 
ATOM      9  O   UNL     1      -4.950  -9.141   8.663  0.00  0.00    -0.169 OA
ATOM     10  O   UNL     1      -6.732  -8.944  10.434  0.00  0.00    -0.169 OA
BRANCH   2  30
ATOM     30  C   UNL     1      -7.340  -8.429   7.948  0.00  0.00    +0.089 A 
ATOM     34  C   UNL     1      -7.421  -8.834   6.614  0.00  0.00    +0.027 A 
ATOM     35  C   UNL     1      -8.055  -7.313   8.381  0.00  0.00    +0.027 A 
ATOM     36  C   UNL     1      -8.215  -8.122   5.716  0.00  0.00    +0.002 A 
ATOM     37  C   UNL     1      -8.850  -6.600   7.483  0.00  0.00    +0.002 A 
ATOM     38  C   UNL     1      -8.930  -7.005   6.150  0.00  0.00    +0.000 A 
ENDBRANCH   2  30
ENDBRANCH  25   2
ENDBRANCH  22  25
TORSDOF 7
ENDMDL
