MODEL 1
REMARK VINA RESULT:      -6.9      0.000      0.000
REMARK  Name = 75536804
REMARK  7 active torsions:
REMARK  status: ('A' for Active; 'I' for Inactive)
REMARK    1  A    between atoms: O_2  and  C_9
REMARK    2  A    between atoms: N_4  and  C_8
REMARK    3  A    between atoms: N_4  and  C_13
REMARK    4  A    between atoms: N_5  and  C_12
REMARK    5  A    between atoms: C_10  and  C_12
REMARK    6  A    between atoms: C_13  and  C_14
REMARK    7  A    between atoms: C_15  and  C_18
REMARK                            x       y       z     vdW  Elec       q    Type
REMARK                         _______ _______ _______ _____ _____    ______ ____
ROOT
ATOM      1  O   UNL     1      12.857   6.666  20.894  0.00  0.00    -0.371 OA
ATOM      8  C   UNL     1      10.842   7.899  21.146  0.00  0.00    +0.111 C 
ATOM      9  C   UNL     1      11.512   8.307  19.847  0.00  0.00    +0.164 C 
ATOM     10  C   UNL     1      12.421   7.111  19.598  0.00  0.00    +0.165 C 
ATOM     11  C   UNL     1      11.997   7.249  21.889  0.00  0.00    +0.181 C 
ENDROOT
BRANCH   9   2
ATOM      2  O   UNL     1      10.589   8.496  18.792  0.00  0.00    -0.388 OA
ATOM     26  H   UNL     1      10.016   9.248  19.018  0.00  0.00    +0.210 HD
ENDBRANCH   9   2
BRANCH   8   4
ATOM      4  N   UNL     1      10.255   9.012  21.875  0.00  0.00    -0.305 NA
ATOM     25  H   UNL     1       9.302   8.766  22.147  0.00  0.00    +0.123 HD
BRANCH   4  13
ATOM     13  C   UNL     1      11.024   9.320  23.074  0.00  0.00    +0.116 C 
BRANCH  13  14
ATOM      6  N   UNL     1      11.087  13.540  23.898  0.00  0.00    -0.263 NA
ATOM     14  C   UNL     1      11.046  10.797  23.363  0.00  0.00    -0.031 A 
ATOM     16  C   UNL     1      11.065  11.712  22.316  0.00  0.00    +0.024 A 
ATOM     17  C   UNL     1      11.047  11.251  24.676  0.00  0.00    +0.024 A 
ATOM     19  C   UNL     1      11.085  13.060  22.634  0.00  0.00    +0.111 A 
ATOM     20  C   UNL     1      11.068  12.621  24.889  0.00  0.00    +0.111 A 
ENDBRANCH  13  14
ENDBRANCH   4  13
ENDBRANCH   8   4
BRANCH  10  12
ATOM     12  C   UNL     1      13.627   7.442  18.737  0.00  0.00    +0.138 C 
BRANCH  12   5
ATOM      3  O   UNL     1      16.109   5.999  18.706  0.00  0.00    -0.270 OA
ATOM      5  N   UNL     1      14.785   7.712  19.540  0.00  0.00    -0.309 N 
ATOM     15  C   UNL     1      15.950   6.956  19.459  0.00  0.00    +0.244 C 
ATOM     27  H   UNL     1      14.697   8.447  20.233  0.00  0.00    +0.149 HD
BRANCH  15  18
ATOM      7  N   UNL     1      19.125   8.081  22.103  0.00  0.00    -0.263 NA
ATOM     18  C   UNL     1      17.051   7.346  20.378  0.00  0.00    +0.040 A 
ATOM     21  C   UNL     1      17.139   8.652  20.848  0.00  0.00    +0.033 A 
ATOM     22  C   UNL     1      17.998   6.408  20.770  0.00  0.00    +0.033 A 
ATOM     23  C   UNL     1      18.185   8.965  21.700  0.00  0.00    +0.111 A 
ATOM     24  C   UNL     1      19.006   6.821  21.626  0.00  0.00    +0.111 A 
ENDBRANCH  15  18
ENDBRANCH  12   5
ENDBRANCH  10  12
TORSDOF 7
ENDMDL
MODEL 2
REMARK VINA RESULT:      -6.3      3.142      4.438
REMARK  Name = 75536804
REMARK  7 active torsions:
REMARK  status: ('A' for Active; 'I' for Inactive)
REMARK    1  A    between atoms: O_2  and  C_9
REMARK    2  A    between atoms: N_4  and  C_8
REMARK    3  A    between atoms: N_4  and  C_13
REMARK    4  A    between atoms: N_5  and  C_12
REMARK    5  A    between atoms: C_10  and  C_12
REMARK    6  A    between atoms: C_13  and  C_14
REMARK    7  A    between atoms: C_15  and  C_18
REMARK                            x       y       z     vdW  Elec       q    Type
REMARK                         _______ _______ _______ _____ _____    ______ ____
ROOT
ATOM      1  O   UNL     1      13.139   6.652  20.172  0.00  0.00    -0.371 OA
ATOM      8  C   UNL     1      11.175   7.922  20.587  0.00  0.00    +0.111 C 
ATOM      9  C   UNL     1      11.725   8.295  19.223  0.00  0.00    +0.164 C 
ATOM     10  C   UNL     1      12.590   7.080  18.914  0.00  0.00    +0.165 C 
ATOM     11  C   UNL     1      12.385   7.267  21.231  0.00  0.00    +0.181 C 
ENDROOT
BRANCH   9   2
ATOM      2  O   UNL     1      10.710   8.479  18.256  0.00  0.00    -0.388 OA
ATOM     26  H   UNL     1      10.935   9.258  17.721  0.00  0.00    +0.210 HD
ENDBRANCH   9   2
BRANCH   8   4
ATOM      4  N   UNL     1      10.674   9.057  21.345  0.00  0.00    -0.305 NA
ATOM     25  H   UNL     1      10.552   8.779  22.320  0.00  0.00    +0.123 HD
BRANCH   4  13
ATOM     13  C   UNL     1      11.603  10.179  21.288  0.00  0.00    +0.116 C 
BRANCH  13  14
ATOM      6  N   UNL     1      10.547  13.277  24.077  0.00  0.00    -0.263 NA
ATOM     14  C   UNL     1      11.234  11.263  22.264  0.00  0.00    -0.031 A 
ATOM     16  C   UNL     1      11.029  10.955  23.604  0.00  0.00    +0.024 A 
ATOM     17  C   UNL     1      11.097  12.576  21.829  0.00  0.00    +0.024 A 
ATOM     19  C   UNL     1      10.690  11.989  24.462  0.00  0.00    +0.111 A 
ATOM     20  C   UNL     1      10.755  13.538  22.767  0.00  0.00    +0.111 A 
ENDBRANCH  13  14
ENDBRANCH   4  13
ENDBRANCH   8   4
BRANCH  10  12
ATOM     12  C   UNL     1      13.714   7.376  17.937  0.00  0.00    +0.138 C 
BRANCH  12   5
ATOM      3  O   UNL     1      13.888   8.571  15.332  0.00  0.00    -0.270 OA
ATOM      5  N   UNL     1      13.793   8.778  17.641  0.00  0.00    -0.309 N 
ATOM     15  C   UNL     1      13.876   9.269  16.342  0.00  0.00    +0.244 C 
ATOM     27  H   UNL     1      13.856   9.408  18.433  0.00  0.00    +0.149 HD
BRANCH  15  18
ATOM      7  N   UNL     1      14.167  13.522  15.944  0.00  0.00    -0.263 NA
ATOM     18  C   UNL     1      13.978  10.745  16.204  0.00  0.00    +0.040 A 
ATOM     21  C   UNL     1      14.134  11.543  17.332  0.00  0.00    +0.033 A 
ATOM     22  C   UNL     1      13.917  11.334  14.946  0.00  0.00    +0.033 A 
ATOM     23  C   UNL     1      14.222  12.914  17.150  0.00  0.00    +0.111 A 
ATOM     24  C   UNL     1      14.015  12.714  14.870  0.00  0.00    +0.111 A 
ENDBRANCH  15  18
ENDBRANCH  12   5
ENDBRANCH  10  12
TORSDOF 7
ENDMDL
MODEL 3
REMARK VINA RESULT:      -6.2     25.771     27.762
REMARK  Name = 75536804
REMARK  7 active torsions:
REMARK  status: ('A' for Active; 'I' for Inactive)
REMARK    1  A    between atoms: O_2  and  C_9
REMARK    2  A    between atoms: N_4  and  C_8
REMARK    3  A    between atoms: N_4  and  C_13
REMARK    4  A    between atoms: N_5  and  C_12
REMARK    5  A    between atoms: C_10  and  C_12
REMARK    6  A    between atoms: C_13  and  C_14
REMARK    7  A    between atoms: C_15  and  C_18
REMARK                            x       y       z     vdW  Elec       q    Type
REMARK                         _______ _______ _______ _____ _____    ______ ____
ROOT
ATOM      1  O   UNL     1      -1.079 -11.275  15.062  0.00  0.00    -0.371 OA
ATOM      8  C   UNL     1      -3.097 -11.090  16.302  0.00  0.00    +0.111 C 
ATOM      9  C   UNL     1      -3.393 -11.762  14.974  0.00  0.00    +0.164 C 
ATOM     10  C   UNL     1      -2.009 -12.262  14.584  0.00  0.00    +0.165 C 
ATOM     11  C   UNL     1      -1.755 -10.437  16.016  0.00  0.00    +0.181 C 
ENDROOT
BRANCH   9   2
ATOM      2  O   UNL     1      -4.322 -12.822  15.094  0.00  0.00    -0.388 OA
ATOM     26  H   UNL     1      -4.491 -13.182  14.207  0.00  0.00    +0.210 HD
ENDBRANCH   9   2
BRANCH   8   4
ATOM      4  N   UNL     1      -4.115 -10.136  16.713  0.00  0.00    -0.305 NA
ATOM     25  H   UNL     1      -4.748  -9.968  15.931  0.00  0.00    +0.123 HD
BRANCH   4  13
ATOM     13  C   UNL     1      -4.883 -10.642  17.843  0.00  0.00    +0.116 C 
BRANCH  13  14
ATOM      6  N   UNL     1      -9.073  -9.747  17.462  0.00  0.00    -0.263 NA
ATOM     14  C   UNL     1      -6.349 -10.328  17.710  0.00  0.00    -0.031 A 
ATOM     16  C   UNL     1      -7.261 -10.853  18.619  0.00  0.00    +0.024 A 
ATOM     17  C   UNL     1      -6.797  -9.513  16.677  0.00  0.00    +0.024 A 
ATOM     19  C   UNL     1      -8.599 -10.535  18.452  0.00  0.00    +0.111 A 
ATOM     20  C   UNL     1      -8.156  -9.255  16.597  0.00  0.00    +0.111 A 
ENDBRANCH  13  14
ENDBRANCH   4  13
ENDBRANCH   8   4
BRANCH  10  12
ATOM     12  C   UNL     1      -1.837 -12.448  13.087  0.00  0.00    +0.138 C 
BRANCH  12   5
ATOM      3  O   UNL     1      -1.431  -9.919  11.789  0.00  0.00    -0.270 OA
ATOM      5  N   UNL     1      -2.813 -11.696  12.352  0.00  0.00    -0.309 N 
ATOM     15  C   UNL     1      -2.527 -10.473  11.754  0.00  0.00    +0.244 C 
ATOM     27  H   UNL     1      -3.758 -12.064  12.341  0.00  0.00    +0.149 HD
BRANCH  15  18
ATOM      7  N   UNL     1      -5.774  -8.556   9.727  0.00  0.00    -0.263 NA
ATOM     18  C   UNL     1      -3.653  -9.806  11.051  0.00  0.00    +0.040 A 
ATOM     21  C   UNL     1      -4.888  -9.675  11.677  0.00  0.00    +0.033 A 
ATOM     22  C   UNL     1      -3.478  -9.312   9.763  0.00  0.00    +0.033 A 
ATOM     23  C   UNL     1      -5.907  -9.049  10.978  0.00  0.00    +0.111 A 
ATOM     24  C   UNL     1      -4.560  -8.701   9.150  0.00  0.00    +0.111 A 
ENDBRANCH  15  18
ENDBRANCH  12   5
ENDBRANCH  10  12
TORSDOF 7
ENDMDL
MODEL 4
REMARK VINA RESULT:      -6.0     26.452     28.433
REMARK  Name = 75536804
REMARK  7 active torsions:
REMARK  status: ('A' for Active; 'I' for Inactive)
REMARK    1  A    between atoms: O_2  and  C_9
REMARK    2  A    between atoms: N_4  and  C_8
REMARK    3  A    between atoms: N_4  and  C_13
REMARK    4  A    between atoms: N_5  and  C_12
REMARK    5  A    between atoms: C_10  and  C_12
REMARK    6  A    between atoms: C_13  and  C_14
REMARK    7  A    between atoms: C_15  and  C_18
REMARK                            x       y       z     vdW  Elec       q    Type
REMARK                         _______ _______ _______ _____ _____    ______ ____
ROOT
ATOM      1  O   UNL     1      -3.753 -10.412  13.829  0.00  0.00    -0.371 OA
ATOM      8  C   UNL     1      -3.113 -10.757  16.091  0.00  0.00    +0.111 C 
ATOM      9  C   UNL     1      -2.021 -11.290  15.182  0.00  0.00    +0.164 C 
ATOM     10  C   UNL     1      -2.323 -10.539  13.891  0.00  0.00    +0.165 C 
ATOM     11  C   UNL     1      -4.292 -10.684  15.135  0.00  0.00    +0.181 C 
ENDROOT
BRANCH   9   2
ATOM      2  O   UNL     1      -0.722 -11.008  15.665  0.00  0.00    -0.388 OA
ATOM     26  H   UNL     1      -0.256 -11.850  15.796  0.00  0.00    +0.210 HD
ENDBRANCH   9   2
BRANCH   8   4
ATOM      4  N   UNL     1      -3.372 -11.599  17.247  0.00  0.00    -0.305 NA
ATOM     25  H   UNL     1      -3.442 -11.011  18.079  0.00  0.00    +0.123 HD
BRANCH   4  13
ATOM     13  C   UNL     1      -4.617 -12.341  17.089  0.00  0.00    +0.116 C 
BRANCH  13  14
ATOM      6  N   UNL     1      -7.553 -11.185  20.011  0.00  0.00    -0.263 NA
ATOM     14  C   UNL     1      -5.645 -11.936  18.111  0.00  0.00    -0.031 A 
ATOM     16  C   UNL     1      -5.493 -10.751  18.823  0.00  0.00    +0.024 A 
ATOM     17  C   UNL     1      -6.750 -12.745  18.348  0.00  0.00    +0.024 A 
ATOM     19  C   UNL     1      -6.466 -10.424  19.753  0.00  0.00    +0.111 A 
ATOM     20  C   UNL     1      -7.668 -12.329  19.300  0.00  0.00    +0.111 A 
ENDBRANCH  13  14
ENDBRANCH   4  13
ENDBRANCH   8   4
BRANCH  10  12
ATOM     12  C   UNL     1      -1.816 -11.252  12.650  0.00  0.00    +0.138 C 
BRANCH  12   5
ATOM      3  O   UNL     1      -3.342 -13.039  11.001  0.00  0.00    -0.270 OA
ATOM      5  N   UNL     1      -2.590 -10.901  11.494  0.00  0.00    -0.309 N 
ATOM     15  C   UNL     1      -3.301 -11.838  10.751  0.00  0.00    +0.244 C 
ATOM     27  H   UNL     1      -2.545  -9.934  11.192  0.00  0.00    +0.149 HD
BRANCH  15  18
ATOM      7  N   UNL     1      -5.401 -10.340   7.334  0.00  0.00    -0.263 NA
ATOM     18  C   UNL     1      -4.031 -11.318   9.566  0.00  0.00    +0.040 A 
ATOM     21  C   UNL     1      -4.528 -12.198   8.610  0.00  0.00    +0.033 A 
ATOM     22  C   UNL     1      -4.220  -9.950   9.407  0.00  0.00    +0.033 A 
ATOM     23  C   UNL     1      -5.199 -11.663   7.523  0.00  0.00    +0.111 A 
ATOM     24  C   UNL     1      -4.905  -9.515   8.284  0.00  0.00    +0.111 A 
ENDBRANCH  15  18
ENDBRANCH  12   5
ENDBRANCH  10  12
TORSDOF 7
ENDMDL
MODEL 5
REMARK VINA RESULT:      -6.0     25.946     28.916
REMARK  Name = 75536804
REMARK  7 active torsions:
REMARK  status: ('A' for Active; 'I' for Inactive)
REMARK    1  A    between atoms: O_2  and  C_9
REMARK    2  A    between atoms: N_4  and  C_8
REMARK    3  A    between atoms: N_4  and  C_13
REMARK    4  A    between atoms: N_5  and  C_12
REMARK    5  A    between atoms: C_10  and  C_12
REMARK    6  A    between atoms: C_13  and  C_14
REMARK    7  A    between atoms: C_15  and  C_18
REMARK                            x       y       z     vdW  Elec       q    Type
REMARK                         _______ _______ _______ _____ _____    ______ ____
ROOT
ATOM      1  O   UNL     1     -17.081   5.614  23.160  0.00  0.00    -0.371 OA
ATOM      8  C   UNL     1     -16.139   4.419  24.985  0.00  0.00    +0.111 C 
ATOM      9  C   UNL     1     -15.161   4.401  23.824  0.00  0.00    +0.164 C 
ATOM     10  C   UNL     1     -15.651   5.590  23.009  0.00  0.00    +0.165 C 
ATOM     11  C   UNL     1     -17.435   4.784  24.280  0.00  0.00    +0.181 C 
ENDROOT
BRANCH   9   2
ATOM      2  O   UNL     1     -13.819   4.563  24.238  0.00  0.00    -0.388 OA
ATOM     26  H   UNL     1     -13.238   4.266  23.518  0.00  0.00    +0.210 HD
ENDBRANCH   9   2
BRANCH   8   4
ATOM      4  N   UNL     1     -16.219   3.156  25.701  0.00  0.00    -0.305 NA
ATOM     25  H   UNL     1     -15.275   2.799  25.852  0.00  0.00    +0.123 HD
BRANCH   4  13
ATOM     13  C   UNL     1     -16.873   3.325  26.993  0.00  0.00    +0.116 C 
BRANCH  13  14
ATOM      6  N   UNL     1     -14.671   1.427  30.162  0.00  0.00    -0.263 NA
ATOM     14  C   UNL     1     -16.103   2.661  28.102  0.00  0.00    -0.031 A 
ATOM     16  C   UNL     1     -15.311   3.422  28.955  0.00  0.00    +0.024 A 
ATOM     17  C   UNL     1     -16.179   1.284  28.278  0.00  0.00    +0.024 A 
ATOM     19  C   UNL     1     -14.621   2.763  29.960  0.00  0.00    +0.111 A 
ATOM     20  C   UNL     1     -15.451   0.720  29.313  0.00  0.00    +0.111 A 
ENDBRANCH  13  14
ENDBRANCH   4  13
ENDBRANCH   8   4
BRANCH  10  12
ATOM     12  C   UNL     1     -15.292   5.498  21.537  0.00  0.00    +0.138 C 
BRANCH  12   5
ATOM      3  O   UNL     1     -12.429   5.649  21.690  0.00  0.00    -0.270 OA
ATOM      5  N   UNL     1     -14.469   6.601  21.130  0.00  0.00    -0.309 N 
ATOM     15  C   UNL     1     -13.083   6.587  21.242  0.00  0.00    +0.244 C 
ATOM     27  H   UNL     1     -14.951   7.435  20.813  0.00  0.00    +0.149 HD
BRANCH  15  18
ATOM      7  N   UNL     1     -11.046  10.134  19.976  0.00  0.00    -0.263 NA
ATOM     18  C   UNL     1     -12.377   7.818  20.801  0.00  0.00    +0.040 A 
ATOM     21  C   UNL     1     -11.289   7.729  19.940  0.00  0.00    +0.033 A 
ATOM     22  C   UNL     1     -12.800   9.064  21.251  0.00  0.00    +0.033 A 
ATOM     23  C   UNL     1     -10.664   8.906  19.561  0.00  0.00    +0.111 A 
ATOM     24  C   UNL     1     -12.107  10.181  20.813  0.00  0.00    +0.111 A 
ENDBRANCH  15  18
ENDBRANCH  12   5
ENDBRANCH  10  12
TORSDOF 7
ENDMDL
MODEL 6
REMARK VINA RESULT:      -5.9     26.525     29.792
REMARK  Name = 75536804
REMARK  7 active torsions:
REMARK  status: ('A' for Active; 'I' for Inactive)
REMARK    1  A    between atoms: O_2  and  C_9
REMARK    2  A    between atoms: N_4  and  C_8
REMARK    3  A    between atoms: N_4  and  C_13
REMARK    4  A    between atoms: N_5  and  C_12
REMARK    5  A    between atoms: C_10  and  C_12
REMARK    6  A    between atoms: C_13  and  C_14
REMARK    7  A    between atoms: C_15  and  C_18
REMARK                            x       y       z     vdW  Elec       q    Type
REMARK                         _______ _______ _______ _____ _____    ______ ____
ROOT
ATOM      1  O   UNL     1      -8.881 -12.087  17.947  0.00  0.00    -0.371 OA
ATOM      8  C   UNL     1      -6.650 -11.274  17.911  0.00  0.00    +0.111 C 
ATOM      9  C   UNL     1      -7.453 -10.467  18.913  0.00  0.00    +0.164 C 
ATOM     10  C   UNL     1      -8.614 -11.414  19.188  0.00  0.00    +0.165 C 
ATOM     11  C   UNL     1      -7.753 -11.900  17.075  0.00  0.00    +0.181 C 
ENDROOT
BRANCH   9   2
ATOM      2  O   UNL     1      -6.724 -10.172  20.088  0.00  0.00    -0.388 OA
ATOM     26  H   UNL     1      -5.912 -10.706  20.086  0.00  0.00    +0.210 HD
ENDBRANCH   9   2
BRANCH   8   4
ATOM      4  N   UNL     1      -5.726 -10.473  17.123  0.00  0.00    -0.305 NA
ATOM     25  H   UNL     1      -5.818  -9.494  17.396  0.00  0.00    +0.123 HD
BRANCH   4  13
ATOM     13  C   UNL     1      -4.348 -10.896  17.338  0.00  0.00    +0.116 C 
BRANCH  13  14
ATOM      6  N   UNL     1      -1.966 -10.462  13.784  0.00  0.00    -0.263 NA
ATOM     14  C   UNL     1      -3.514 -10.745  16.094  0.00  0.00    -0.031 A 
ATOM     16  C   UNL     1      -2.134 -10.607  16.192  0.00  0.00    +0.024 A 
ATOM     17  C   UNL     1      -4.121 -10.742  14.844  0.00  0.00    +0.024 A 
ATOM     19  C   UNL     1      -1.412 -10.470  15.017  0.00  0.00    +0.111 A 
ATOM     20  C   UNL     1      -3.310 -10.599  13.729  0.00  0.00    +0.111 A 
ENDBRANCH  13  14
ENDBRANCH   4  13
ENDBRANCH   8   4
BRANCH  10  12
ATOM     12  C   UNL     1      -9.868 -10.704  19.668  0.00  0.00    +0.138 C 
BRANCH  12   5
ATOM      3  O   UNL     1     -12.236 -10.493  18.059  0.00  0.00    -0.270 OA
ATOM      5  N   UNL     1     -10.219  -9.618  18.798  0.00  0.00    -0.309 N 
ATOM     15  C   UNL     1     -11.392  -9.600  18.052  0.00  0.00    +0.244 C 
ATOM     27  H   UNL     1      -9.533  -8.879  18.694  0.00  0.00    +0.149 HD
BRANCH  15  18
ATOM      7  N   UNL     1     -11.985  -6.185  15.539  0.00  0.00    -0.263 NA
ATOM     18  C   UNL     1     -11.597  -8.416  17.179  0.00  0.00    +0.040 A 
ATOM     21  C   UNL     1     -10.572  -7.494  17.001  0.00  0.00    +0.033 A 
ATOM     22  C   UNL     1     -12.816  -8.224  16.537  0.00  0.00    +0.033 A 
ATOM     23  C   UNL     1     -10.815  -6.405  16.179  0.00  0.00    +0.111 A 
ATOM     24  C   UNL     1     -12.958  -7.103  15.736  0.00  0.00    +0.111 A 
ENDBRANCH  15  18
ENDBRANCH  12   5
ENDBRANCH  10  12
TORSDOF 7
ENDMDL
MODEL 7
REMARK VINA RESULT:      -5.9     26.407     28.841
REMARK  Name = 75536804
REMARK  7 active torsions:
REMARK  status: ('A' for Active; 'I' for Inactive)
REMARK    1  A    between atoms: O_2  and  C_9
REMARK    2  A    between atoms: N_4  and  C_8
REMARK    3  A    between atoms: N_4  and  C_13
REMARK    4  A    between atoms: N_5  and  C_12
REMARK    5  A    between atoms: C_10  and  C_12
REMARK    6  A    between atoms: C_13  and  C_14
REMARK    7  A    between atoms: C_15  and  C_18
REMARK                            x       y       z     vdW  Elec       q    Type
REMARK                         _______ _______ _______ _____ _____    ______ ____
ROOT
ATOM      1  O   UNL     1      -4.882 -11.959  15.674  0.00  0.00    -0.371 OA
ATOM      8  C   UNL     1      -2.885 -11.306  14.565  0.00  0.00    +0.111 C 
ATOM      9  C   UNL     1      -2.817 -10.854  16.012  0.00  0.00    +0.164 C 
ATOM     10  C   UNL     1      -3.847 -11.773  16.655  0.00  0.00    +0.165 C 
ATOM     11  C   UNL     1      -4.376 -11.543  14.394  0.00  0.00    +0.181 C 
ENDROOT
BRANCH   9   2
ATOM      2  O   UNL     1      -1.532 -11.025  16.578  0.00  0.00    -0.388 OA
ATOM     26  H   UNL     1      -0.946 -11.399  15.899  0.00  0.00    +0.210 HD
ENDBRANCH   9   2
BRANCH   8   4
ATOM      4  N   UNL     1      -2.353 -10.334  13.624  0.00  0.00    -0.305 NA
ATOM     25  H   UNL     1      -1.585  -9.828  14.067  0.00  0.00    +0.123 HD
BRANCH   4  13
ATOM     13  C   UNL     1      -1.857 -10.986  12.419  0.00  0.00    +0.116 C 
BRANCH  13  14
ATOM      6  N   UNL     1      -4.365 -10.185   9.018  0.00  0.00    -0.263 NA
ATOM     14  C   UNL     1      -2.734 -10.706  11.228  0.00  0.00    -0.031 A 
ATOM     16  C   UNL     1      -2.799  -9.423  10.695  0.00  0.00    +0.024 A 
ATOM     17  C   UNL     1      -3.484 -11.728  10.657  0.00  0.00    +0.024 A 
ATOM     19  C   UNL     1      -3.623  -9.217   9.600  0.00  0.00    +0.111 A 
ATOM     20  C   UNL     1      -4.276 -11.419   9.564  0.00  0.00    +0.111 A 
ENDBRANCH  13  14
ENDBRANCH   4  13
ENDBRANCH   8   4
BRANCH  10  12
ATOM     12  C   UNL     1      -4.444 -11.207  17.931  0.00  0.00    +0.138 C 
BRANCH  12   5
ATOM      3  O   UNL     1      -6.461 -10.829  19.939  0.00  0.00    -0.270 OA
ATOM      5  N   UNL     1      -5.788 -10.750  17.720  0.00  0.00    -0.309 N 
ATOM     15  C   UNL     1      -6.702 -10.597  18.758  0.00  0.00    +0.244 C 
ATOM     27  H   UNL     1      -6.074 -10.605  16.758  0.00  0.00    +0.149 HD
BRANCH  15  18
ATOM      7  N   UNL     1     -10.622  -9.284  17.641  0.00  0.00    -0.263 NA
ATOM     18  C   UNL     1      -8.062 -10.140  18.372  0.00  0.00    +0.040 A 
ATOM     21  C   UNL     1      -9.183 -10.678  18.994  0.00  0.00    +0.033 A 
ATOM     22  C   UNL     1      -8.220  -9.174  17.384  0.00  0.00    +0.033 A 
ATOM     23  C   UNL     1     -10.429 -10.221  18.596  0.00  0.00    +0.111 A 
ATOM     24  C   UNL     1      -9.509  -8.784  17.058  0.00  0.00    +0.111 A 
ENDBRANCH  15  18
ENDBRANCH  12   5
ENDBRANCH  10  12
TORSDOF 7
ENDMDL
MODEL 8
REMARK VINA RESULT:      -5.8      4.489     10.649
REMARK  Name = 75536804
REMARK  7 active torsions:
REMARK  status: ('A' for Active; 'I' for Inactive)
REMARK    1  A    between atoms: O_2  and  C_9
REMARK    2  A    between atoms: N_4  and  C_8
REMARK    3  A    between atoms: N_4  and  C_13
REMARK    4  A    between atoms: N_5  and  C_12
REMARK    5  A    between atoms: C_10  and  C_12
REMARK    6  A    between atoms: C_13  and  C_14
REMARK    7  A    between atoms: C_15  and  C_18
REMARK                            x       y       z     vdW  Elec       q    Type
REMARK                         _______ _______ _______ _____ _____    ______ ____
ROOT
ATOM      1  O   UNL     1      21.766   7.788  21.680  0.00  0.00    -0.371 OA
ATOM      8  C   UNL     1      21.667   5.824  20.348  0.00  0.00    +0.111 C 
ATOM      9  C   UNL     1      20.274   6.147  20.857  0.00  0.00    +0.164 C 
ATOM     10  C   UNL     1      20.422   7.624  21.198  0.00  0.00    +0.165 C 
ATOM     11  C   UNL     1      22.531   6.630  21.303  0.00  0.00    +0.181 C 
ENDROOT
BRANCH   9   2
ATOM      2  O   UNL     1      19.272   5.928  19.883  0.00  0.00    -0.388 OA
ATOM     26  H   UNL     1      18.726   6.729  19.822  0.00  0.00    +0.210 HD
ENDBRANCH   9   2
BRANCH   8   4
ATOM      4  N   UNL     1      21.979   4.404  20.361  0.00  0.00    -0.305 NA
ATOM     25  H   UNL     1      22.944   4.273  20.057  0.00  0.00    +0.123 HD
BRANCH   4  13
ATOM     13  C   UNL     1      21.826   3.845  21.699  0.00  0.00    +0.116 C 
BRANCH  13  14
ATOM      6  N   UNL     1      24.738   0.783  22.499  0.00  0.00    -0.263 NA
ATOM     14  C   UNL     1      22.844   2.773  21.979  0.00  0.00    -0.031 A 
ATOM     16  C   UNL     1      23.131   2.408  23.289  0.00  0.00    +0.024 A 
ATOM     17  C   UNL     1      23.503   2.145  20.928  0.00  0.00    +0.024 A 
ATOM     19  C   UNL     1      24.077   1.416  23.494  0.00  0.00    +0.111 A 
ATOM     20  C   UNL     1      24.432   1.165  21.238  0.00  0.00    +0.111 A 
ENDBRANCH  13  14
ENDBRANCH   4  13
ENDBRANCH   8   4
BRANCH  10  12
ATOM     12  C   UNL     1      19.437   8.098  22.251  0.00  0.00    +0.138 C 
BRANCH  12   5
ATOM      3  O   UNL     1      17.486   9.670  20.848  0.00  0.00    -0.270 OA
ATOM      5  N   UNL     1      18.095   7.708  21.925  0.00  0.00    -0.309 N 
ATOM     15  C   UNL     1      17.215   8.538  21.240  0.00  0.00    +0.244 C 
ATOM     27  H   UNL     1      17.784   6.810  22.280  0.00  0.00    +0.149 HD
BRANCH  15  18
ATOM      7  N   UNL     1      13.288   6.974  20.559  0.00  0.00    -0.263 NA
ATOM     18  C   UNL     1      15.852   7.997  21.003  0.00  0.00    +0.040 A 
ATOM     21  C   UNL     1      14.884   8.082  21.998  0.00  0.00    +0.033 A 
ATOM     22  C   UNL     1      15.539   7.401  19.787  0.00  0.00    +0.033 A 
ATOM     23  C   UNL     1      13.629   7.559  21.728  0.00  0.00    +0.111 A 
ATOM     24  C   UNL     1      14.255   6.909  19.616  0.00  0.00    +0.111 A 
ENDBRANCH  15  18
ENDBRANCH  12   5
ENDBRANCH  10  12
TORSDOF 7
ENDMDL
MODEL 9
REMARK VINA RESULT:      -5.8     26.354     29.537
REMARK  Name = 75536804
REMARK  7 active torsions:
REMARK  status: ('A' for Active; 'I' for Inactive)
REMARK    1  A    between atoms: O_2  and  C_9
REMARK    2  A    between atoms: N_4  and  C_8
REMARK    3  A    between atoms: N_4  and  C_13
REMARK    4  A    between atoms: N_5  and  C_12
REMARK    5  A    between atoms: C_10  and  C_12
REMARK    6  A    between atoms: C_13  and  C_14
REMARK    7  A    between atoms: C_15  and  C_18
REMARK                            x       y       z     vdW  Elec       q    Type
REMARK                         _______ _______ _______ _____ _____    ______ ____
ROOT
ATOM      1  O   UNL     1     -16.936   4.238  21.845  0.00  0.00    -0.371 OA
ATOM      8  C   UNL     1     -14.742   5.092  22.159  0.00  0.00    +0.111 C 
ATOM      9  C   UNL     1     -15.322   4.713  23.509  0.00  0.00    +0.164 C 
ATOM     10  C   UNL     1     -16.421   3.745  23.093  0.00  0.00    +0.165 C 
ATOM     11  C   UNL     1     -15.997   5.185  21.307  0.00  0.00    +0.181 C 
ENDROOT
BRANCH   9   2
ATOM      2  O   UNL     1     -14.373   4.100  24.359  0.00  0.00    -0.388 OA
ATOM     26  H   UNL     1     -13.491   4.220  23.969  0.00  0.00    +0.210 HD
ENDBRANCH   9   2
BRANCH   8   4
ATOM      4  N   UNL     1     -13.978   6.329  22.178  0.00  0.00    -0.305 NA
ATOM     25  H   UNL     1     -13.725   6.549  23.142  0.00  0.00    +0.123 HD
BRANCH   4  13
ATOM     13  C   UNL     1     -12.760   6.207  21.387  0.00  0.00    +0.116 C 
BRANCH  13  14
ATOM      6  N   UNL     1     -11.358  10.030  20.005  0.00  0.00    -0.263 NA
ATOM     14  C   UNL     1     -12.269   7.545  20.904  0.00  0.00    -0.031 A 
ATOM     16  C   UNL     1     -12.851   8.715  21.378  0.00  0.00    +0.024 A 
ATOM     17  C   UNL     1     -11.231   7.616  19.981  0.00  0.00    +0.024 A 
ATOM     19  C   UNL     1     -12.363   9.921  20.901  0.00  0.00    +0.111 A 
ATOM     20  C   UNL     1     -10.816   8.871  19.567  0.00  0.00    +0.111 A 
ENDBRANCH  13  14
ENDBRANCH   4  13
ENDBRANCH   8   4
BRANCH  10  12
ATOM     12  C   UNL     1     -17.547   3.642  24.108  0.00  0.00    +0.138 C 
BRANCH  12   5
ATOM      3  O   UNL     1     -17.184   1.132  25.454  0.00  0.00    -0.270 OA
ATOM      5  N   UNL     1     -17.037   3.447  25.435  0.00  0.00    -0.309 N 
ATOM     15  C   UNL     1     -16.895   2.188  26.010  0.00  0.00    +0.244 C 
ATOM     27  H   UNL     1     -16.843   4.283  25.975  0.00  0.00    +0.149 HD
BRANCH  15  18
ATOM      7  N   UNL     1     -15.402   2.097  30.022  0.00  0.00    -0.263 NA
ATOM     18  C   UNL     1     -16.379   2.158  27.402  0.00  0.00    +0.040 A 
ATOM     21  C   UNL     1     -15.786   3.288  27.953  0.00  0.00    +0.033 A 
ATOM     22  C   UNL     1     -16.484   0.997  28.160  0.00  0.00    +0.033 A 
ATOM     23  C   UNL     1     -15.317   3.207  29.254  0.00  0.00    +0.111 A 
ATOM     24  C   UNL     1     -15.985   1.018  29.453  0.00  0.00    +0.111 A 
ENDBRANCH  15  18
ENDBRANCH  12   5
ENDBRANCH  10  12
TORSDOF 7
ENDMDL
MODEL 10
REMARK VINA RESULT:      -5.8     26.370     28.940
REMARK  Name = 75536804
REMARK  7 active torsions:
REMARK  status: ('A' for Active; 'I' for Inactive)
REMARK    1  A    between atoms: O_2  and  C_9
REMARK    2  A    between atoms: N_4  and  C_8
REMARK    3  A    between atoms: N_4  and  C_13
REMARK    4  A    between atoms: N_5  and  C_12
REMARK    5  A    between atoms: C_10  and  C_12
REMARK    6  A    between atoms: C_13  and  C_14
REMARK    7  A    between atoms: C_15  and  C_18
REMARK                            x       y       z     vdW  Elec       q    Type
REMARK                         _______ _______ _______ _____ _____    ______ ____
ROOT
ATOM      1  O   UNL     1      -4.000 -12.298  15.799  0.00  0.00    -0.371 OA
ATOM      8  C   UNL     1      -2.109 -11.882  14.424  0.00  0.00    +0.111 C 
ATOM      9  C   UNL     1      -2.587 -10.569  15.016  0.00  0.00    +0.164 C 
ATOM     10  C   UNL     1      -3.391 -11.063  16.212  0.00  0.00    +0.165 C 
ATOM     11  C   UNL     1      -3.333 -12.761  14.612  0.00  0.00    +0.181 C 
ENDROOT
BRANCH   9   2
ATOM      2  O   UNL     1      -1.522  -9.726  15.409  0.00  0.00    -0.388 OA
ATOM     26  H   UNL     1      -1.816  -8.804  15.325  0.00  0.00    +0.210 HD
ENDBRANCH   9   2
BRANCH   8   4
ATOM      4  N   UNL     1      -1.694 -11.778  13.034  0.00  0.00    -0.305 NA
ATOM     25  H   UNL     1      -0.806 -12.267  12.914  0.00  0.00    +0.123 HD
BRANCH   4  13
ATOM     13  C   UNL     1      -2.684 -12.371  12.144  0.00  0.00    +0.116 C 
BRANCH  13  14
ATOM      6  N   UNL     1      -4.042  -9.577   9.169  0.00  0.00    -0.263 NA
ATOM     14  C   UNL     1      -3.159 -11.393  11.102  0.00  0.00    -0.031 A 
ATOM     16  C   UNL     1      -2.714 -10.076  11.127  0.00  0.00    +0.024 A 
ATOM     17  C   UNL     1      -4.044 -11.804  10.112  0.00  0.00    +0.024 A 
ATOM     19  C   UNL     1      -3.181  -9.216  10.147  0.00  0.00    +0.111 A 
ATOM     20  C   UNL     1      -4.452 -10.866   9.177  0.00  0.00    +0.111 A 
ENDBRANCH  13  14
ENDBRANCH   4  13
ENDBRANCH   8   4
BRANCH  10  12
ATOM     12  C   UNL     1      -4.463 -10.086  16.661  0.00  0.00    +0.138 C 
BRANCH  12   5
ATOM      3  O   UNL     1      -7.174  -9.225  17.046  0.00  0.00    -0.270 OA
ATOM      5  N   UNL     1      -5.464 -10.738  17.454  0.00  0.00    -0.309 N 
ATOM     15  C   UNL     1      -6.759 -10.247  17.585  0.00  0.00    +0.244 C 
ATOM     27  H   UNL     1      -5.169 -11.553  17.982  0.00  0.00    +0.149 HD
BRANCH  15  18
ATOM      7  N   UNL     1      -9.388 -12.488  20.115  0.00  0.00    -0.263 NA
ATOM     18  C   UNL     1      -7.670 -11.024  18.464  0.00  0.00    +0.040 A 
ATOM     21  C   UNL     1      -7.225 -12.189  19.077  0.00  0.00    +0.033 A 
ATOM     22  C   UNL     1      -8.974 -10.590  18.676  0.00  0.00    +0.033 A 
ATOM     23  C   UNL     1      -8.114 -12.879  19.885  0.00  0.00    +0.111 A 
ATOM     24  C   UNL     1      -9.786 -11.350  19.502  0.00  0.00    +0.111 A 
ENDBRANCH  15  18
ENDBRANCH  12   5
ENDBRANCH  10  12
TORSDOF 7
ENDMDL
