MODEL 1
REMARK VINA RESULT:      -5.9      0.000      0.000
REMARK  Name = 56775426
REMARK  9 active torsions:
REMARK  status: ('A' for Active; 'I' for Inactive)
REMARK    1  A    between atoms: N_4  and  C_8
REMARK    2  A    between atoms: N_4  and  C_9
REMARK    3  A    between atoms: N_7  and  C_22
REMARK    4  A    between atoms: N_7  and  C_23
REMARK    5  A    between atoms: N_7  and  C_24
REMARK    6  A    between atoms: C_8  and  C_12
REMARK    7  A    between atoms: C_12  and  C_17
REMARK    8  A    between atoms: C_18  and  C_21
REMARK    9  A    between atoms: C_20  and  C_22
REMARK                            x       y       z     vdW  Elec       q    Type
REMARK                         _______ _______ _______ _____ _____    ______ ____
ROOT
ATOM      1  O   UNL     1      10.169   7.632  22.177  0.00  0.00    -0.376 OA
ATOM      8  C   UNL     1      11.984   8.610  21.627  0.00  0.00    +0.072 C 
ATOM     10  C   UNL     1      10.972   8.680  22.765  0.00  0.00    +0.184 C 
ATOM     11  C   UNL     1      11.037   7.581  21.022  0.00  0.00    +0.184 C 
ENDROOT
BRANCH   8   4
ATOM      4  N   UNL     1      13.187   7.922  22.105  0.00  0.00    -0.304 NA
ATOM     25  H   UNL     1      13.055   6.942  22.355  0.00  0.00    +0.123 HD
BRANCH   4   9
ATOM      3  O   UNL     1      17.854   5.320  19.063  0.00  0.00    -0.276 OA
ATOM      5  N   UNL     1      16.750   7.154  19.966  0.00  0.00    -0.302 N 
ATOM      9  C   UNL     1      14.247   8.055  21.110  0.00  0.00    +0.057 C 
ATOM     13  C   UNL     1      14.329   6.783  20.255  0.00  0.00    +0.037 C 
ATOM     14  C   UNL     1      15.590   8.323  21.802  0.00  0.00    +0.037 C 
ATOM     15  C   UNL     1      15.494   6.863  19.270  0.00  0.00    +0.109 C 
ATOM     16  C   UNL     1      16.731   8.371  20.786  0.00  0.00    +0.109 C 
ATOM     18  C   UNL     1      17.852   6.319  19.786  0.00  0.00    +0.212 C 
ATOM     21  C   UNL     1      19.106   6.684  20.539  0.00  0.00    +0.109 C 
ENDBRANCH   4   9
ENDBRANCH   8   4
BRANCH   8  12
ATOM     12  C   UNL     1      12.294   9.857  20.855  0.00  0.00    +0.085 C 
BRANCH  12  17
ATOM      2  O   UNL     1      13.271  12.350  23.279  0.00  0.00    -0.358 OA
ATOM      6  N   UNL     1      13.478  11.169  22.578  0.00  0.00    -0.083 NA
ATOM     17  C   UNL     1      12.411  11.048  21.782  0.00  0.00    +0.086 A 
ATOM     19  C   UNL     1      11.507  12.113  21.938  0.00  0.00    +0.072 A 
ATOM     20  C   UNL     1      12.095  12.903  22.889  0.00  0.00    +0.151 A 
BRANCH  20  22
ATOM     22  C   UNL     1      11.719  14.167  23.535  0.00  0.00    +0.161 C 
BRANCH  22   7
ATOM      7  N   UNL     1      10.654  14.010  24.541  0.00  0.00    -0.301 NA
ATOM     23  C   UNL     1      10.615  15.177  25.415  0.00  0.00    +0.105 C 
ATOM     24  C   UNL     1      10.870  12.791  25.312  0.00  0.00    +0.105 C 
ENDBRANCH  22   7
ENDBRANCH  20  22
ENDBRANCH  12  17
ENDBRANCH   8  12
TORSDOF 6
ENDMDL
MODEL 2
REMARK VINA RESULT:      -5.3     26.664     30.259
REMARK  Name = 56775426
REMARK  9 active torsions:
REMARK  status: ('A' for Active; 'I' for Inactive)
REMARK    1  A    between atoms: N_4  and  C_8
REMARK    2  A    between atoms: N_4  and  C_9
REMARK    3  A    between atoms: N_7  and  C_22
REMARK    4  A    between atoms: N_7  and  C_23
REMARK    5  A    between atoms: N_7  and  C_24
REMARK    6  A    between atoms: C_8  and  C_12
REMARK    7  A    between atoms: C_12  and  C_17
REMARK    8  A    between atoms: C_18  and  C_21
REMARK    9  A    between atoms: C_20  and  C_22
REMARK                            x       y       z     vdW  Elec       q    Type
REMARK                         _______ _______ _______ _____ _____    ______ ____
ROOT
ATOM      1  O   UNL     1      -8.209 -12.350  20.250  0.00  0.00    -0.376 OA
ATOM      8  C   UNL     1      -8.355 -11.209  18.453  0.00  0.00    +0.072 C 
ATOM     10  C   UNL     1      -9.157 -12.296  19.160  0.00  0.00    +0.184 C 
ATOM     11  C   UNL     1      -7.353 -11.391  19.587  0.00  0.00    +0.184 C 
ENDROOT
BRANCH   8   4
ATOM      4  N   UNL     1      -9.041  -9.925  18.630  0.00  0.00    -0.304 NA
ATOM     25  H   UNL     1      -8.447  -9.156  18.940  0.00  0.00    +0.123 HD
BRANCH   4   9
ATOM      3  O   UNL     1     -12.088  -5.691  15.375  0.00  0.00    -0.276 OA
ATOM      5  N   UNL     1     -11.583  -7.888  15.938  0.00  0.00    -0.302 N 
ATOM      9  C   UNL     1      -9.727  -9.569  17.392  0.00  0.00    +0.057 C 
ATOM     13  C   UNL     1      -9.362  -8.137  16.979  0.00  0.00    +0.037 C 
ATOM     14  C   UNL     1     -11.245  -9.705  17.572  0.00  0.00    +0.037 C 
ATOM     15  C   UNL     1     -10.144  -7.712  15.738  0.00  0.00    +0.109 C 
ATOM     16  C   UNL     1     -11.990  -9.246  16.318  0.00  0.00    +0.109 C 
ATOM     18  C   UNL     1     -12.450  -6.816  15.728  0.00  0.00    +0.212 C 
ATOM     21  C   UNL     1     -13.917  -7.078  15.959  0.00  0.00    +0.109 C 
ENDBRANCH   4   9
ENDBRANCH   8   4
BRANCH   8  12
ATOM     12  C   UNL     1      -7.908 -11.441  17.041  0.00  0.00    +0.085 C 
BRANCH  12  17
ATOM      2  O   UNL     1      -4.819  -9.638  16.534  0.00  0.00    -0.358 OA
ATOM      6  N   UNL     1      -6.200  -9.698  16.669  0.00  0.00    -0.083 NA
ATOM     17  C   UNL     1      -6.474 -10.993  16.852  0.00  0.00    +0.086 A 
ATOM     19  C   UNL     1      -5.316 -11.789  16.841  0.00  0.00    +0.072 A 
ATOM     20  C   UNL     1      -4.304 -10.889  16.639  0.00  0.00    +0.151 A 
BRANCH  20  22
ATOM     22  C   UNL     1      -2.845 -11.010  16.519  0.00  0.00    +0.161 C 
BRANCH  22   7
ATOM      7  N   UNL     1      -2.350 -10.735  15.159  0.00  0.00    -0.301 NA
ATOM     23  C   UNL     1      -2.065 -11.988  14.468  0.00  0.00    +0.105 C 
ATOM     24  C   UNL     1      -1.160  -9.894  15.220  0.00  0.00    +0.105 C 
ENDBRANCH  22   7
ENDBRANCH  20  22
ENDBRANCH  12  17
ENDBRANCH   8  12
TORSDOF 6
ENDMDL
MODEL 3
REMARK VINA RESULT:      -5.3      4.870      8.154
REMARK  Name = 56775426
REMARK  9 active torsions:
REMARK  status: ('A' for Active; 'I' for Inactive)
REMARK    1  A    between atoms: N_4  and  C_8
REMARK    2  A    between atoms: N_4  and  C_9
REMARK    3  A    between atoms: N_7  and  C_22
REMARK    4  A    between atoms: N_7  and  C_23
REMARK    5  A    between atoms: N_7  and  C_24
REMARK    6  A    between atoms: C_8  and  C_12
REMARK    7  A    between atoms: C_12  and  C_17
REMARK    8  A    between atoms: C_18  and  C_21
REMARK    9  A    between atoms: C_20  and  C_22
REMARK                            x       y       z     vdW  Elec       q    Type
REMARK                         _______ _______ _______ _____ _____    ______ ____
ROOT
ATOM      1  O   UNL     1      19.940   9.733  22.337  0.00  0.00    -0.376 OA
ATOM      8  C   UNL     1      19.732   7.650  21.918  0.00  0.00    +0.072 C 
ATOM     10  C   UNL     1      19.432   8.971  21.218  0.00  0.00    +0.184 C 
ATOM     11  C   UNL     1      20.161   8.521  23.094  0.00  0.00    +0.184 C 
ENDROOT
BRANCH   8   4
ATOM      4  N   UNL     1      20.927   7.055  21.310  0.00  0.00    -0.304 NA
ATOM     25  H   UNL     1      21.785   7.596  21.421  0.00  0.00    +0.123 HD
BRANCH   4   9
ATOM      3  O   UNL     1      24.793   2.590  23.019  0.00  0.00    -0.276 OA
ATOM      5  N   UNL     1      22.757   3.351  22.198  0.00  0.00    -0.302 N 
ATOM      9  C   UNL     1      21.109   5.703  21.829  0.00  0.00    +0.057 C 
ATOM     13  C   UNL     1      22.259   5.678  22.844  0.00  0.00    +0.037 C 
ATOM     14  C   UNL     1      21.389   4.729  20.677  0.00  0.00    +0.037 C 
ATOM     15  C   UNL     1      22.529   4.254  23.328  0.00  0.00    +0.109 C 
ATOM     16  C   UNL     1      21.677   3.323  21.205  0.00  0.00    +0.109 C 
ATOM     18  C   UNL     1      23.915   2.575  22.153  0.00  0.00    +0.212 C 
ATOM     21  C   UNL     1      24.077   1.674  20.955  0.00  0.00    +0.109 C 
ENDBRANCH   4   9
ENDBRANCH   8   4
BRANCH   8  12
ATOM     12  C   UNL     1      18.622   6.663  22.110  0.00  0.00    +0.085 C 
BRANCH  12  17
ATOM      2  O   UNL     1      17.135   6.109  18.865  0.00  0.00    -0.358 OA
ATOM      6  N   UNL     1      18.172   5.983  19.780  0.00  0.00    -0.083 NA
ATOM     17  C   UNL     1      17.738   6.602  20.882  0.00  0.00    +0.086 A 
ATOM     19  C   UNL     1      16.446   7.132  20.722  0.00  0.00    +0.072 A 
ATOM     20  C   UNL     1      16.113   6.794  19.437  0.00  0.00    +0.151 A 
BRANCH  20  22
ATOM     22  C   UNL     1      14.925   7.019  18.603  0.00  0.00    +0.161 C 
BRANCH  22   7
ATOM      7  N   UNL     1      13.874   7.792  19.286  0.00  0.00    -0.301 NA
ATOM     23  C   UNL     1      12.608   7.068  19.236  0.00  0.00    +0.105 C 
ATOM     24  C   UNL     1      13.743   9.109  18.674  0.00  0.00    +0.105 C 
ENDBRANCH  22   7
ENDBRANCH  20  22
ENDBRANCH  12  17
ENDBRANCH   8  12
TORSDOF 6
ENDMDL
MODEL 4
REMARK VINA RESULT:      -5.3      3.584      3.968
REMARK  Name = 56775426
REMARK  9 active torsions:
REMARK  status: ('A' for Active; 'I' for Inactive)
REMARK    1  A    between atoms: N_4  and  C_8
REMARK    2  A    between atoms: N_4  and  C_9
REMARK    3  A    between atoms: N_7  and  C_22
REMARK    4  A    between atoms: N_7  and  C_23
REMARK    5  A    between atoms: N_7  and  C_24
REMARK    6  A    between atoms: C_8  and  C_12
REMARK    7  A    between atoms: C_12  and  C_17
REMARK    8  A    between atoms: C_18  and  C_21
REMARK    9  A    between atoms: C_20  and  C_22
REMARK                            x       y       z     vdW  Elec       q    Type
REMARK                         _______ _______ _______ _____ _____    ______ ____
ROOT
ATOM      1  O   UNL     1      12.767   6.518  21.587  0.00  0.00    -0.376 OA
ATOM      8  C   UNL     1      12.726   8.146  20.207  0.00  0.00    +0.072 C 
ATOM     10  C   UNL     1      13.356   7.838  21.561  0.00  0.00    +0.184 C 
ATOM     11  C   UNL     1      12.064   6.780  20.351  0.00  0.00    +0.184 C 
ENDROOT
BRANCH   8   4
ATOM      4  N   UNL     1      13.763   8.061  19.173  0.00  0.00    -0.304 NA
ATOM     25  H   UNL     1      13.787   7.183  18.655  0.00  0.00    +0.123 HD
BRANCH   4   9
ATOM      3  O   UNL     1      15.203  10.609  13.766  0.00  0.00    -0.276 OA
ATOM      5  N   UNL     1      14.582  10.731  16.002  0.00  0.00    -0.302 N 
ATOM      9  C   UNL     1      13.622   9.189  18.256  0.00  0.00    +0.057 C 
ATOM     13  C   UNL     1      13.480   8.681  16.815  0.00  0.00    +0.037 C 
ATOM     14  C   UNL     1      14.835  10.122  18.379  0.00  0.00    +0.037 C 
ATOM     15  C   UNL     1      13.427   9.847  15.830  0.00  0.00    +0.109 C 
ATOM     16  C   UNL     1      14.756  11.259  17.360  0.00  0.00    +0.109 C 
ATOM     18  C   UNL     1      15.390  11.038  14.907  0.00  0.00    +0.212 C 
ATOM     21  C   UNL     1      16.561  11.952  15.168  0.00  0.00    +0.109 C 
ENDBRANCH   4   9
ENDBRANCH   8   4
BRANCH   8  12
ATOM     12  C   UNL     1      11.863   9.362  20.069  0.00  0.00    +0.085 C 
BRANCH  12  17
ATOM      2  O   UNL     1      10.555  10.177  23.336  0.00  0.00    -0.358 OA
ATOM      6  N   UNL     1      10.583   9.409  22.179  0.00  0.00    -0.083 NA
ATOM     17  C   UNL     1      11.544   9.952  21.426  0.00  0.00    +0.086 A 
ATOM     19  C   UNL     1      12.151  11.056  22.052  0.00  0.00    +0.072 A 
ATOM     20  C   UNL     1      11.493  11.154  23.248  0.00  0.00    +0.151 A 
BRANCH  20  22
ATOM     22  C   UNL     1      11.600  12.065  24.395  0.00  0.00    +0.161 C 
BRANCH  22   7
ATOM      7  N   UNL     1      10.378  12.855  24.625  0.00  0.00    -0.301 NA
ATOM     23  C   UNL     1      10.111  13.709  23.473  0.00  0.00    +0.105 C 
ATOM     24  C   UNL     1      10.517  13.650  25.840  0.00  0.00    +0.105 C 
ENDBRANCH  22   7
ENDBRANCH  20  22
ENDBRANCH  12  17
ENDBRANCH   8  12
TORSDOF 6
ENDMDL
MODEL 5
REMARK VINA RESULT:      -5.2     26.739     28.856
REMARK  Name = 56775426
REMARK  9 active torsions:
REMARK  status: ('A' for Active; 'I' for Inactive)
REMARK    1  A    between atoms: N_4  and  C_8
REMARK    2  A    between atoms: N_4  and  C_9
REMARK    3  A    between atoms: N_7  and  C_22
REMARK    4  A    between atoms: N_7  and  C_23
REMARK    5  A    between atoms: N_7  and  C_24
REMARK    6  A    between atoms: C_8  and  C_12
REMARK    7  A    between atoms: C_12  and  C_17
REMARK    8  A    between atoms: C_18  and  C_21
REMARK    9  A    between atoms: C_20  and  C_22
REMARK                            x       y       z     vdW  Elec       q    Type
REMARK                         _______ _______ _______ _____ _____    ______ ____
ROOT
ATOM      1  O   UNL     1      -0.902 -11.422  15.298  0.00  0.00    -0.376 OA
ATOM      8  C   UNL     1      -2.978 -11.259  14.828  0.00  0.00    +0.072 C 
ATOM     10  C   UNL     1      -2.028 -10.751  15.907  0.00  0.00    +0.184 C 
ATOM     11  C   UNL     1      -1.764 -12.014  14.298  0.00  0.00    +0.184 C 
ENDROOT
BRANCH   8   4
ATOM      4  N   UNL     1      -3.285 -10.156  13.912  0.00  0.00    -0.304 NA
ATOM     25  H   UNL     1      -2.479  -9.613  13.602  0.00  0.00    +0.123 HD
BRANCH   4   9
ATOM      3  O   UNL     1      -4.832  -9.547   7.993  0.00  0.00    -0.276 OA
ATOM      5  N   UNL     1      -5.231 -10.274  10.163  0.00  0.00    -0.302 N 
ATOM      9  C   UNL     1      -4.020 -10.675  12.762  0.00  0.00    +0.057 C 
ATOM     13  C   UNL     1      -3.171 -10.542  11.491  0.00  0.00    +0.037 C 
ATOM     14  C   UNL     1      -5.347  -9.922  12.602  0.00  0.00    +0.037 C 
ATOM     15  C   UNL     1      -3.958 -10.991  10.261  0.00  0.00    +0.109 C 
ATOM     16  C   UNL     1      -6.091 -10.383  11.348  0.00  0.00    +0.109 C 
ATOM     18  C   UNL     1      -5.556  -9.595   8.989  0.00  0.00    +0.212 C 
ATOM     21  C   UNL     1      -6.883  -8.879   8.969  0.00  0.00    +0.109 C 
ENDBRANCH   4   9
ENDBRANCH   8   4
BRANCH   8  12
ATOM     12  C   UNL     1      -4.194 -12.033  15.238  0.00  0.00    +0.085 C 
BRANCH  12  17
ATOM      2  O   UNL     1      -6.163  -9.748  17.225  0.00  0.00    -0.358 OA
ATOM      6  N   UNL     1      -5.566 -10.142  16.035  0.00  0.00    -0.083 NA
ATOM     17  C   UNL     1      -4.959 -11.299  16.318  0.00  0.00    +0.086 A 
ATOM     19  C   UNL     1      -5.139 -11.680  17.659  0.00  0.00    +0.072 A 
ATOM     20  C   UNL     1      -5.903 -10.672  18.185  0.00  0.00    +0.151 A 
BRANCH  20  22
ATOM     22  C   UNL     1      -6.465 -10.411  19.516  0.00  0.00    +0.161 C 
BRANCH  22   7
ATOM      7  N   UNL     1      -7.750 -11.093  19.747  0.00  0.00    -0.301 NA
ATOM     23  C   UNL     1      -7.562 -12.539  19.714  0.00  0.00    +0.105 C 
ATOM     24  C   UNL     1      -8.726 -10.672  18.749  0.00  0.00    +0.105 C 
ENDBRANCH  22   7
ENDBRANCH  20  22
ENDBRANCH  12  17
ENDBRANCH   8  12
TORSDOF 6
ENDMDL
MODEL 6
REMARK VINA RESULT:      -5.2     27.545     29.294
REMARK  Name = 56775426
REMARK  9 active torsions:
REMARK  status: ('A' for Active; 'I' for Inactive)
REMARK    1  A    between atoms: N_4  and  C_8
REMARK    2  A    between atoms: N_4  and  C_9
REMARK    3  A    between atoms: N_7  and  C_22
REMARK    4  A    between atoms: N_7  and  C_23
REMARK    5  A    between atoms: N_7  and  C_24
REMARK    6  A    between atoms: C_8  and  C_12
REMARK    7  A    between atoms: C_12  and  C_17
REMARK    8  A    between atoms: C_18  and  C_21
REMARK    9  A    between atoms: C_20  and  C_22
REMARK                            x       y       z     vdW  Elec       q    Type
REMARK                         _______ _______ _______ _____ _____    ______ ____
ROOT
ATOM      1  O   UNL     1      -2.197 -13.732  12.680  0.00  0.00    -0.376 OA
ATOM      8  C   UNL     1      -2.895 -12.283  14.083  0.00  0.00    +0.072 C 
ATOM     10  C   UNL     1      -3.476 -13.109  12.941  0.00  0.00    +0.184 C 
ATOM     11  C   UNL     1      -1.563 -12.909  13.686  0.00  0.00    +0.184 C 
ENDROOT
BRANCH   8   4
ATOM      4  N   UNL     1      -3.330 -12.864  15.356  0.00  0.00    -0.304 NA
ATOM     25  H   UNL     1      -2.579 -13.090  16.009  0.00  0.00    +0.123 HD
BRANCH   4   9
ATOM      3  O   UNL     1      -6.299 -11.145  20.458  0.00  0.00    -0.276 OA
ATOM      5  N   UNL     1      -6.126 -11.373  18.153  0.00  0.00    -0.302 N 
ATOM      9  C   UNL     1      -4.301 -11.975  15.986  0.00  0.00    +0.057 C 
ATOM     13  C   UNL     1      -3.794 -11.535  17.367  0.00  0.00    +0.037 C 
ATOM     14  C   UNL     1      -5.658 -12.679  16.113  0.00  0.00    +0.037 C 
ATOM     15  C   UNL     1      -4.838 -10.680  18.083  0.00  0.00    +0.109 C 
ATOM     16  C   UNL     1      -6.665 -11.800  16.856  0.00  0.00    +0.109 C 
ATOM     18  C   UNL     1      -6.756 -11.544  19.385  0.00  0.00    +0.212 C 
ATOM     21  C   UNL     1      -8.077 -12.271  19.372  0.00  0.00    +0.109 C 
ENDBRANCH   4   9
ENDBRANCH   8   4
BRANCH   8  12
ATOM     12  C   UNL     1      -3.038 -10.791  14.044  0.00  0.00    +0.085 C 
BRANCH  12  17
ATOM      2  O   UNL     1      -2.213  -9.669  10.711  0.00  0.00    -0.358 OA
ATOM      6  N   UNL     1      -1.867 -10.135  11.972  0.00  0.00    -0.083 NA
ATOM     17  C   UNL     1      -3.028 -10.288  12.616  0.00  0.00    +0.086 A 
ATOM     19  C   UNL     1      -4.130  -9.937  11.817  0.00  0.00    +0.072 A 
ATOM     20  C   UNL     1      -3.563  -9.556  10.630  0.00  0.00    +0.151 A 
BRANCH  20  22
ATOM     22  C   UNL     1      -4.106  -9.073   9.354  0.00  0.00    +0.161 C 
BRANCH  22   7
ATOM      7  N   UNL     1      -5.355  -9.749   8.961  0.00  0.00    -0.301 NA
ATOM     23  C   UNL     1      -5.235 -10.272   7.604  0.00  0.00    +0.105 C 
ATOM     24  C   UNL     1      -6.478  -8.825   9.064  0.00  0.00    +0.105 C 
ENDBRANCH  22   7
ENDBRANCH  20  22
ENDBRANCH  12  17
ENDBRANCH   8  12
TORSDOF 6
ENDMDL
MODEL 7
REMARK VINA RESULT:      -5.1     26.969     30.351
REMARK  Name = 56775426
REMARK  9 active torsions:
REMARK  status: ('A' for Active; 'I' for Inactive)
REMARK    1  A    between atoms: N_4  and  C_8
REMARK    2  A    between atoms: N_4  and  C_9
REMARK    3  A    between atoms: N_7  and  C_22
REMARK    4  A    between atoms: N_7  and  C_23
REMARK    5  A    between atoms: N_7  and  C_24
REMARK    6  A    between atoms: C_8  and  C_12
REMARK    7  A    between atoms: C_12  and  C_17
REMARK    8  A    between atoms: C_18  and  C_21
REMARK    9  A    between atoms: C_20  and  C_22
REMARK                            x       y       z     vdW  Elec       q    Type
REMARK                         _______ _______ _______ _____ _____    ______ ____
ROOT
ATOM      1  O   UNL     1      -8.644 -13.199  19.535  0.00  0.00    -0.376 OA
ATOM      8  C   UNL     1      -8.056 -11.364  18.616  0.00  0.00    +0.072 C 
ATOM     10  C   UNL     1      -7.660 -12.835  18.539  0.00  0.00    +0.184 C 
ATOM     11  C   UNL     1      -9.001 -11.810  19.725  0.00  0.00    +0.184 C 
ENDROOT
BRANCH   8   4
ATOM      4  N   UNL     1      -8.847 -11.026  17.428  0.00  0.00    -0.304 NA
ATOM     25  H   UNL     1      -9.388 -11.796  17.034  0.00  0.00    +0.123 HD
BRANCH   4   9
ATOM      3  O   UNL     1     -13.816  -7.713  15.967  0.00  0.00    -0.276 OA
ATOM      5  N   UNL     1     -11.710  -7.960  16.917  0.00  0.00    -0.302 N 
ATOM      9  C   UNL     1      -9.720  -9.897  17.736  0.00  0.00    +0.057 C 
ATOM     13  C   UNL     1     -11.187 -10.292  17.523  0.00  0.00    +0.037 C 
ATOM     14  C   UNL     1      -9.356  -8.694  16.857  0.00  0.00    +0.037 C 
ATOM     15  C   UNL     1     -12.111  -9.097  17.748  0.00  0.00    +0.109 C 
ATOM     16  C   UNL     1     -10.318  -7.529  17.094  0.00  0.00    +0.109 C 
ATOM     18  C   UNL     1     -12.641  -7.355  16.073  0.00  0.00    +0.212 C 
ATOM     21  C   UNL     1     -12.148  -6.193  15.248  0.00  0.00    +0.109 C 
ENDBRANCH   4   9
ENDBRANCH   8   4
BRANCH   8  12
ATOM     12  C   UNL     1      -7.001 -10.345  18.923  0.00  0.00    +0.085 C 
BRANCH  12  17
ATOM      2  O   UNL     1      -4.962 -10.005  15.961  0.00  0.00    -0.358 OA
ATOM      6  N   UNL     1      -6.145  -9.826  16.667  0.00  0.00    -0.083 NA
ATOM     17  C   UNL     1      -5.914 -10.361  17.870  0.00  0.00    +0.086 A 
ATOM     19  C   UNL     1      -4.615 -10.888  17.978  0.00  0.00    +0.072 A 
ATOM     20  C   UNL     1      -4.059 -10.638  16.752  0.00  0.00    +0.151 A 
BRANCH  20  22
ATOM     22  C   UNL     1      -2.743 -10.908  16.159  0.00  0.00    +0.161 C 
BRANCH  22   7
ATOM      7  N   UNL     1      -2.800 -11.147  14.706  0.00  0.00    -0.301 NA
ATOM     23  C   UNL     1      -2.572 -12.560  14.422  0.00  0.00    +0.105 C 
ATOM     24  C   UNL     1      -1.816 -10.315  14.023  0.00  0.00    +0.105 C 
ENDBRANCH  22   7
ENDBRANCH  20  22
ENDBRANCH  12  17
ENDBRANCH   8  12
TORSDOF 6
ENDMDL
MODEL 8
REMARK VINA RESULT:      -5.0     27.095     29.982
REMARK  Name = 56775426
REMARK  9 active torsions:
REMARK  status: ('A' for Active; 'I' for Inactive)
REMARK    1  A    between atoms: N_4  and  C_8
REMARK    2  A    between atoms: N_4  and  C_9
REMARK    3  A    between atoms: N_7  and  C_22
REMARK    4  A    between atoms: N_7  and  C_23
REMARK    5  A    between atoms: N_7  and  C_24
REMARK    6  A    between atoms: C_8  and  C_12
REMARK    7  A    between atoms: C_12  and  C_17
REMARK    8  A    between atoms: C_18  and  C_21
REMARK    9  A    between atoms: C_20  and  C_22
REMARK                            x       y       z     vdW  Elec       q    Type
REMARK                         _______ _______ _______ _____ _____    ______ ____
ROOT
ATOM      1  O   UNL     1     -10.055  -8.528  14.899  0.00  0.00    -0.376 OA
ATOM      8  C   UNL     1      -8.730  -9.859  15.915  0.00  0.00    +0.072 C 
ATOM     10  C   UNL     1      -9.085  -9.511  14.473  0.00  0.00    +0.184 C 
ATOM     11  C   UNL     1      -9.835  -8.876  16.286  0.00  0.00    +0.184 C 
ENDROOT
BRANCH   8   4
ATOM      4  N   UNL     1      -7.434  -9.257  16.240  0.00  0.00    -0.304 NA
ATOM     25  H   UNL     1      -7.360  -8.869  17.181  0.00  0.00    +0.123 HD
BRANCH   4   9
ATOM      3  O   UNL     1      -1.439 -10.612  16.423  0.00  0.00    -0.276 OA
ATOM      5  N   UNL     1      -3.584 -10.865  15.566  0.00  0.00    -0.302 N 
ATOM      9  C   UNL     1      -6.376 -10.235  16.010  0.00  0.00    +0.057 C 
ATOM     13  C   UNL     1      -5.347 -10.177  17.147  0.00  0.00    +0.037 C 
ATOM     14  C   UNL     1      -5.697  -9.971  14.660  0.00  0.00    +0.037 C 
ATOM     15  C   UNL     1      -4.182 -11.127  16.877  0.00  0.00    +0.109 C 
ATOM     16  C   UNL     1      -4.523 -10.925  14.440  0.00  0.00    +0.109 C 
ATOM     18  C   UNL     1      -2.215 -10.623  15.464  0.00  0.00    +0.212 C 
ATOM     21  C   UNL     1      -1.678 -10.358  14.080  0.00  0.00    +0.109 C 
ENDBRANCH   4   9
ENDBRANCH   8   4
BRANCH   8  12
ATOM     12  C   UNL     1      -8.841 -11.283  16.365  0.00  0.00    +0.085 C 
BRANCH  12  17
ATOM      2  O   UNL     1      -9.333 -11.108  19.940  0.00  0.00    -0.358 OA
ATOM      6  N   UNL     1      -8.586 -10.890  18.789  0.00  0.00    -0.083 NA
ATOM     17  C   UNL     1      -9.343 -11.358  17.792  0.00  0.00    +0.086 A 
ATOM     19  C   UNL     1     -10.566 -11.878  18.250  0.00  0.00    +0.072 A 
ATOM     20  C   UNL     1     -10.509 -11.696  19.606  0.00  0.00    +0.151 A 
BRANCH  20  22
ATOM     22  C   UNL     1     -11.427 -11.999  20.712  0.00  0.00    +0.161 C 
BRANCH  22   7
ATOM      7  N   UNL     1     -12.736 -11.335  20.578  0.00  0.00    -0.301 NA
ATOM     23  C   UNL     1     -12.570  -9.887  20.646  0.00  0.00    +0.105 C 
ATOM     24  C   UNL     1     -13.643 -11.803  21.619  0.00  0.00    +0.105 C 
ENDBRANCH  22   7
ENDBRANCH  20  22
ENDBRANCH  12  17
ENDBRANCH   8  12
TORSDOF 6
ENDMDL
MODEL 9
REMARK VINA RESULT:      -5.0      4.517     10.285
REMARK  Name = 56775426
REMARK  9 active torsions:
REMARK  status: ('A' for Active; 'I' for Inactive)
REMARK    1  A    between atoms: N_4  and  C_8
REMARK    2  A    between atoms: N_4  and  C_9
REMARK    3  A    between atoms: N_7  and  C_22
REMARK    4  A    between atoms: N_7  and  C_23
REMARK    5  A    between atoms: N_7  and  C_24
REMARK    6  A    between atoms: C_8  and  C_12
REMARK    7  A    between atoms: C_12  and  C_17
REMARK    8  A    between atoms: C_18  and  C_21
REMARK    9  A    between atoms: C_20  and  C_22
REMARK                            x       y       z     vdW  Elec       q    Type
REMARK                         _______ _______ _______ _____ _____    ______ ____
ROOT
ATOM      1  O   UNL     1      20.371   8.816  23.786  0.00  0.00    -0.376 OA
ATOM      8  C   UNL     1      19.761   7.754  22.038  0.00  0.00    +0.072 C 
ATOM     10  C   UNL     1      20.496   7.447  23.338  0.00  0.00    +0.184 C 
ATOM     11  C   UNL     1      19.753   9.195  22.535  0.00  0.00    +0.184 C 
ENDROOT
BRANCH   8   4
ATOM      4  N   UNL     1      18.400   7.216  22.126  0.00  0.00    -0.304 NA
ATOM     25  H   UNL     1      17.905   7.430  22.992  0.00  0.00    +0.123 HD
BRANCH   4   9
ATOM      3  O   UNL     1      13.045   9.261  19.904  0.00  0.00    -0.276 OA
ATOM      5  N   UNL     1      15.078   8.156  19.690  0.00  0.00    -0.302 N 
ATOM      9  C   UNL     1      17.627   7.667  20.974  0.00  0.00    +0.057 C 
ATOM     13  C   UNL     1      16.744   8.860  21.366  0.00  0.00    +0.037 C 
ATOM     14  C   UNL     1      16.766   6.518  20.433  0.00  0.00    +0.037 C 
ATOM     15  C   UNL     1      15.857   9.288  20.199  0.00  0.00    +0.109 C 
ATOM     16  C   UNL     1      15.876   6.993  19.284  0.00  0.00    +0.109 C 
ATOM     18  C   UNL     1      13.691   8.259  19.588  0.00  0.00    +0.212 C 
ATOM     21  C   UNL     1      12.962   7.049  19.059  0.00  0.00    +0.109 C 
ENDBRANCH   4   9
ENDBRANCH   8   4
BRANCH   8  12
ATOM     12  C   UNL     1      20.430   7.437  20.735  0.00  0.00    +0.085 C 
BRANCH  12  17
ATOM      2  O   UNL     1      20.972   3.867  20.625  0.00  0.00    -0.358 OA
ATOM      6  N   UNL     1      20.156   4.989  20.565  0.00  0.00    -0.083 NA
ATOM     17  C   UNL     1      20.980   6.026  20.743  0.00  0.00    +0.086 A 
ATOM     19  C   UNL     1      22.315   5.621  20.919  0.00  0.00    +0.072 A 
ATOM     20  C   UNL     1      22.255   4.256  20.836  0.00  0.00    +0.151 A 
BRANCH  20  22
ATOM     22  C   UNL     1      23.258   3.187  20.926  0.00  0.00    +0.161 C 
BRANCH  22   7
ATOM      7  N   UNL     1      24.642   3.677  20.793  0.00  0.00    -0.301 NA
ATOM     23  C   UNL     1      25.177   3.315  19.485  0.00  0.00    +0.105 C 
ATOM     24  C   UNL     1      25.470   3.131  21.862  0.00  0.00    +0.105 C 
ENDBRANCH  22   7
ENDBRANCH  20  22
ENDBRANCH  12  17
ENDBRANCH   8  12
TORSDOF 6
ENDMDL
MODEL 10
REMARK VINA RESULT:      -5.0     27.718     29.631
REMARK  Name = 56775426
REMARK  9 active torsions:
REMARK  status: ('A' for Active; 'I' for Inactive)
REMARK    1  A    between atoms: N_4  and  C_8
REMARK    2  A    between atoms: N_4  and  C_9
REMARK    3  A    between atoms: N_7  and  C_22
REMARK    4  A    between atoms: N_7  and  C_23
REMARK    5  A    between atoms: N_7  and  C_24
REMARK    6  A    between atoms: C_8  and  C_12
REMARK    7  A    between atoms: C_12  and  C_17
REMARK    8  A    between atoms: C_18  and  C_21
REMARK    9  A    between atoms: C_20  and  C_22
REMARK                            x       y       z     vdW  Elec       q    Type
REMARK                         _______ _______ _______ _____ _____    ______ ____
ROOT
ATOM      1  O   UNL     1      -3.397 -12.787  10.613  0.00  0.00    -0.376 OA
ATOM      8  C   UNL     1      -4.258 -11.231  11.794  0.00  0.00    +0.072 C 
ATOM     10  C   UNL     1      -4.636 -12.042  10.560  0.00  0.00    +0.184 C 
ATOM     11  C   UNL     1      -2.937 -11.989  11.729  0.00  0.00    +0.184 C 
ENDROOT
BRANCH   8   4
ATOM      4  N   UNL     1      -5.030 -11.725  12.939  0.00  0.00    -0.304 NA
ATOM     25  H   UNL     1      -4.937 -12.724  13.125  0.00  0.00    +0.123 HD
BRANCH   4   9
ATOM      3  O   UNL     1      -4.223 -11.588  19.033  0.00  0.00    -0.276 OA
ATOM      5  N   UNL     1      -4.739 -10.590  16.999  0.00  0.00    -0.302 N 
ATOM      9  C   UNL     1      -4.680 -10.952  14.127  0.00  0.00    +0.057 C 
ATOM     13  C   UNL     1      -3.801 -11.793  15.062  0.00  0.00    +0.037 C 
ATOM     14  C   UNL     1      -5.952 -10.496  14.853  0.00  0.00    +0.037 C 
ATOM     15  C   UNL     1      -3.502 -11.037  16.355  0.00  0.00    +0.109 C 
ATOM     16  C   UNL     1      -5.610  -9.766  16.152  0.00  0.00    +0.109 C 
ATOM     18  C   UNL     1      -4.988 -10.923  18.330  0.00  0.00    +0.212 C 
ATOM     21  C   UNL     1      -6.285 -10.428  18.918  0.00  0.00    +0.109 C 
ENDBRANCH   4   9
ENDBRANCH   8   4
BRANCH   8  12
ATOM     12  C   UNL     1      -4.245  -9.735  11.703  0.00  0.00    +0.085 C 
BRANCH  12  17
ATOM      2  O   UNL     1      -7.562  -8.786  10.633  0.00  0.00    -0.358 OA
ATOM      6  N   UNL     1      -6.676  -9.337  11.550  0.00  0.00    -0.083 NA
ATOM     17  C   UNL     1      -5.473  -9.230  10.977  0.00  0.00    +0.086 A 
ATOM     19  C   UNL     1      -5.539  -8.625   9.710  0.00  0.00    +0.072 A 
ATOM     20  C   UNL     1      -6.873  -8.365   9.542  0.00  0.00    +0.151 A 
BRANCH  20  22
ATOM     22  C   UNL     1      -7.662  -7.751   8.466  0.00  0.00    +0.161 C 
BRANCH  22   7
ATOM      7  N   UNL     1      -7.537  -8.458   7.179  0.00  0.00    -0.301 NA
ATOM     23  C   UNL     1      -8.096  -7.644   6.105  0.00  0.00    +0.105 C 
ATOM     24  C   UNL     1      -8.205  -9.752   7.252  0.00  0.00    +0.105 C 
ENDBRANCH  22   7
ENDBRANCH  20  22
ENDBRANCH  12  17
ENDBRANCH   8  12
TORSDOF 6
ENDMDL
