MODEL 1
REMARK VINA RESULT:      -5.8      0.000      0.000
REMARK  Name = 86769020
REMARK  5 active torsions:
REMARK  status: ('A' for Active; 'I' for Inactive)
REMARK    1  A    between atoms: O_3  and  C_19
REMARK    2  A    between atoms: O_3  and  C_20
REMARK    3  A    between atoms: N_4  and  C_9
REMARK    4  A    between atoms: N_6  and  C_18
REMARK    5  A    between atoms: C_18  and  C_19
REMARK                            x       y       z     vdW  Elec       q    Type
REMARK                         _______ _______ _______ _____ _____    ______ ____
ROOT
ATOM      2  O   UNL     1      12.055   6.254  19.391  0.00  0.00    -0.252 OA
ATOM      4  N   UNL     1      11.393   9.725  23.035  0.00  0.00    -0.296 NA
ATOM      5  N   UNL     1      12.193   7.758  21.190  0.00  0.00    -0.278 N 
ATOM      6  N   UNL     1      13.914   7.659  19.750  0.00  0.00    -0.281 N 
ATOM      7  C   UNL     1      13.195   8.636  21.761  0.00  0.00    +0.109 C 
ATOM      8  C   UNL     1      12.565   9.966  22.170  0.00  0.00    +0.108 C 
ATOM     10  C   UNL     1      10.376   8.919  22.331  0.00  0.00    +0.104 C 
ATOM     11  C   UNL     1      14.254   8.737  20.664  0.00  0.00    +0.133 C 
ATOM     12  C   UNL     1      10.938   7.567  21.888  0.00  0.00    +0.125 C 
ATOM     15  C   UNL     1      12.647   7.111  20.032  0.00  0.00    +0.305 C 
ENDROOT
BRANCH   4   9
ATOM      1  O   UNL     1      11.222  13.690  24.405  0.00  0.00    -0.380 OA
ATOM      9  C   UNL     1      10.821  10.993  23.482  0.00  0.00    +0.061 C 
ATOM     13  C   UNL     1      11.282  11.313  24.906  0.00  0.00    +0.047 C 
ATOM     14  C   UNL     1      11.208  12.135  22.537  0.00  0.00    +0.047 C 
ATOM     16  C   UNL     1      10.785  12.691  25.327  0.00  0.00    +0.161 C 
ATOM     17  C   UNL     1      10.714  13.468  23.089  0.00  0.00    +0.161 C 
ENDBRANCH   4   9
BRANCH   6  18
ATOM     18  C   UNL     1      14.743   7.330  18.612  0.00  0.00    +0.137 C 
BRANCH  18  19
ATOM     19  C   UNL     1      14.137   7.840  17.316  0.00  0.00    +0.178 C 
BRANCH  19   3
ATOM      3  O   UNL     1      14.386   9.233  17.194  0.00  0.00    -0.381 OA
ATOM     20  C   UNL     1      13.182   9.963  17.001  0.00  0.00    +0.194 C 
ENDBRANCH  19   3
ENDBRANCH  18  19
ENDBRANCH   6  18
TORSDOF 4
ENDMDL
MODEL 2
REMARK VINA RESULT:      -5.8      2.392      6.865
REMARK  Name = 86769020
REMARK  5 active torsions:
REMARK  status: ('A' for Active; 'I' for Inactive)
REMARK    1  A    between atoms: O_3  and  C_19
REMARK    2  A    between atoms: O_3  and  C_20
REMARK    3  A    between atoms: N_4  and  C_9
REMARK    4  A    between atoms: N_6  and  C_18
REMARK    5  A    between atoms: C_18  and  C_19
REMARK                            x       y       z     vdW  Elec       q    Type
REMARK                         _______ _______ _______ _____ _____    ______ ____
ROOT
ATOM      2  O   UNL     1      10.439   8.104  22.700  0.00  0.00    -0.252 OA
ATOM      4  N   UNL     1      14.708   8.011  19.956  0.00  0.00    -0.296 NA
ATOM      5  N   UNL     1      12.253   8.464  21.252  0.00  0.00    -0.278 N 
ATOM      6  N   UNL     1      11.483  10.203  22.449  0.00  0.00    -0.281 N 
ATOM      7  C   UNL     1      13.016   9.600  20.776  0.00  0.00    +0.109 C 
ATOM      8  C   UNL     1      14.504   9.256  20.724  0.00  0.00    +0.108 C 
ATOM     10  C   UNL     1      13.986   6.884  20.580  0.00  0.00    +0.104 C 
ATOM     11  C   UNL     1      12.649  10.718  21.750  0.00  0.00    +0.133 C 
ATOM     12  C   UNL     1      12.483   7.160  20.668  0.00  0.00    +0.125 C 
ATOM     15  C   UNL     1      11.282   8.831  22.194  0.00  0.00    +0.305 C 
ENDROOT
BRANCH   4   9
ATOM      1  O   UNL     1      18.380   6.104  20.668  0.00  0.00    -0.380 OA
ATOM      9  C   UNL     1      16.133   7.707  19.849  0.00  0.00    +0.061 C 
ATOM     13  C   UNL     1      16.819   7.887  21.206  0.00  0.00    +0.047 C 
ATOM     14  C   UNL     1      16.355   6.280  19.336  0.00  0.00    +0.047 C 
ATOM     16  C   UNL     1      18.278   7.453  21.124  0.00  0.00    +0.161 C 
ATOM     17  C   UNL     1      17.840   5.935  19.358  0.00  0.00    +0.161 C 
ENDBRANCH   4   9
BRANCH   6  18
ATOM     18  C   UNL     1      10.744  11.004  23.398  0.00  0.00    +0.137 C 
BRANCH  18  19
ATOM     19  C   UNL     1      11.597  11.376  24.597  0.00  0.00    +0.178 C 
BRANCH  19   3
ATOM      3  O   UNL     1      10.762  11.865  25.638  0.00  0.00    -0.381 OA
ATOM     20  C   UNL     1      10.691  13.284  25.628  0.00  0.00    +0.194 C 
ENDBRANCH  19   3
ENDBRANCH  18  19
ENDBRANCH   6  18
TORSDOF 4
ENDMDL
MODEL 3
REMARK VINA RESULT:      -5.2     25.560     28.117
REMARK  Name = 86769020
REMARK  5 active torsions:
REMARK  status: ('A' for Active; 'I' for Inactive)
REMARK    1  A    between atoms: O_3  and  C_19
REMARK    2  A    between atoms: O_3  and  C_20
REMARK    3  A    between atoms: N_4  and  C_9
REMARK    4  A    between atoms: N_6  and  C_18
REMARK    5  A    between atoms: C_18  and  C_19
REMARK                            x       y       z     vdW  Elec       q    Type
REMARK                         _______ _______ _______ _____ _____    ______ ____
ROOT
ATOM      2  O   UNL     1      -7.955 -10.703  19.701  0.00  0.00    -0.252 OA
ATOM      4  N   UNL     1      -4.533 -11.853  16.134  0.00  0.00    -0.296 NA
ATOM      5  N   UNL     1      -6.749 -11.328  17.786  0.00  0.00    -0.278 N 
ATOM      6  N   UNL     1      -8.528  -9.981  17.531  0.00  0.00    -0.281 N 
ATOM      7  C   UNL     1      -6.891 -11.182  16.351  0.00  0.00    +0.109 C 
ATOM      8  C   UNL     1      -5.541 -10.859  15.713  0.00  0.00    +0.108 C 
ATOM     10  C   UNL     1      -4.373 -11.852  17.602  0.00  0.00    +0.104 C 
ATOM     11  C   UNL     1      -7.949 -10.090  16.202  0.00  0.00    +0.133 C 
ATOM     12  C   UNL     1      -5.691 -12.167  18.311  0.00  0.00    +0.125 C 
ATOM     15  C   UNL     1      -7.769 -10.679  18.493  0.00  0.00    +0.305 C 
ENDROOT
BRANCH   4   9
ATOM      1  O   UNL     1      -1.361  -9.681  14.447  0.00  0.00    -0.380 OA
ATOM      9  C   UNL     1      -3.254 -11.589  15.481  0.00  0.00    +0.061 C 
ATOM     13  C   UNL     1      -3.473 -10.847  14.159  0.00  0.00    +0.047 C 
ATOM     14  C   UNL     1      -2.329 -10.774  16.390  0.00  0.00    +0.047 C 
ATOM     16  C   UNL     1      -2.136 -10.463  13.537  0.00  0.00    +0.161 C 
ATOM     17  C   UNL     1      -1.054 -10.394  15.645  0.00  0.00    +0.161 C 
ENDBRANCH   4   9
BRANCH   6  18
ATOM     18  C   UNL     1      -9.658  -9.123  17.805  0.00  0.00    +0.137 C 
BRANCH  18  19
ATOM     19  C   UNL     1      -9.677  -7.914  16.887  0.00  0.00    +0.178 C 
BRANCH  19   3
ATOM      3  O   UNL     1     -11.018  -7.615  16.525  0.00  0.00    -0.381 OA
ATOM     20  C   UNL     1     -11.164  -6.256  16.138  0.00  0.00    +0.194 C 
ENDBRANCH  19   3
ENDBRANCH  18  19
ENDBRANCH   6  18
TORSDOF 4
ENDMDL
MODEL 4
REMARK VINA RESULT:      -5.0     15.562     19.895
REMARK  Name = 86769020
REMARK  5 active torsions:
REMARK  status: ('A' for Active; 'I' for Inactive)
REMARK    1  A    between atoms: O_3  and  C_19
REMARK    2  A    between atoms: O_3  and  C_20
REMARK    3  A    between atoms: N_4  and  C_9
REMARK    4  A    between atoms: N_6  and  C_18
REMARK    5  A    between atoms: C_18  and  C_19
REMARK                            x       y       z     vdW  Elec       q    Type
REMARK                         _______ _______ _______ _____ _____    ______ ____
ROOT
ATOM      2  O   UNL     1      11.689   7.569   5.845  0.00  0.00    -0.252 OA
ATOM      4  N   UNL     1      11.755   5.312   1.299  0.00  0.00    -0.296 NA
ATOM      5  N   UNL     1      11.718   6.127   3.991  0.00  0.00    -0.278 N 
ATOM      6  N   UNL     1      10.322   5.654   5.686  0.00  0.00    -0.281 N 
ATOM      7  C   UNL     1      11.135   4.849   3.635  0.00  0.00    +0.109 C 
ATOM      8  C   UNL     1      10.659   4.868   2.183  0.00  0.00    +0.108 C 
ATOM     10  C   UNL     1      12.209   6.669   1.664  0.00  0.00    +0.104 C 
ATOM     11  C   UNL     1      10.029   4.655   4.671  0.00  0.00    +0.133 C 
ATOM     12  C   UNL     1      12.700   6.727   3.112  0.00  0.00    +0.125 C 
ATOM     15  C   UNL     1      11.297   6.574   5.251  0.00  0.00    +0.305 C 
ENDROOT
BRANCH   4   9
ATOM      1  O   UNL     1       9.617   4.155  -2.124  0.00  0.00    -0.380 OA
ATOM      9  C   UNL     1      11.329   5.275  -0.098  0.00  0.00    +0.061 C 
ATOM     13  C   UNL     1      11.558   3.881  -0.688  0.00  0.00    +0.047 C 
ATOM     14  C   UNL     1       9.854   5.665  -0.234  0.00  0.00    +0.047 C 
ATOM     16  C   UNL     1      11.002   3.806  -2.105  0.00  0.00    +0.161 C 
ATOM     17  C   UNL     1       9.391   5.492  -1.677  0.00  0.00    +0.161 C 
ENDBRANCH   4   9
BRANCH   6  18
ATOM     18  C   UNL     1       9.567   5.740   6.916  0.00  0.00    +0.137 C 
BRANCH  18  19
ATOM     19  C   UNL     1       9.858   4.563   7.831  0.00  0.00    +0.178 C 
BRANCH  19   3
ATOM      3  O   UNL     1      10.168   5.042   9.132  0.00  0.00    -0.381 OA
ATOM     20  C   UNL     1       9.209   4.614  10.089  0.00  0.00    +0.194 C 
ENDBRANCH  19   3
ENDBRANCH  18  19
ENDBRANCH   6  18
TORSDOF 4
ENDMDL
MODEL 5
REMARK VINA RESULT:      -5.0     26.190     27.832
REMARK  Name = 86769020
REMARK  5 active torsions:
REMARK  status: ('A' for Active; 'I' for Inactive)
REMARK    1  A    between atoms: O_3  and  C_19
REMARK    2  A    between atoms: O_3  and  C_20
REMARK    3  A    between atoms: N_4  and  C_9
REMARK    4  A    between atoms: N_6  and  C_18
REMARK    5  A    between atoms: C_18  and  C_19
REMARK                            x       y       z     vdW  Elec       q    Type
REMARK                         _______ _______ _______ _____ _____    ______ ____
ROOT
ATOM      2  O   UNL     1      -1.868 -10.814  16.590  0.00  0.00    -0.252 OA
ATOM      4  N   UNL     1      -3.662 -10.651  11.844  0.00  0.00    -0.296 NA
ATOM      5  N   UNL     1      -3.014 -11.048  14.553  0.00  0.00    -0.278 N 
ATOM      6  N   UNL     1      -4.221 -10.828  16.435  0.00  0.00    -0.281 N 
ATOM      7  C   UNL     1      -4.387 -11.221  14.126  0.00  0.00    +0.109 C 
ATOM      8  C   UNL     1      -4.670 -10.373  12.886  0.00  0.00    +0.108 C 
ATOM     10  C   UNL     1      -2.302 -10.338  12.329  0.00  0.00    +0.104 C 
ATOM     11  C   UNL     1      -5.201 -10.843  15.362  0.00  0.00    +0.133 C 
ATOM     12  C   UNL     1      -1.950 -11.152  13.576  0.00  0.00    +0.125 C 
ATOM     15  C   UNL     1      -2.902 -10.892  15.941  0.00  0.00    +0.305 C 
ENDROOT
BRANCH   4   9
ATOM      1  O   UNL     1      -5.857  -9.115   8.612  0.00  0.00    -0.380 OA
ATOM      9  C   UNL     1      -3.958  -9.891  10.633  0.00  0.00    +0.061 C 
ATOM     13  C   UNL     1      -4.388 -10.833   9.504  0.00  0.00    +0.047 C 
ATOM     14  C   UNL     1      -5.052  -8.850  10.890  0.00  0.00    +0.047 C 
ATOM     16  C   UNL     1      -4.815 -10.033   8.279  0.00  0.00    +0.161 C 
ATOM     17  C   UNL     1      -5.443  -8.159   9.588  0.00  0.00    +0.161 C 
ENDBRANCH   4   9
BRANCH   6  18
ATOM     18  C   UNL     1      -4.598 -10.618  17.814  0.00  0.00    +0.137 C 
BRANCH  18  19
ATOM     19  C   UNL     1      -4.705 -11.931  18.568  0.00  0.00    +0.178 C 
BRANCH  19   3
ATOM      3  O   UNL     1      -5.879 -11.922  19.368  0.00  0.00    -0.381 OA
ATOM     20  C   UNL     1      -6.329 -10.598  19.620  0.00  0.00    +0.194 C 
ENDBRANCH  19   3
ENDBRANCH  18  19
ENDBRANCH   6  18
TORSDOF 4
ENDMDL
MODEL 6
REMARK VINA RESULT:      -4.9     28.002     29.962
REMARK  Name = 86769020
REMARK  5 active torsions:
REMARK  status: ('A' for Active; 'I' for Inactive)
REMARK    1  A    between atoms: O_3  and  C_19
REMARK    2  A    between atoms: O_3  and  C_20
REMARK    3  A    between atoms: N_4  and  C_9
REMARK    4  A    between atoms: N_6  and  C_18
REMARK    5  A    between atoms: C_18  and  C_19
REMARK                            x       y       z     vdW  Elec       q    Type
REMARK                         _______ _______ _______ _____ _____    ______ ____
ROOT
ATOM      2  O   UNL     1     -13.514   5.856  35.785  0.00  0.00    -0.252 OA
ATOM      4  N   UNL     1     -15.170   3.229  31.770  0.00  0.00    -0.296 NA
ATOM      5  N   UNL     1     -14.596   4.986  33.890  0.00  0.00    -0.278 N 
ATOM      6  N   UNL     1     -14.136   7.184  33.938  0.00  0.00    -0.281 N 
ATOM      7  C   UNL     1     -15.210   5.512  32.688  0.00  0.00    +0.109 C 
ATOM      8  C   UNL     1     -14.852   4.642  31.484  0.00  0.00    +0.108 C 
ATOM     10  C   UNL     1     -14.413   2.745  32.943  0.00  0.00    +0.104 C 
ATOM     11  C   UNL     1     -14.696   6.949  32.618  0.00  0.00    +0.133 C 
ATOM     12  C   UNL     1     -14.721   3.575  34.191  0.00  0.00    +0.125 C 
ATOM     15  C   UNL     1     -14.022   5.991  34.680  0.00  0.00    +0.305 C 
ENDROOT
BRANCH   4   9
ATOM      1  O   UNL     1     -15.170  -0.127  29.247  0.00  0.00    -0.380 OA
ATOM      9  C   UNL     1     -14.887   2.397  30.603  0.00  0.00    +0.061 C 
ATOM     13  C   UNL     1     -14.099   1.151  31.015  0.00  0.00    +0.047 C 
ATOM     14  C   UNL     1     -16.181   1.987  29.892  0.00  0.00    +0.047 C 
ATOM     16  C   UNL     1     -13.910   0.223  29.820  0.00  0.00    +0.161 C 
ATOM     17  C   UNL     1     -15.877   1.013  28.759  0.00  0.00    +0.161 C 
ENDBRANCH   4   9
BRANCH   6  18
ATOM     18  C   UNL     1     -13.632   8.479  34.336  0.00  0.00    +0.137 C 
BRANCH  18  19
ATOM     19  C   UNL     1     -12.312   8.797  33.654  0.00  0.00    +0.178 C 
BRANCH  19   3
ATOM      3  O   UNL     1     -11.450   9.450  34.576  0.00  0.00    -0.381 OA
ATOM     20  C   UNL     1     -11.542   8.878  35.873  0.00  0.00    +0.194 C 
ENDBRANCH  19   3
ENDBRANCH  18  19
ENDBRANCH   6  18
TORSDOF 4
ENDMDL
MODEL 7
REMARK VINA RESULT:      -4.9     27.463     28.913
REMARK  Name = 86769020
REMARK  5 active torsions:
REMARK  status: ('A' for Active; 'I' for Inactive)
REMARK    1  A    between atoms: O_3  and  C_19
REMARK    2  A    between atoms: O_3  and  C_20
REMARK    3  A    between atoms: N_4  and  C_9
REMARK    4  A    between atoms: N_6  and  C_18
REMARK    5  A    between atoms: C_18  and  C_19
REMARK                            x       y       z     vdW  Elec       q    Type
REMARK                         _______ _______ _______ _____ _____    ______ ____
ROOT
ATOM      2  O   UNL     1     -15.761   3.743  29.196  0.00  0.00    -0.252 OA
ATOM      4  N   UNL     1     -14.609   6.914  32.988  0.00  0.00    -0.296 NA
ATOM      5  N   UNL     1     -15.268   4.827  31.220  0.00  0.00    -0.278 N 
ATOM      6  N   UNL     1     -14.303   2.840  30.814  0.00  0.00    -0.281 N 
ATOM      7  C   UNL     1     -14.552   4.515  32.440  0.00  0.00    +0.109 C 
ATOM      8  C   UNL     1     -13.740   5.723  32.905  0.00  0.00    +0.108 C 
ATOM     10  C   UNL     1     -15.205   7.224  31.673  0.00  0.00    +0.104 C 
ATOM     11  C   UNL     1     -13.722   3.287  32.069  0.00  0.00    +0.133 C 
ATOM     12  C   UNL     1     -16.035   6.053  31.143  0.00  0.00    +0.125 C 
ATOM     15  C   UNL     1     -15.188   3.796  30.275  0.00  0.00    +0.305 C 
ENDROOT
BRANCH   4   9
ATOM      1  O   UNL     1     -11.332   9.191  34.292  0.00  0.00    -0.380 OA
ATOM      9  C   UNL     1     -13.855   8.060  33.489  0.00  0.00    +0.061 C 
ATOM     13  C   UNL     1     -13.189   7.716  34.825  0.00  0.00    +0.047 C 
ATOM     14  C   UNL     1     -12.796   8.509  32.477  0.00  0.00    +0.047 C 
ATOM     16  C   UNL     1     -12.303   8.868  35.288  0.00  0.00    +0.161 C 
ATOM     17  C   UNL     1     -11.933   9.617  33.070  0.00  0.00    +0.161 C 
ENDBRANCH   4   9
BRANCH   6  18
ATOM     18  C   UNL     1     -13.875   1.622  30.163  0.00  0.00    +0.137 C 
BRANCH  18  19
ATOM     19  C   UNL     1     -14.811   0.467  30.472  0.00  0.00    +0.178 C 
BRANCH  19   3
ATOM      3  O   UNL     1     -14.700  -0.516  29.452  0.00  0.00    -0.381 OA
ATOM     20  C   UNL     1     -13.366  -0.988  29.324  0.00  0.00    +0.194 C 
ENDBRANCH  19   3
ENDBRANCH  18  19
ENDBRANCH   6  18
TORSDOF 4
ENDMDL
MODEL 8
REMARK VINA RESULT:      -4.9     26.924     29.370
REMARK  Name = 86769020
REMARK  5 active torsions:
REMARK  status: ('A' for Active; 'I' for Inactive)
REMARK    1  A    between atoms: O_3  and  C_19
REMARK    2  A    between atoms: O_3  and  C_20
REMARK    3  A    between atoms: N_4  and  C_9
REMARK    4  A    between atoms: N_6  and  C_18
REMARK    5  A    between atoms: C_18  and  C_19
REMARK                            x       y       z     vdW  Elec       q    Type
REMARK                         _______ _______ _______ _____ _____    ______ ____
ROOT
ATOM      2  O   UNL     1     -12.735   7.708  34.837  0.00  0.00    -0.252 OA
ATOM      4  N   UNL     1     -15.364   3.976  32.617  0.00  0.00    -0.296 NA
ATOM      5  N   UNL     1     -14.262   6.320  33.714  0.00  0.00    -0.278 N 
ATOM      6  N   UNL     1     -13.774   8.318  32.810  0.00  0.00    -0.281 N 
ATOM      7  C   UNL     1     -15.146   6.427  32.571  0.00  0.00    +0.109 C 
ATOM      8  C   UNL     1     -15.107   5.141  31.747  0.00  0.00    +0.108 C 
ATOM     10  C   UNL     1     -14.348   3.882  33.686  0.00  0.00    +0.104 C 
ATOM     11  C   UNL     1     -14.645   7.672  31.842  0.00  0.00    +0.133 C 
ATOM     12  C   UNL     1     -14.328   5.142  34.554  0.00  0.00    +0.125 C 
ATOM     15  C   UNL     1     -13.497   7.478  33.908  0.00  0.00    +0.305 C 
ENDROOT
BRANCH   4   9
ATOM      1  O   UNL     1     -13.955   0.562  30.621  0.00  0.00    -0.380 OA
ATOM      9  C   UNL     1     -15.390   2.747  31.828  0.00  0.00    +0.061 C 
ATOM     13  C   UNL     1     -14.558   2.915  30.554  0.00  0.00    +0.047 C 
ATOM     14  C   UNL     1     -14.866   1.559  32.641  0.00  0.00    +0.047 C 
ATOM     16  C   UNL     1     -14.483   1.597  29.791  0.00  0.00    +0.161 C 
ATOM     17  C   UNL     1     -14.774   0.315  31.764  0.00  0.00    +0.161 C 
ENDBRANCH   4   9
BRANCH   6  18
ATOM     18  C   UNL     1     -13.170   9.606  32.557  0.00  0.00    +0.137 C 
BRANCH  18  19
ATOM     19  C   UNL     1     -12.211   9.550  31.381  0.00  0.00    +0.178 C 
BRANCH  19   3
ATOM      3  O   UNL     1     -11.013   8.898  31.779  0.00  0.00    -0.381 OA
ATOM     20  C   UNL     1     -10.322   9.638  32.776  0.00  0.00    +0.194 C 
ENDBRANCH  19   3
ENDBRANCH  18  19
ENDBRANCH   6  18
TORSDOF 4
ENDMDL
MODEL 9
REMARK VINA RESULT:      -4.9     26.434     27.651
REMARK  Name = 86769020
REMARK  5 active torsions:
REMARK  status: ('A' for Active; 'I' for Inactive)
REMARK    1  A    between atoms: O_3  and  C_19
REMARK    2  A    between atoms: O_3  and  C_20
REMARK    3  A    between atoms: N_4  and  C_9
REMARK    4  A    between atoms: N_6  and  C_18
REMARK    5  A    between atoms: C_18  and  C_19
REMARK                            x       y       z     vdW  Elec       q    Type
REMARK                         _______ _______ _______ _____ _____    ______ ____
ROOT
ATOM      2  O   UNL     1      -1.372 -11.696  14.567  0.00  0.00    -0.252 OA
ATOM      4  N   UNL     1      -5.741 -10.869  17.015  0.00  0.00    -0.296 NA
ATOM      5  N   UNL     1      -3.438 -10.953  15.401  0.00  0.00    -0.278 N 
ATOM      6  N   UNL     1      -3.166 -11.061  13.174  0.00  0.00    -0.281 N 
ATOM      7  C   UNL     1      -4.656 -10.387  14.859  0.00  0.00    +0.109 C 
ATOM      8  C   UNL     1      -5.878 -10.991  15.549  0.00  0.00    +0.108 C 
ATOM     10  C   UNL     1      -4.534 -11.573  17.492  0.00  0.00    +0.104 C 
ATOM     11  C   UNL     1      -4.555 -10.676  13.362  0.00  0.00    +0.133 C 
ATOM     12  C   UNL     1      -3.266 -11.019  16.838  0.00  0.00    +0.125 C 
ATOM     15  C   UNL     1      -2.512 -11.284  14.403  0.00  0.00    +0.305 C 
ENDROOT
BRANCH   4   9
ATOM      1  O   UNL     1      -8.650 -11.419  19.992  0.00  0.00    -0.380 OA
ATOM      9  C   UNL     1      -6.932 -11.390  17.682  0.00  0.00    +0.061 C 
ATOM     13  C   UNL     1      -6.546 -12.098  18.983  0.00  0.00    +0.047 C 
ATOM     14  C   UNL     1      -7.935 -10.270  17.973  0.00  0.00    +0.047 C 
ATOM     16  C   UNL     1      -7.795 -12.535  19.740  0.00  0.00    +0.161 C 
ATOM     17  C   UNL     1      -9.108 -10.807  18.786  0.00  0.00    +0.161 C 
ENDBRANCH   4   9
BRANCH   6  18
ATOM     18  C   UNL     1      -2.613 -11.317  11.864  0.00  0.00    +0.137 C 
BRANCH  18  19
ATOM     19  C   UNL     1      -3.552 -10.855  10.763  0.00  0.00    +0.178 C 
BRANCH  19   3
ATOM      3  O   UNL     1      -3.104  -9.607  10.252  0.00  0.00    -0.381 OA
ATOM     20  C   UNL     1      -3.988  -9.101   9.261  0.00  0.00    +0.194 C 
ENDBRANCH  19   3
ENDBRANCH  18  19
ENDBRANCH   6  18
TORSDOF 4
ENDMDL
MODEL 10
REMARK VINA RESULT:      -4.9     10.932     13.074
REMARK  Name = 86769020
REMARK  5 active torsions:
REMARK  status: ('A' for Active; 'I' for Inactive)
REMARK    1  A    between atoms: O_3  and  C_19
REMARK    2  A    between atoms: O_3  and  C_20
REMARK    3  A    between atoms: N_4  and  C_9
REMARK    4  A    between atoms: N_6  and  C_18
REMARK    5  A    between atoms: C_18  and  C_19
REMARK                            x       y       z     vdW  Elec       q    Type
REMARK                         _______ _______ _______ _____ _____    ______ ____
ROOT
ATOM      2  O   UNL     1      12.225   6.856   6.603  0.00  0.00    -0.252 OA
ATOM      4  N   UNL     1      10.236  11.063   8.630  0.00  0.00    -0.296 NA
ATOM      5  N   UNL     1      10.930   8.695   7.278  0.00  0.00    -0.278 N 
ATOM      6  N   UNL     1       9.945   6.679   7.175  0.00  0.00    -0.281 N 
ATOM      7  C   UNL     1       9.534   8.958   7.564  0.00  0.00    +0.109 C 
ATOM      8  C   UNL     1       9.403   9.854   8.794  0.00  0.00    +0.108 C 
ATOM     10  C   UNL     1      11.658  10.703   8.459  0.00  0.00    +0.104 C 
ATOM     11  C   UNL     1       8.927   7.564   7.717  0.00  0.00    +0.133 C 
ATOM     12  C   UNL     1      11.866   9.799   7.241  0.00  0.00    +0.125 C 
ATOM     15  C   UNL     1      11.167   7.349   6.968  0.00  0.00    +0.305 C 
ENDROOT
BRANCH   4   9
ATOM      1  O   UNL     1       9.771  12.287  12.618  0.00  0.00    -0.380 OA
ATOM      9  C   UNL     1      10.069  11.955   9.774  0.00  0.00    +0.061 C 
ATOM     13  C   UNL     1       8.759  11.647  10.504  0.00  0.00    +0.047 C 
ATOM     14  C   UNL     1      11.249  11.834  10.744  0.00  0.00    +0.047 C 
ATOM     16  C   UNL     1       8.643  12.493  11.767  0.00  0.00    +0.161 C 
ATOM     17  C   UNL     1      10.996  12.670  11.993  0.00  0.00    +0.161 C 
ENDBRANCH   4   9
BRANCH   6  18
ATOM     18  C   UNL     1       9.724   5.258   7.029  0.00  0.00    +0.137 C 
BRANCH  18  19
ATOM     19  C   UNL     1      10.195   4.492   8.252  0.00  0.00    +0.178 C 
BRANCH  19   3
ATOM      3  O   UNL     1       9.069   4.089   9.020  0.00  0.00    -0.381 OA
ATOM     20  C   UNL     1       9.094   4.659  10.322  0.00  0.00    +0.194 C 
ENDBRANCH  19   3
ENDBRANCH  18  19
ENDBRANCH   6  18
TORSDOF 4
ENDMDL
