MODEL 1
REMARK VINA RESULT:      -6.3      0.000      0.000
REMARK  Name = 7164827
REMARK  15 active torsions:
REMARK  status: ('A' for Active; 'I' for Inactive)
REMARK    1  A    between atoms: O_4  and  C_20
REMARK    2  A    between atoms: O_4  and  C_29
REMARK    3  A    between atoms: O_5  and  C_23
REMARK    4  A    between atoms: O_5  and  C_33
REMARK    5  A    between atoms: O_7  and  C_32
REMARK    6  A    between atoms: O_7  and  C_34
REMARK    7  A    between atoms: N_10  and  C_19
REMARK    8  A    between atoms: N_11  and  C_22
REMARK    9  A    between atoms: C_12  and  C_16
REMARK   10  A    between atoms: C_17  and  C_20
REMARK   11  A    between atoms: C_19  and  C_21
REMARK   12  A    between atoms: C_19  and  C_23
REMARK   13  A    between atoms: C_21  and  C_24
REMARK   14  A    between atoms: C_22  and  C_25
REMARK   15  A    between atoms: C_22  and  C_26
REMARK                            x       y       z     vdW  Elec       q    Type
REMARK                         _______ _______ _______ _____ _____    ______ ____
ROOT
ATOM      2  O   UNL     1       9.969   3.642   7.736  0.00  0.00    -0.273 OA
ATOM      3  O   UNL     1       8.068   9.971   4.958  0.00  0.00    -0.253 OA
ATOM      8  N   UNL     1       9.543   5.850   7.141  0.00  0.00    -0.285 N 
ATOM      9  N   UNL     1       8.169   7.711   5.463  0.00  0.00    -0.282 N 
ATOM     11  N   UNL     1       7.961   8.466   3.232  0.00  0.00    -0.297 N 
ATOM     12  C   UNL     1       9.296   5.509   5.735  0.00  0.00    +0.179 C 
ATOM     13  C   UNL     1       8.135   6.285   5.108  0.00  0.00    +0.141 C 
ATOM     14  C   UNL     1       9.511   7.283   7.478  0.00  0.00    +0.127 C 
ATOM     15  C   UNL     1       8.280   7.964   6.898  0.00  0.00    +0.128 C 
ATOM     17  C   UNL     1       9.945   4.842   8.023  0.00  0.00    +0.242 C 
ATOM     18  C   UNL     1       8.067   8.796   4.577  0.00  0.00    +0.303 C 
ATOM     36  H   UNL     1       8.116   7.520   2.914  0.00  0.00    +0.150 HD
ENDROOT
BRANCH  12  16
ATOM      1  O   UNL     1      11.484   6.439   5.496  0.00  0.00    -0.274 OA
ATOM     10  N   UNL     1      10.602   5.173   3.753  0.00  0.00    -0.301 N 
ATOM     16  C   UNL     1      10.584   5.763   5.005  0.00  0.00    +0.236 C 
ATOM     35  H   UNL     1       9.830   4.577   3.469  0.00  0.00    +0.150 HD
BRANCH  10  19
ATOM     19  C   UNL     1      11.717   5.287   2.841  0.00  0.00    +0.186 C 
BRANCH  19  23
ATOM      6  O   UNL     1      10.664   6.532   1.056  0.00  0.00    -0.249 OA
ATOM     23  C   UNL     1      11.566   6.464   1.886  0.00  0.00    +0.328 C 
BRANCH  23   5
ATOM      5  O   UNL     1      12.547   7.394   2.058  0.00  0.00    -0.467 OA
ATOM     33  C   UNL     1      13.536   7.080   3.044  0.00  0.00    +0.280 C 
ENDBRANCH  23   5
ENDBRANCH  19  23
BRANCH  19  21
ATOM     21  C   UNL     1      11.965   3.968   2.095  0.00  0.00    +0.069 C 
BRANCH  21  24
ATOM     24  C   UNL     1      13.179   3.972   1.192  0.00  0.00    -0.045 A 
ATOM     27  C   UNL     1      13.026   4.175  -0.179  0.00  0.00    +0.007 A 
ATOM     28  C   UNL     1      14.450   3.771   1.731  0.00  0.00    +0.007 A 
ATOM     30  C   UNL     1      14.145   4.179  -1.013  0.00  0.00    +0.046 A 
ATOM     31  C   UNL     1      15.569   3.775   0.898  0.00  0.00    +0.046 A 
ATOM     32  C   UNL     1      15.416   3.978  -0.473  0.00  0.00    +0.120 A 
BRANCH  32   7
ATOM      7  O   UNL     1      16.508   3.981  -1.286  0.00  0.00    -0.495 OA
ATOM     34  C   UNL     1      16.452   4.811  -2.446  0.00  0.00    +0.277 C 
ENDBRANCH  32   7
ENDBRANCH  21  24
ENDBRANCH  19  21
ENDBRANCH  10  19
ENDBRANCH  12  16
BRANCH  11  22
ATOM     22  C   UNL     1       7.846   9.472   2.200  0.00  0.00    +0.068 C 
ATOM     25  C   UNL     1       8.537   9.010   0.922  0.00  0.00    +0.027 C 
ATOM     26  C   UNL     1       6.382   9.806   1.947  0.00  0.00    +0.027 C 
ENDBRANCH  11  22
BRANCH  17  20
ATOM     20  C   UNL     1      10.365   5.278   9.404  0.00  0.00    +0.255 C 
BRANCH  20   4
ATOM      4  O   UNL     1       9.851   4.324  10.300  0.00  0.00    -0.374 OA
ATOM     29  C   UNL     1       8.486   4.578  10.630  0.00  0.00    +0.194 C 
ENDBRANCH  20   4
ENDBRANCH  17  20
TORSDOF 10
ENDMDL
MODEL 2
REMARK VINA RESULT:      -6.2     22.802     25.919
REMARK  Name = 7164827
REMARK  15 active torsions:
REMARK  status: ('A' for Active; 'I' for Inactive)
REMARK    1  A    between atoms: O_4  and  C_20
REMARK    2  A    between atoms: O_4  and  C_29
REMARK    3  A    between atoms: O_5  and  C_23
REMARK    4  A    between atoms: O_5  and  C_33
REMARK    5  A    between atoms: O_7  and  C_32
REMARK    6  A    between atoms: O_7  and  C_34
REMARK    7  A    between atoms: N_10  and  C_19
REMARK    8  A    between atoms: N_11  and  C_22
REMARK    9  A    between atoms: C_12  and  C_16
REMARK   10  A    between atoms: C_17  and  C_20
REMARK   11  A    between atoms: C_19  and  C_21
REMARK   12  A    between atoms: C_19  and  C_23
REMARK   13  A    between atoms: C_21  and  C_24
REMARK   14  A    between atoms: C_22  and  C_25
REMARK   15  A    between atoms: C_22  and  C_26
REMARK                            x       y       z     vdW  Elec       q    Type
REMARK                         _______ _______ _______ _____ _____    ______ ____
ROOT
ATOM      2  O   UNL     1      -6.832  -8.815  11.637  0.00  0.00    -0.273 OA
ATOM      3  O   UNL     1      -7.885 -12.273  17.829  0.00  0.00    -0.253 OA
ATOM      8  N   UNL     1      -7.432 -10.152  13.444  0.00  0.00    -0.285 N 
ATOM      9  N   UNL     1      -7.297 -10.681  16.249  0.00  0.00    -0.282 N 
ATOM     11  N   UNL     1      -5.828 -11.277  18.003  0.00  0.00    -0.297 N 
ATOM     12  C   UNL     1      -6.192  -9.863  14.175  0.00  0.00    +0.179 C 
ATOM     13  C   UNL     1      -6.396  -9.669  15.680  0.00  0.00    +0.141 C 
ATOM     14  C   UNL     1      -8.343 -11.125  14.069  0.00  0.00    +0.127 C 
ATOM     15  C   UNL     1      -8.569 -10.812  15.540  0.00  0.00    +0.128 C 
ATOM     17  C   UNL     1      -7.599  -9.631  12.157  0.00  0.00    +0.242 C 
ATOM     18  C   UNL     1      -7.059 -11.466  17.389  0.00  0.00    +0.303 C 
ATOM     36  H   UNL     1      -5.100 -10.735  17.557  0.00  0.00    +0.150 HD
ENDROOT
BRANCH  12  16
ATOM      1  O   UNL     1      -5.583 -12.171  14.075  0.00  0.00    -0.274 OA
ATOM     10  N   UNL     1      -4.025 -10.566  13.430  0.00  0.00    -0.301 N 
ATOM     16  C   UNL     1      -5.256 -11.002  13.889  0.00  0.00    +0.236 C 
ATOM     35  H   UNL     1      -3.880  -9.577  13.247  0.00  0.00    +0.150 HD
BRANCH  10  19
ATOM     19  C   UNL     1      -2.940 -11.463  13.105  0.00  0.00    +0.186 C 
BRANCH  19  23
ATOM      6  O   UNL     1      -1.193 -12.605  14.324  0.00  0.00    -0.249 OA
ATOM     23  C   UNL     1      -1.995 -11.677  14.280  0.00  0.00    +0.328 C 
BRANCH  23   5
ATOM      5  O   UNL     1      -2.166 -10.740  15.255  0.00  0.00    -0.467 OA
ATOM     33  C   UNL     1      -0.991 -10.013  15.631  0.00  0.00    +0.280 C 
ENDBRANCH  23   5
ENDBRANCH  19  23
BRANCH  19  21
ATOM     21  C   UNL     1      -2.195 -11.004  11.843  0.00  0.00    +0.069 C 
BRANCH  21  24
ATOM     24  C   UNL     1      -3.089 -10.623  10.684  0.00  0.00    -0.045 A 
ATOM     27  C   UNL     1      -3.143  -9.298  10.252  0.00  0.00    +0.007 A 
ATOM     28  C   UNL     1      -3.859 -11.597  10.049  0.00  0.00    +0.007 A 
ATOM     30  C   UNL     1      -3.967  -8.947   9.183  0.00  0.00    +0.046 A 
ATOM     31  C   UNL     1      -4.684 -11.245   8.979  0.00  0.00    +0.046 A 
ATOM     32  C   UNL     1      -4.738  -9.921   8.547  0.00  0.00    +0.120 A 
BRANCH  32   7
ATOM      7  O   UNL     1      -5.542  -9.578   7.505  0.00  0.00    -0.495 OA
ATOM     34  C   UNL     1      -5.677 -10.527   6.448  0.00  0.00    +0.277 C 
ENDBRANCH  32   7
ENDBRANCH  21  24
ENDBRANCH  19  21
ENDBRANCH  10  19
ENDBRANCH  12  16
BRANCH  11  22
ATOM     22  C   UNL     1      -5.438 -12.009  19.188  0.00  0.00    +0.068 C 
ATOM     25  C   UNL     1      -3.925 -12.184  19.235  0.00  0.00    +0.027 C 
ATOM     26  C   UNL     1      -5.952 -11.306  20.437  0.00  0.00    +0.027 C 
ENDBRANCH  11  22
BRANCH  17  20
ATOM     20  C   UNL     1      -8.800 -10.111  11.382  0.00  0.00    +0.255 C 
BRANCH  20   4
ATOM      4  O   UNL     1      -8.304 -10.817  10.271  0.00  0.00    -0.374 OA
ATOM     29  C   UNL     1      -8.816 -10.306   9.040  0.00  0.00    +0.194 C 
ENDBRANCH  20   4
ENDBRANCH  17  20
TORSDOF 10
ENDMDL
MODEL 3
REMARK VINA RESULT:      -6.2      2.942      5.649
REMARK  Name = 7164827
REMARK  15 active torsions:
REMARK  status: ('A' for Active; 'I' for Inactive)
REMARK    1  A    between atoms: O_4  and  C_20
REMARK    2  A    between atoms: O_4  and  C_29
REMARK    3  A    between atoms: O_5  and  C_23
REMARK    4  A    between atoms: O_5  and  C_33
REMARK    5  A    between atoms: O_7  and  C_32
REMARK    6  A    between atoms: O_7  and  C_34
REMARK    7  A    between atoms: N_10  and  C_19
REMARK    8  A    between atoms: N_11  and  C_22
REMARK    9  A    between atoms: C_12  and  C_16
REMARK   10  A    between atoms: C_17  and  C_20
REMARK   11  A    between atoms: C_19  and  C_21
REMARK   12  A    between atoms: C_19  and  C_23
REMARK   13  A    between atoms: C_21  and  C_24
REMARK   14  A    between atoms: C_22  and  C_25
REMARK   15  A    between atoms: C_22  and  C_26
REMARK                            x       y       z     vdW  Elec       q    Type
REMARK                         _______ _______ _______ _____ _____    ______ ____
ROOT
ATOM      2  O   UNL     1       8.905   7.595   8.227  0.00  0.00    -0.273 OA
ATOM      3  O   UNL     1      15.633   7.766   5.758  0.00  0.00    -0.253 OA
ATOM      8  N   UNL     1      11.037   7.268   7.355  0.00  0.00    -0.285 N 
ATOM      9  N   UNL     1      13.662   8.284   6.864  0.00  0.00    -0.282 N 
ATOM     11  N   UNL     1      14.873   9.927   5.669  0.00  0.00    -0.297 N 
ATOM     12  C   UNL     1      11.213   8.690   7.036  0.00  0.00    +0.179 C 
ATOM     13  C   UNL     1      12.622   9.215   7.323  0.00  0.00    +0.141 C 
ATOM     14  C   UNL     1      12.123   6.367   6.936  0.00  0.00    +0.127 C 
ATOM     15  C   UNL     1      13.485   6.913   7.338  0.00  0.00    +0.128 C 
ATOM     17  C   UNL     1       9.813   6.836   7.876  0.00  0.00    +0.242 C 
ATOM     18  C   UNL     1      14.780   8.602   6.075  0.00  0.00    +0.303 C 
ATOM     36  H   UNL     1      14.101  10.567   5.798  0.00  0.00    +0.150 HD
ENDROOT
BRANCH  12  16
ATOM      1  O   UNL     1      11.711   8.964   4.715  0.00  0.00    -0.274 OA
ATOM     10  N   UNL     1       9.484   8.861   5.385  0.00  0.00    -0.301 N 
ATOM     16  C   UNL     1      10.853   8.846   5.586  0.00  0.00    +0.236 C 
ATOM     35  H   UNL     1       8.861   8.688   6.168  0.00  0.00    +0.150 HD
BRANCH  10  19
ATOM     19  C   UNL     1       8.878   9.023   4.083  0.00  0.00    +0.186 C 
BRANCH  19  23
ATOM      6  O   UNL     1       7.885  11.086   4.857  0.00  0.00    -0.249 OA
ATOM     23  C   UNL     1       7.863  10.158   4.054  0.00  0.00    +0.328 C 
BRANCH  23   5
ATOM      5  O   UNL     1       6.946  10.002   3.059  0.00  0.00    -0.467 OA
ATOM     33  C   UNL     1       5.604  10.379   3.385  0.00  0.00    +0.280 C 
ENDBRANCH  23   5
ENDBRANCH  19  23
BRANCH  19  21
ATOM     21  C   UNL     1       8.278   7.702   3.578  0.00  0.00    +0.069 C 
BRANCH  21  24
ATOM     24  C   UNL     1       9.293   6.621   3.278  0.00  0.00    -0.045 A 
ATOM     27  C   UNL     1       9.610   5.675   4.252  0.00  0.00    +0.007 A 
ATOM     28  C   UNL     1       9.910   6.572   2.028  0.00  0.00    +0.007 A 
ATOM     30  C   UNL     1      10.546   4.677   3.976  0.00  0.00    +0.046 A 
ATOM     31  C   UNL     1      10.845   5.574   1.752  0.00  0.00    +0.046 A 
ATOM     32  C   UNL     1      11.163   4.628   2.726  0.00  0.00    +0.120 A 
BRANCH  32   7
ATOM      7  O   UNL     1      12.076   3.655   2.457  0.00  0.00    -0.495 OA
ATOM     34  C   UNL     1      12.972   3.887   1.371  0.00  0.00    +0.277 C 
ENDBRANCH  32   7
ENDBRANCH  21  24
ENDBRANCH  19  21
ENDBRANCH  10  19
ENDBRANCH  12  16
BRANCH  11  22
ATOM     22  C   UNL     1      15.967  10.408   4.856  0.00  0.00    +0.068 C 
ATOM     25  C   UNL     1      15.486  10.732   3.447  0.00  0.00    +0.027 C 
ATOM     26  C   UNL     1      16.619  11.619   5.510  0.00  0.00    +0.027 C 
ENDBRANCH  11  22
BRANCH  17  20
ATOM     20  C   UNL     1       9.621   5.346   8.008  0.00  0.00    +0.255 C 
BRANCH  20   4
ATOM      4  O   UNL     1      10.104   4.991   9.280  0.00  0.00    -0.374 OA
ATOM     29  C   UNL     1       9.047   4.684  10.189  0.00  0.00    +0.194 C 
ENDBRANCH  20   4
ENDBRANCH  17  20
TORSDOF 10
ENDMDL
MODEL 4
REMARK VINA RESULT:      -5.9     22.762     27.074
REMARK  Name = 7164827
REMARK  15 active torsions:
REMARK  status: ('A' for Active; 'I' for Inactive)
REMARK    1  A    between atoms: O_4  and  C_20
REMARK    2  A    between atoms: O_4  and  C_29
REMARK    3  A    between atoms: O_5  and  C_23
REMARK    4  A    between atoms: O_5  and  C_33
REMARK    5  A    between atoms: O_7  and  C_32
REMARK    6  A    between atoms: O_7  and  C_34
REMARK    7  A    between atoms: N_10  and  C_19
REMARK    8  A    between atoms: N_11  and  C_22
REMARK    9  A    between atoms: C_12  and  C_16
REMARK   10  A    between atoms: C_17  and  C_20
REMARK   11  A    between atoms: C_19  and  C_21
REMARK   12  A    between atoms: C_19  and  C_23
REMARK   13  A    between atoms: C_21  and  C_24
REMARK   14  A    between atoms: C_22  and  C_25
REMARK   15  A    between atoms: C_22  and  C_26
REMARK                            x       y       z     vdW  Elec       q    Type
REMARK                         _______ _______ _______ _____ _____    ______ ____
ROOT
ATOM      2  O   UNL     1      -8.124 -12.376  15.957  0.00  0.00    -0.273 OA
ATOM      3  O   UNL     1      -7.759  -8.631   9.855  0.00  0.00    -0.253 OA
ATOM      8  N   UNL     1      -8.216 -10.891  14.169  0.00  0.00    -0.285 N 
ATOM      9  N   UNL     1      -7.725 -10.355  11.406  0.00  0.00    -0.282 N 
ATOM     11  N   UNL     1      -6.016 -10.118   9.789  0.00  0.00    -0.297 N 
ATOM     12  C   UNL     1      -7.036 -11.473  13.519  0.00  0.00    +0.179 C 
ATOM     13  C   UNL     1      -7.160 -11.576  11.997  0.00  0.00    +0.141 C 
ATOM     14  C   UNL     1      -8.797  -9.704  13.521  0.00  0.00    +0.127 C 
ATOM     15  C   UNL     1      -8.975  -9.917  12.025  0.00  0.00    +0.128 C 
ATOM     17  C   UNL     1      -8.613 -11.380  15.418  0.00  0.00    +0.242 C 
ATOM     18  C   UNL     1      -7.204  -9.633  10.319  0.00  0.00    +0.303 C 
ATOM     36  H   UNL     1      -5.489 -10.838  10.264  0.00  0.00    +0.150 HD
ENDROOT
BRANCH  12  16
ATOM      1  O   UNL     1      -5.770  -9.447  13.564  0.00  0.00    -0.274 OA
ATOM     10  N   UNL     1      -4.949 -11.314  14.688  0.00  0.00    -0.301 N 
ATOM     16  C   UNL     1      -5.867 -10.619  13.919  0.00  0.00    +0.236 C 
ATOM     35  H   UNL     1      -5.159 -12.264  14.981  0.00  0.00    +0.150 HD
BRANCH  10  19
ATOM     19  C   UNL     1      -3.725 -10.726  15.181  0.00  0.00    +0.186 C 
BRANCH  19  23
ATOM      6  O   UNL     1      -1.703 -10.038  14.050  0.00  0.00    -0.249 OA
ATOM     23  C   UNL     1      -2.568 -10.894  14.205  0.00  0.00    +0.328 C 
BRANCH  23   5
ATOM      5  O   UNL     1      -2.630 -12.079  13.533  0.00  0.00    -0.467 OA
ATOM     33  C   UNL     1      -1.495 -12.938  13.683  0.00  0.00    +0.280 C 
ENDBRANCH  23   5
ENDBRANCH  19  23
BRANCH  19  21
ATOM     21  C   UNL     1      -3.378 -11.252  16.581  0.00  0.00    +0.069 C 
BRANCH  21  24
ATOM     24  C   UNL     1      -4.562 -11.415  17.507  0.00  0.00    -0.045 A 
ATOM     27  C   UNL     1      -5.203 -10.289  18.023  0.00  0.00    +0.007 A 
ATOM     28  C   UNL     1      -5.013 -12.692  17.844  0.00  0.00    +0.007 A 
ATOM     30  C   UNL     1      -6.297 -10.439  18.877  0.00  0.00    +0.046 A 
ATOM     31  C   UNL     1      -6.106 -12.842  18.698  0.00  0.00    +0.046 A 
ATOM     32  C   UNL     1      -6.747 -11.716  19.214  0.00  0.00    +0.120 A 
BRANCH  32   7
ATOM      7  O   UNL     1      -7.813 -11.863  20.048  0.00  0.00    -0.495 OA
ATOM     34  C   UNL     1      -8.525 -13.097  19.982  0.00  0.00    +0.277 C 
ENDBRANCH  32   7
ENDBRANCH  21  24
ENDBRANCH  19  21
ENDBRANCH  10  19
ENDBRANCH  12  16
BRANCH  11  22
ATOM     22  C   UNL     1      -5.359  -9.486   8.667  0.00  0.00    +0.068 C 
ATOM     25  C   UNL     1      -4.022  -8.891   9.096  0.00  0.00    +0.027 C 
ATOM     26  C   UNL     1      -5.181 -10.480   7.528  0.00  0.00    +0.027 C 
ENDBRANCH  11  22
BRANCH  17  20
ATOM     20  C   UNL     1      -9.711 -10.624  16.123  0.00  0.00    +0.255 C 
BRANCH  20   4
ATOM      4  O   UNL     1      -9.100  -9.914  17.172  0.00  0.00    -0.374 OA
ATOM     29  C   UNL     1      -9.322  -8.509  17.069  0.00  0.00    +0.194 C 
ENDBRANCH  20   4
ENDBRANCH  17  20
TORSDOF 10
ENDMDL
MODEL 5
REMARK VINA RESULT:      -5.9      3.406      6.578
REMARK  Name = 7164827
REMARK  15 active torsions:
REMARK  status: ('A' for Active; 'I' for Inactive)
REMARK    1  A    between atoms: O_4  and  C_20
REMARK    2  A    between atoms: O_4  and  C_29
REMARK    3  A    between atoms: O_5  and  C_23
REMARK    4  A    between atoms: O_5  and  C_33
REMARK    5  A    between atoms: O_7  and  C_32
REMARK    6  A    between atoms: O_7  and  C_34
REMARK    7  A    between atoms: N_10  and  C_19
REMARK    8  A    between atoms: N_11  and  C_22
REMARK    9  A    between atoms: C_12  and  C_16
REMARK   10  A    between atoms: C_17  and  C_20
REMARK   11  A    between atoms: C_19  and  C_21
REMARK   12  A    between atoms: C_19  and  C_23
REMARK   13  A    between atoms: C_21  and  C_24
REMARK   14  A    between atoms: C_22  and  C_25
REMARK   15  A    between atoms: C_22  and  C_26
REMARK                            x       y       z     vdW  Elec       q    Type
REMARK                         _______ _______ _______ _____ _____    ______ ____
ROOT
ATOM      2  O   UNL     1      13.353   8.282   6.687  0.00  0.00    -0.273 OA
ATOM      3  O   UNL     1       8.320  13.341   5.990  0.00  0.00    -0.253 OA
ATOM      8  N   UNL     1      11.652   9.761   6.110  0.00  0.00    -0.285 N 
ATOM      9  N   UNL     1      10.178  12.141   6.686  0.00  0.00    -0.282 N 
ATOM     11  N   UNL     1       8.698  13.131   8.241  0.00  0.00    -0.297 N 
ATOM     12  C   UNL     1      11.382  10.124   7.507  0.00  0.00    +0.179 C 
ATOM     13  C   UNL     1      11.089  11.612   7.711  0.00  0.00    +0.141 C 
ATOM     14  C   UNL     1      10.760  10.354   5.100  0.00  0.00    +0.127 C 
ATOM     15  C   UNL     1      10.593  11.851   5.314  0.00  0.00    +0.128 C 
ATOM     17  C   UNL     1      12.607   8.776   5.837  0.00  0.00    +0.242 C 
ATOM     18  C   UNL     1       9.018  12.900   6.910  0.00  0.00    +0.303 C 
ATOM     36  H   UNL     1       9.179  12.644   8.985  0.00  0.00    +0.150 HD
ENDROOT
BRANCH  12  16
ATOM      1  O   UNL     1       9.253   9.748   8.524  0.00  0.00    -0.274 OA
ATOM     10  N   UNL     1      10.422   7.932   7.654  0.00  0.00    -0.301 N 
ATOM     16  C   UNL     1      10.228   9.271   7.950  0.00  0.00    +0.236 C 
ATOM     35  H   UNL     1      11.236   7.651   7.116  0.00  0.00    +0.150 HD
BRANCH  10  19
ATOM     19  C   UNL     1       9.469   6.902   7.997  0.00  0.00    +0.186 C 
BRANCH  19  23
ATOM      6  O   UNL     1      11.365   5.493   8.510  0.00  0.00    -0.249 OA
ATOM     23  C   UNL     1      10.146   5.626   8.482  0.00  0.00    +0.328 C 
BRANCH  23   5
ATOM      5  O   UNL     1       9.243   4.674   8.852  0.00  0.00    -0.467 OA
ATOM     33  C   UNL     1       8.979   4.581  10.256  0.00  0.00    +0.280 C 
ENDBRANCH  23   5
ENDBRANCH  19  23
BRANCH  19  21
ATOM     21  C   UNL     1       8.496   6.632   6.840  0.00  0.00    +0.069 C 
BRANCH  21  24
ATOM     24  C   UNL     1       9.159   6.284   5.526  0.00  0.00    -0.045 A 
ATOM     27  C   UNL     1       9.868   5.090   5.398  0.00  0.00    +0.007 A 
ATOM     28  C   UNL     1       9.060   7.158   4.442  0.00  0.00    +0.007 A 
ATOM     30  C   UNL     1      10.479   4.768   4.186  0.00  0.00    +0.046 A 
ATOM     31  C   UNL     1       9.672   6.836   3.230  0.00  0.00    +0.046 A 
ATOM     32  C   UNL     1      10.380   5.642   3.102  0.00  0.00    +0.120 A 
BRANCH  32   7
ATOM      7  O   UNL     1      10.977   5.328   1.920  0.00  0.00    -0.495 OA
ATOM     34  C   UNL     1      12.318   4.845   1.977  0.00  0.00    +0.277 C 
ENDBRANCH  32   7
ENDBRANCH  21  24
ENDBRANCH  19  21
ENDBRANCH  10  19
ENDBRANCH  12  16
BRANCH  11  22
ATOM     22  C   UNL     1       7.536  13.898   8.632  0.00  0.00    +0.068 C 
ATOM     25  C   UNL     1       6.940  13.348   9.922  0.00  0.00    +0.027 C 
ATOM     26  C   UNL     1       7.897  15.371   8.774  0.00  0.00    +0.027 C 
ENDBRANCH  11  22
BRANCH  17  20
ATOM     20  C   UNL     1      12.709   8.310   4.406  0.00  0.00    +0.255 C 
BRANCH  20   4
ATOM      4  O   UNL     1      13.554   7.187   4.409  0.00  0.00    -0.374 OA
ATOM     29  C   UNL     1      14.674   7.356   3.541  0.00  0.00    +0.194 C 
ENDBRANCH  20   4
ENDBRANCH  17  20
TORSDOF 10
ENDMDL
MODEL 6
REMARK VINA RESULT:      -5.9     22.670     26.541
REMARK  Name = 7164827
REMARK  15 active torsions:
REMARK  status: ('A' for Active; 'I' for Inactive)
REMARK    1  A    between atoms: O_4  and  C_20
REMARK    2  A    between atoms: O_4  and  C_29
REMARK    3  A    between atoms: O_5  and  C_23
REMARK    4  A    between atoms: O_5  and  C_33
REMARK    5  A    between atoms: O_7  and  C_32
REMARK    6  A    between atoms: O_7  and  C_34
REMARK    7  A    between atoms: N_10  and  C_19
REMARK    8  A    between atoms: N_11  and  C_22
REMARK    9  A    between atoms: C_12  and  C_16
REMARK   10  A    between atoms: C_17  and  C_20
REMARK   11  A    between atoms: C_19  and  C_21
REMARK   12  A    between atoms: C_19  and  C_23
REMARK   13  A    between atoms: C_21  and  C_24
REMARK   14  A    between atoms: C_22  and  C_25
REMARK   15  A    between atoms: C_22  and  C_26
REMARK                            x       y       z     vdW  Elec       q    Type
REMARK                         _______ _______ _______ _____ _____    ______ ____
ROOT
ATOM      2  O   UNL     1      -8.531 -10.041   9.004  0.00  0.00    -0.273 OA
ATOM      3  O   UNL     1      -1.747  -9.681  11.293  0.00  0.00    -0.253 OA
ATOM      8  N   UNL     1      -6.339  -9.555   9.614  0.00  0.00    -0.285 N 
ATOM      9  N   UNL     1      -3.809 -10.465  10.579  0.00  0.00    -0.282 N 
ATOM     11  N   UNL     1      -2.714 -11.406  12.453  0.00  0.00    -0.297 N 
ATOM     12  C   UNL     1      -6.291 -10.632  10.610  0.00  0.00    +0.179 C 
ATOM     13  C   UNL     1      -4.956 -11.381  10.642  0.00  0.00    +0.141 C 
ATOM     14  C   UNL     1      -5.151  -8.690   9.534  0.00  0.00    +0.127 C 
ATOM     15  C   UNL     1      -3.870  -9.509   9.476  0.00  0.00    +0.128 C 
ATOM     17  C   UNL     1      -7.537  -9.313   8.934  0.00  0.00    +0.242 C 
ATOM     18  C   UNL     1      -2.693 -10.463  11.433  0.00  0.00    +0.303 C 
ATOM     36  H   UNL     1      -3.551 -11.935  12.656  0.00  0.00    +0.150 HD
ENDROOT
BRANCH  12  16
ATOM      1  O   UNL     1      -7.037  -8.855  12.021  0.00  0.00    -0.274 OA
ATOM     10  N   UNL     1      -6.308 -10.838  12.998  0.00  0.00    -0.301 N 
ATOM     16  C   UNL     1      -6.598  -9.998  11.936  0.00  0.00    +0.236 C 
ATOM     35  H   UNL     1      -6.011 -11.792  12.815  0.00  0.00    +0.150 HD
BRANCH  10  19
ATOM     19  C   UNL     1      -6.491 -10.458  14.379  0.00  0.00    +0.186 C 
BRANCH  19  23
ATOM      6  O   UNL     1      -4.778 -12.030  15.040  0.00  0.00    -0.249 OA
ATOM     23  C   UNL     1      -5.383 -10.989  15.278  0.00  0.00    +0.328 C 
BRANCH  23   5
ATOM      5  O   UNL     1      -5.171 -10.188  16.361  0.00  0.00    -0.467 OA
ATOM     33  C   UNL     1      -4.545 -10.815  17.485  0.00  0.00    +0.280 C 
ENDBRANCH  23   5
ENDBRANCH  19  23
BRANCH  19  21
ATOM     21  C   UNL     1      -7.885 -10.855  14.888  0.00  0.00    +0.069 C 
BRANCH  21  24
ATOM     24  C   UNL     1      -8.742  -9.699  15.352  0.00  0.00    -0.045 A 
ATOM     27  C   UNL     1      -9.686  -9.142  14.491  0.00  0.00    +0.007 A 
ATOM     28  C   UNL     1      -8.587  -9.190  16.642  0.00  0.00    +0.007 A 
ATOM     30  C   UNL     1     -10.477  -8.075  14.919  0.00  0.00    +0.046 A 
ATOM     31  C   UNL     1      -9.378  -8.124  17.070  0.00  0.00    +0.046 A 
ATOM     32  C   UNL     1     -10.322  -7.566  16.208  0.00  0.00    +0.120 A 
BRANCH  32   7
ATOM      7  O   UNL     1     -11.093  -6.525  16.626  0.00  0.00    -0.495 OA
ATOM     34  C   UNL     1     -12.266  -6.240  15.865  0.00  0.00    +0.277 C 
ENDBRANCH  32   7
ENDBRANCH  21  24
ENDBRANCH  19  21
ENDBRANCH  10  19
ENDBRANCH  12  16
BRANCH  11  22
ATOM     22  C   UNL     1      -1.637 -11.529  13.409  0.00  0.00    +0.068 C 
ATOM     25  C   UNL     1      -1.809 -10.525  14.542  0.00  0.00    +0.027 C 
ATOM     26  C   UNL     1      -1.561 -12.954  13.940  0.00  0.00    +0.027 C 
ENDBRANCH  11  22
BRANCH  17  20
ATOM     20  C   UNL     1      -7.586  -8.081   8.066  0.00  0.00    +0.255 C 
BRANCH  20   4
ATOM      4  O   UNL     1      -8.248  -7.090   8.812  0.00  0.00    -0.374 OA
ATOM     29  C   UNL     1      -8.984  -6.194   7.980  0.00  0.00    +0.194 C 
ENDBRANCH  20   4
ENDBRANCH  17  20
TORSDOF 10
ENDMDL
MODEL 7
REMARK VINA RESULT:      -5.8     23.988     27.665
REMARK  Name = 7164827
REMARK  15 active torsions:
REMARK  status: ('A' for Active; 'I' for Inactive)
REMARK    1  A    between atoms: O_4  and  C_20
REMARK    2  A    between atoms: O_4  and  C_29
REMARK    3  A    between atoms: O_5  and  C_23
REMARK    4  A    between atoms: O_5  and  C_33
REMARK    5  A    between atoms: O_7  and  C_32
REMARK    6  A    between atoms: O_7  and  C_34
REMARK    7  A    between atoms: N_10  and  C_19
REMARK    8  A    between atoms: N_11  and  C_22
REMARK    9  A    between atoms: C_12  and  C_16
REMARK   10  A    between atoms: C_17  and  C_20
REMARK   11  A    between atoms: C_19  and  C_21
REMARK   12  A    between atoms: C_19  and  C_23
REMARK   13  A    between atoms: C_21  and  C_24
REMARK   14  A    between atoms: C_22  and  C_25
REMARK   15  A    between atoms: C_22  and  C_26
REMARK                            x       y       z     vdW  Elec       q    Type
REMARK                         _______ _______ _______ _____ _____    ______ ____
ROOT
ATOM      2  O   UNL     1      -4.299 -11.511  11.258  0.00  0.00    -0.273 OA
ATOM      3  O   UNL     1     -10.490 -10.500  14.730  0.00  0.00    -0.253 OA
ATOM      8  N   UNL     1      -6.320 -11.574  12.409  0.00  0.00    -0.285 N 
ATOM      9  N   UNL     1      -8.621 -10.194  13.392  0.00  0.00    -0.282 N 
ATOM     11  N   UNL     1      -9.335  -8.528  14.911  0.00  0.00    -0.297 N 
ATOM     12  C   UNL     1      -6.184 -10.194  12.888  0.00  0.00    +0.179 C 
ATOM     13  C   UNL     1      -7.496  -9.405  12.872  0.00  0.00    +0.141 C 
ATOM     14  C   UNL     1      -7.490 -12.321  12.901  0.00  0.00    +0.127 C 
ATOM     15  C   UNL     1      -8.767 -11.507  12.765  0.00  0.00    +0.128 C 
ATOM     17  C   UNL     1      -5.278 -12.141  11.668  0.00  0.00    +0.242 C 
ATOM     18  C   UNL     1      -9.545  -9.790  14.369  0.00  0.00    +0.303 C 
ATOM     36  H   UNL     1      -8.482  -8.019  14.728  0.00  0.00    +0.150 HD
ENDROOT
BRANCH  12  16
ATOM      1  O   UNL     1      -6.055  -9.606  15.201  0.00  0.00    -0.274 OA
ATOM     10  N   UNL     1      -4.553 -11.168  14.349  0.00  0.00    -0.301 N 
ATOM     16  C   UNL     1      -5.612 -10.280  14.274  0.00  0.00    +0.236 C 
ATOM     35  H   UNL     1      -4.309 -11.726  13.537  0.00  0.00    +0.150 HD
BRANCH  10  19
ATOM     19  C   UNL     1      -3.814 -11.415  15.566  0.00  0.00    +0.186 C 
BRANCH  19  23
ATOM      6  O   UNL     1      -1.923 -12.446  14.470  0.00  0.00    -0.249 OA
ATOM     23  C   UNL     1      -2.331 -11.647  15.307  0.00  0.00    +0.328 C 
BRANCH  23   5
ATOM      5  O   UNL     1      -1.543 -10.886  16.117  0.00  0.00    -0.467 OA
ATOM     33  C   UNL     1      -0.857  -9.803  15.478  0.00  0.00    +0.280 C 
ENDBRANCH  23   5
ENDBRANCH  19  23
BRANCH  19  21
ATOM     21  C   UNL     1      -4.442 -12.558  16.378  0.00  0.00    +0.069 C 
BRANCH  21  24
ATOM     24  C   UNL     1      -5.484 -12.121  17.383  0.00  0.00    -0.045 A 
ATOM     27  C   UNL     1      -6.721 -12.763  17.428  0.00  0.00    +0.007 A 
ATOM     28  C   UNL     1      -5.207 -11.075  18.265  0.00  0.00    +0.007 A 
ATOM     30  C   UNL     1      -7.683 -12.361  18.355  0.00  0.00    +0.046 A 
ATOM     31  C   UNL     1      -6.169 -10.673  19.192  0.00  0.00    +0.046 A 
ATOM     32  C   UNL     1      -7.406 -11.316  19.236  0.00  0.00    +0.120 A 
BRANCH  32   7
ATOM      7  O   UNL     1      -8.345 -10.922  20.141  0.00  0.00    -0.495 OA
ATOM     34  C   UNL     1      -9.713 -11.098  19.775  0.00  0.00    +0.277 C 
ENDBRANCH  32   7
ENDBRANCH  21  24
ENDBRANCH  19  21
ENDBRANCH  10  19
ENDBRANCH  12  16
BRANCH  11  22
ATOM     22  C   UNL     1     -10.203  -7.971  15.924  0.00  0.00    +0.068 C 
ATOM     25  C   UNL     1      -9.615  -8.192  17.313  0.00  0.00    +0.027 C 
ATOM     26  C   UNL     1     -10.448  -6.492  15.656  0.00  0.00    +0.027 C 
ENDBRANCH  11  22
BRANCH  17  20
ATOM     20  C   UNL     1      -5.386 -13.614  11.365  0.00  0.00    +0.255 C 
BRANCH  20   4
ATOM      4  O   UNL     1      -4.480 -14.268  12.218  0.00  0.00    -0.374 OA
ATOM     29  C   UNL     1      -3.420 -14.895  11.497  0.00  0.00    +0.194 C 
ENDBRANCH  20   4
ENDBRANCH  17  20
TORSDOF 10
ENDMDL
MODEL 8
REMARK VINA RESULT:      -5.8     25.013     29.821
REMARK  Name = 7164827
REMARK  15 active torsions:
REMARK  status: ('A' for Active; 'I' for Inactive)
REMARK    1  A    between atoms: O_4  and  C_20
REMARK    2  A    between atoms: O_4  and  C_29
REMARK    3  A    between atoms: O_5  and  C_23
REMARK    4  A    between atoms: O_5  and  C_33
REMARK    5  A    between atoms: O_7  and  C_32
REMARK    6  A    between atoms: O_7  and  C_34
REMARK    7  A    between atoms: N_10  and  C_19
REMARK    8  A    between atoms: N_11  and  C_22
REMARK    9  A    between atoms: C_12  and  C_16
REMARK   10  A    between atoms: C_17  and  C_20
REMARK   11  A    between atoms: C_19  and  C_21
REMARK   12  A    between atoms: C_19  and  C_23
REMARK   13  A    between atoms: C_21  and  C_24
REMARK   14  A    between atoms: C_22  and  C_25
REMARK   15  A    between atoms: C_22  and  C_26
REMARK                            x       y       z     vdW  Elec       q    Type
REMARK                         _______ _______ _______ _____ _____    ______ ____
ROOT
ATOM      2  O   UNL     1      -9.891  -7.656  17.401  0.00  0.00    -0.273 OA
ATOM      3  O   UNL     1     -12.738 -13.802  19.749  0.00  0.00    -0.253 OA
ATOM      8  N   UNL     1     -10.911  -9.711  17.787  0.00  0.00    -0.285 N 
ATOM      9  N   UNL     1     -11.879 -11.651  19.648  0.00  0.00    -0.282 N 
ATOM     11  N   UNL     1     -11.210 -13.167  21.335  0.00  0.00    -0.297 N 
ATOM     12  C   UNL     1     -10.192  -9.923  19.049  0.00  0.00    +0.179 C 
ATOM     13  C   UNL     1     -11.053 -10.544  20.152  0.00  0.00    +0.141 C 
ATOM     14  C   UNL     1     -11.777 -10.813  17.339  0.00  0.00    +0.127 C 
ATOM     15  C   UNL     1     -12.668 -11.315  18.465  0.00  0.00    +0.128 C 
ATOM     17  C   UNL     1     -10.617  -8.578  17.021  0.00  0.00    +0.242 C 
ATOM     18  C   UNL     1     -11.992 -12.933  20.212  0.00  0.00    +0.303 C 
ATOM     36  H   UNL     1     -10.492 -12.514  21.617  0.00  0.00    +0.150 HD
ENDROOT
BRANCH  12  16
ATOM      1  O   UNL     1      -9.082 -12.014  18.726  0.00  0.00    -0.274 OA
ATOM     10  N   UNL     1      -7.873 -10.043  18.453  0.00  0.00    -0.301 N 
ATOM     16  C   UNL     1      -9.009 -10.788  18.723  0.00  0.00    +0.236 C 
ATOM     35  H   UNL     1      -7.937  -9.030  18.411  0.00  0.00    +0.150 HD
BRANCH  10  19
ATOM     19  C   UNL     1      -6.596 -10.638  18.133  0.00  0.00    +0.186 C 
BRANCH  19  23
ATOM      6  O   UNL     1      -6.135 -10.922  20.489  0.00  0.00    -0.249 OA
ATOM     23  C   UNL     1      -5.952 -11.309  19.339  0.00  0.00    +0.328 C 
BRANCH  23   5
ATOM      5  O   UNL     1      -5.156 -12.356  18.980  0.00  0.00    -0.467 OA
ATOM     33  C   UNL     1      -3.798 -12.286  19.430  0.00  0.00    +0.280 C 
ENDBRANCH  23   5
ENDBRANCH  19  23
BRANCH  19  21
ATOM     21  C   UNL     1      -5.656  -9.620  17.472  0.00  0.00    +0.069 C 
BRANCH  21  24
ATOM     24  C   UNL     1      -5.011 -10.095  16.190  0.00  0.00    -0.045 A 
ATOM     27  C   UNL     1      -5.733 -10.075  14.997  0.00  0.00    +0.007 A 
ATOM     28  C   UNL     1      -3.693 -10.554  16.200  0.00  0.00    +0.007 A 
ATOM     30  C   UNL     1      -5.139 -10.514  13.814  0.00  0.00    +0.046 A 
ATOM     31  C   UNL     1      -3.099 -10.993  15.016  0.00  0.00    +0.046 A 
ATOM     32  C   UNL     1      -3.821 -10.973  13.824  0.00  0.00    +0.120 A 
BRANCH  32   7
ATOM      7  O   UNL     1      -3.241 -11.401  12.670  0.00  0.00    -0.495 OA
ATOM     34  C   UNL     1      -1.998 -10.804  12.307  0.00  0.00    +0.277 C 
ENDBRANCH  32   7
ENDBRANCH  21  24
ENDBRANCH  19  21
ENDBRANCH  10  19
ENDBRANCH  12  16
BRANCH  11  22
ATOM     22  C   UNL     1     -11.220 -14.436  22.029  0.00  0.00    +0.068 C 
ATOM     25  C   UNL     1      -9.835 -15.072  22.001  0.00  0.00    +0.027 C 
ATOM     26  C   UNL     1     -11.716 -14.255  23.457  0.00  0.00    +0.027 C 
ENDBRANCH  11  22
BRANCH  17  20
ATOM     20  C   UNL     1     -11.243  -8.506  15.651  0.00  0.00    +0.255 C 
BRANCH  20   4
ATOM      4  O   UNL     1     -11.357  -7.141  15.332  0.00  0.00    -0.374 OA
ATOM     29  C   UNL     1     -12.681  -6.651  15.540  0.00  0.00    +0.194 C 
ENDBRANCH  20   4
ENDBRANCH  17  20
TORSDOF 10
ENDMDL
MODEL 9
REMARK VINA RESULT:      -5.7     23.897     26.989
REMARK  Name = 7164827
REMARK  15 active torsions:
REMARK  status: ('A' for Active; 'I' for Inactive)
REMARK    1  A    between atoms: O_4  and  C_20
REMARK    2  A    between atoms: O_4  and  C_29
REMARK    3  A    between atoms: O_5  and  C_23
REMARK    4  A    between atoms: O_5  and  C_33
REMARK    5  A    between atoms: O_7  and  C_32
REMARK    6  A    between atoms: O_7  and  C_34
REMARK    7  A    between atoms: N_10  and  C_19
REMARK    8  A    between atoms: N_11  and  C_22
REMARK    9  A    between atoms: C_12  and  C_16
REMARK   10  A    between atoms: C_17  and  C_20
REMARK   11  A    between atoms: C_19  and  C_21
REMARK   12  A    between atoms: C_19  and  C_23
REMARK   13  A    between atoms: C_21  and  C_24
REMARK   14  A    between atoms: C_22  and  C_25
REMARK   15  A    between atoms: C_22  and  C_26
REMARK                            x       y       z     vdW  Elec       q    Type
REMARK                         _______ _______ _______ _____ _____    ______ ____
ROOT
ATOM      2  O   UNL     1     -10.285  -8.654  17.684  0.00  0.00    -0.273 OA
ATOM      3  O   UNL     1      -4.107 -12.269  17.277  0.00  0.00    -0.253 OA
ATOM      8  N   UNL     1      -8.488 -10.132  17.686  0.00  0.00    -0.285 N 
ATOM      9  N   UNL     1      -5.678 -10.568  17.404  0.00  0.00    -0.282 N 
ATOM     11  N   UNL     1      -3.885 -10.476  15.866  0.00  0.00    -0.297 N 
ATOM     12  C   UNL     1      -7.728  -9.336  16.715  0.00  0.00    +0.179 C 
ATOM     13  C   UNL     1      -6.229  -9.261  17.020  0.00  0.00    +0.141 C 
ATOM     14  C   UNL     1      -7.883 -11.409  18.097  0.00  0.00    +0.127 C 
ATOM     15  C   UNL     1      -6.419 -11.236  18.473  0.00  0.00    +0.128 C 
ATOM     17  C   UNL     1      -9.782  -9.726  18.031  0.00  0.00    +0.242 C 
ATOM     18  C   UNL     1      -4.529 -11.179  16.876  0.00  0.00    +0.303 C 
ATOM     36  H   UNL     1      -4.314  -9.668  15.437  0.00  0.00    +0.150 HD
ENDROOT
BRANCH  12  16
ATOM      1  O   UNL     1      -9.044 -10.511  15.104  0.00  0.00    -0.274 OA
ATOM     10  N   UNL     1      -6.899  -9.821  14.519  0.00  0.00    -0.301 N 
ATOM     16  C   UNL     1      -7.984  -9.951  15.369  0.00  0.00    +0.236 C 
ATOM     35  H   UNL     1      -6.093  -9.279  14.815  0.00  0.00    +0.150 HD
BRANCH  10  19
ATOM     19  C   UNL     1      -6.882 -10.348  13.173  0.00  0.00    +0.186 C 
BRANCH  19  23
ATOM      6  O   UNL     1      -5.712 -12.332  13.907  0.00  0.00    -0.249 OA
ATOM     23  C   UNL     1      -6.522 -11.827  13.136  0.00  0.00    +0.328 C 
BRANCH  23   5
ATOM      5  O   UNL     1      -7.187 -12.493  12.150  0.00  0.00    -0.467 OA
ATOM     33  C   UNL     1      -8.600 -12.632  12.336  0.00  0.00    +0.280 C 
ENDBRANCH  23   5
ENDBRANCH  19  23
BRANCH  19  21
ATOM     21  C   UNL     1      -5.977  -9.512  12.257  0.00  0.00    +0.069 C 
BRANCH  21  24
ATOM     24  C   UNL     1      -6.628  -9.056  10.971  0.00  0.00    -0.045 A 
ATOM     27  C   UNL     1      -5.849  -8.505   9.954  0.00  0.00    +0.007 A 
ATOM     28  C   UNL     1      -8.007  -9.186  10.802  0.00  0.00    +0.007 A 
ATOM     30  C   UNL     1      -6.449  -8.084   8.766  0.00  0.00    +0.046 A 
ATOM     31  C   UNL     1      -8.606  -8.765   9.615  0.00  0.00    +0.046 A 
ATOM     32  C   UNL     1      -7.828  -8.214   8.598  0.00  0.00    +0.120 A 
BRANCH  32   7
ATOM      7  O   UNL     1      -8.413  -7.802   7.440  0.00  0.00    -0.495 OA
ATOM     34  C   UNL     1      -9.066  -6.534   7.457  0.00  0.00    +0.277 C 
ENDBRANCH  32   7
ENDBRANCH  21  24
ENDBRANCH  19  21
ENDBRANCH  10  19
ENDBRANCH  12  16
BRANCH  11  22
ATOM     22  C   UNL     1      -2.687 -10.973  15.226  0.00  0.00    +0.068 C 
ATOM     25  C   UNL     1      -2.684 -10.616  13.744  0.00  0.00    +0.027 C 
ATOM     26  C   UNL     1      -1.448 -10.431  15.927  0.00  0.00    +0.027 C 
ENDBRANCH  11  22
BRANCH  17  20
ATOM     20  C   UNL     1     -10.585 -10.677  18.882  0.00  0.00    +0.255 C 
BRANCH  20   4
ATOM      4  O   UNL     1     -10.874  -9.998  20.079  0.00  0.00    -0.374 OA
ATOM     29  C   UNL     1     -12.268 -10.013  20.382  0.00  0.00    +0.194 C 
ENDBRANCH  20   4
ENDBRANCH  17  20
TORSDOF 10
ENDMDL
MODEL 10
REMARK VINA RESULT:      -5.7      2.444      7.003
REMARK  Name = 7164827
REMARK  15 active torsions:
REMARK  status: ('A' for Active; 'I' for Inactive)
REMARK    1  A    between atoms: O_4  and  C_20
REMARK    2  A    between atoms: O_4  and  C_29
REMARK    3  A    between atoms: O_5  and  C_23
REMARK    4  A    between atoms: O_5  and  C_33
REMARK    5  A    between atoms: O_7  and  C_32
REMARK    6  A    between atoms: O_7  and  C_34
REMARK    7  A    between atoms: N_10  and  C_19
REMARK    8  A    between atoms: N_11  and  C_22
REMARK    9  A    between atoms: C_12  and  C_16
REMARK   10  A    between atoms: C_17  and  C_20
REMARK   11  A    between atoms: C_19  and  C_21
REMARK   12  A    between atoms: C_19  and  C_23
REMARK   13  A    between atoms: C_21  and  C_24
REMARK   14  A    between atoms: C_22  and  C_25
REMARK   15  A    between atoms: C_22  and  C_26
REMARK                            x       y       z     vdW  Elec       q    Type
REMARK                         _______ _______ _______ _____ _____    ______ ____
ROOT
ATOM      2  O   UNL     1      11.729   6.661   7.373  0.00  0.00    -0.273 OA
ATOM      3  O   UNL     1      10.040   4.188   0.859  0.00  0.00    -0.253 OA
ATOM      8  N   UNL     1      10.856   5.723   5.431  0.00  0.00    -0.285 N 
ATOM      9  N   UNL     1      11.210   4.995   2.691  0.00  0.00    -0.282 N 
ATOM     11  N   UNL     1      11.562   5.868   0.522  0.00  0.00    -0.297 N 
ATOM     12  C   UNL     1      11.666   6.578   4.556  0.00  0.00    +0.179 C 
ATOM     13  C   UNL     1      12.221   5.851   3.328  0.00  0.00    +0.141 C 
ATOM     14  C   UNL     1       9.894   4.832   4.761  0.00  0.00    +0.127 C 
ATOM     15  C   UNL     1      10.543   4.076   3.611  0.00  0.00    +0.128 C 
ATOM     17  C   UNL     1      10.921   5.913   6.816  0.00  0.00    +0.242 C 
ATOM     18  C   UNL     1      10.879   4.965   1.326  0.00  0.00    +0.303 C 
ATOM     36  H   UNL     1      12.129   6.601   0.925  0.00  0.00    +0.150 HD
ENDROOT
BRANCH  12  16
ATOM      1  O   UNL     1      10.611   8.039   2.986  0.00  0.00    -0.274 OA
ATOM     10  N   UNL     1      10.259   8.386   5.262  0.00  0.00    -0.301 N 
ATOM     16  C   UNL     1      10.791   7.733   4.162  0.00  0.00    +0.236 C 
ATOM     35  H   UNL     1      10.417   8.010   6.192  0.00  0.00    +0.150 HD
BRANCH  10  19
ATOM     19  C   UNL     1       9.403   9.544   5.155  0.00  0.00    +0.186 C 
BRANCH  19  23
ATOM      6  O   UNL     1       9.037  11.591   6.388  0.00  0.00    -0.249 OA
ATOM     23  C   UNL     1       9.759  10.624   6.168  0.00  0.00    +0.328 C 
BRANCH  23   5
ATOM      5  O   UNL     1      10.961  10.389   6.767  0.00  0.00    -0.467 OA
ATOM     33  C   UNL     1      10.959  10.424   8.198  0.00  0.00    +0.280 C 
ENDBRANCH  23   5
ENDBRANCH  19  23
BRANCH  19  21
ATOM     21  C   UNL     1       7.920   9.151   5.231  0.00  0.00    +0.069 C 
BRANCH  21  24
ATOM     24  C   UNL     1       7.093   9.569   4.035  0.00  0.00    -0.045 A 
ATOM     27  C   UNL     1       7.490   9.197   2.751  0.00  0.00    +0.007 A 
ATOM     28  C   UNL     1       5.935  10.325   4.217  0.00  0.00    +0.007 A 
ATOM     30  C   UNL     1       6.728   9.582   1.647  0.00  0.00    +0.046 A 
ATOM     31  C   UNL     1       5.173  10.709   3.114  0.00  0.00    +0.046 A 
ATOM     32  C   UNL     1       5.570  10.338   1.829  0.00  0.00    +0.120 A 
BRANCH  32   7
ATOM      7  O   UNL     1       4.826  10.714   0.753  0.00  0.00    -0.495 OA
ATOM     34  C   UNL     1       4.123   9.686   0.058  0.00  0.00    +0.277 C 
ENDBRANCH  32   7
ENDBRANCH  21  24
ENDBRANCH  19  21
ENDBRANCH  10  19
ENDBRANCH  12  16
BRANCH  11  22
ATOM     22  C   UNL     1      11.334   5.954  -0.903  0.00  0.00    +0.068 C 
ATOM     25  C   UNL     1      11.237   7.410  -1.343  0.00  0.00    +0.027 C 
ATOM     26  C   UNL     1      12.434   5.221  -1.661  0.00  0.00    +0.027 C 
ENDBRANCH  11  22
BRANCH  17  20
ATOM     20  C   UNL     1       9.932   5.141   7.653  0.00  0.00    +0.255 C 
BRANCH  20   4
ATOM      4  O   UNL     1      10.391   5.211   8.980  0.00  0.00    -0.374 OA
ATOM     29  C   UNL     1       9.433   4.697   9.906  0.00  0.00    +0.194 C 
ENDBRANCH  20   4
ENDBRANCH  17  20
TORSDOF 10
ENDMDL
