MODEL 1
REMARK VINA RESULT:      -6.6      0.000      0.000
REMARK  Name = 11941993
REMARK  5 active torsions:
REMARK  status: ('A' for Active; 'I' for Inactive)
REMARK    1  A    between atoms: O_3  and  C_24
REMARK    2  A    between atoms: N_6  and  C_16
REMARK    3  A    between atoms: C_10  and  C_17
REMARK    4  A    between atoms: C_11  and  C_16
REMARK    5  A    between atoms: C_23  and  C_24
REMARK                            x       y       z     vdW  Elec       q    Type
REMARK                         _______ _______ _______ _____ _____    ______ ____
ROOT
ATOM      4  N   UNL     1      12.219   9.186  19.569  0.00  0.00    -0.297 NA
ATOM      9  C   UNL     1      12.018   8.566  22.088  0.00  0.00    +0.005 C 
ATOM     10  C   UNL     1      11.988  10.093  21.886  0.00  0.00    +0.092 C 
ATOM     11  C   UNL     1      13.322   8.266  19.955  0.00  0.00    +0.078 C 
ATOM     12  C   UNL     1      13.316   8.004  21.477  0.00  0.00    +0.025 C 
ATOM     13  C   UNL     1      10.843   7.988  21.280  0.00  0.00    +0.020 C 
ATOM     14  C   UNL     1      12.255  10.413  20.405  0.00  0.00    +0.097 C 
ATOM     15  C   UNL     1      10.933   8.490  19.827  0.00  0.00    +0.085 C 
ENDROOT
BRANCH  10  17
ATOM      1  O   UNL     1      14.171  10.788  22.496  0.00  0.00    -0.275 OA
ATOM      2  O   UNL     1      11.420  13.229  25.803  0.00  0.00    -0.377 OA
ATOM      5  N   UNL     1      12.451  11.387  23.936  0.00  0.00    -0.297 N 
ATOM     17  C   UNL     1      12.974  10.784  22.795  0.00  0.00    +0.220 C 
ATOM     18  C   UNL     1      13.338  12.083  24.868  0.00  0.00    +0.136 C 
ATOM     19  C   UNL     1      11.058  11.293  24.386  0.00  0.00    +0.136 C 
ATOM     20  C   UNL     1      12.736  13.420  25.275  0.00  0.00    +0.179 C 
ATOM     21  C   UNL     1      10.550  12.662  24.819  0.00  0.00    +0.179 C 
ENDBRANCH  10  17
BRANCH  11  16
ATOM     16  C   UNL     1      14.687   8.757  19.467  0.00  0.00    +0.164 C 
BRANCH  16   6
ATOM      6  N   UNL     1      15.688   7.704  19.515  0.00  0.00    -0.250 N 
ATOM      7  N   UNL     1      15.500   6.568  18.835  0.00  0.00    -0.065 NA
ATOM      8  N   UNL     1      16.561   5.802  19.068  0.00  0.00    -0.132 NA
ATOM     22  C   UNL     1      16.855   7.713  20.198  0.00  0.00    +0.136 A 
ATOM     23  C   UNL     1      17.400   6.488  19.901  0.00  0.00    +0.108 A 
BRANCH  23  24
ATOM     24  C   UNL     1      18.672   5.908  20.349  0.00  0.00    +0.214 C 
BRANCH  24   3
ATOM      3  O   UNL     1      19.130   4.851  19.496  0.00  0.00    -0.389 OA
ATOM     25  H   UNL     1      18.927   4.011  19.943  0.00  0.00    +0.210 HD
ENDBRANCH  24   3
ENDBRANCH  23  24
ENDBRANCH  16   6
ENDBRANCH  11  16
TORSDOF 5
ENDMDL
MODEL 2
REMARK VINA RESULT:      -6.2     19.366     22.322
REMARK  Name = 11941993
REMARK  5 active torsions:
REMARK  status: ('A' for Active; 'I' for Inactive)
REMARK    1  A    between atoms: O_3  and  C_24
REMARK    2  A    between atoms: N_6  and  C_16
REMARK    3  A    between atoms: C_10  and  C_17
REMARK    4  A    between atoms: C_11  and  C_16
REMARK    5  A    between atoms: C_23  and  C_24
REMARK                            x       y       z     vdW  Elec       q    Type
REMARK                         _______ _______ _______ _____ _____    ______ ____
ROOT
ATOM      4  N   UNL     1      12.950   5.662   1.638  0.00  0.00    -0.297 NA
ATOM      9  C   UNL     1      13.114   3.319   0.518  0.00  0.00    +0.005 C 
ATOM     10  C   UNL     1      12.607   4.378  -0.479  0.00  0.00    +0.092 C 
ATOM     11  C   UNL     1      12.225   4.655   2.458  0.00  0.00    +0.078 C 
ATOM     12  C   UNL     1      12.176   3.289   1.740  0.00  0.00    +0.025 C 
ATOM     13  C   UNL     1      14.492   3.796   1.009  0.00  0.00    +0.020 C 
ATOM     14  C   UNL     1      12.388   5.708   0.264  0.00  0.00    +0.097 C 
ATOM     15  C   UNL     1      14.369   5.236   1.541  0.00  0.00    +0.085 C 
ENDROOT
BRANCH  10  17
ATOM      1  O   UNL     1      10.264   4.031  -0.607  0.00  0.00    -0.275 OA
ATOM      2  O   UNL     1      11.651   2.994  -5.240  0.00  0.00    -0.377 OA
ATOM      5  N   UNL     1      11.514   3.376  -2.451  0.00  0.00    -0.297 N 
ATOM     17  C   UNL     1      11.353   3.914  -1.177  0.00  0.00    +0.220 C 
ATOM     18  C   UNL     1      10.349   2.906  -3.200  0.00  0.00    +0.136 C 
ATOM     19  C   UNL     1      12.799   3.106  -3.105  0.00  0.00    +0.136 C 
ATOM     20  C   UNL     1      10.414   3.390  -4.641  0.00  0.00    +0.179 C 
ATOM     21  C   UNL     1      12.763   3.576  -4.553  0.00  0.00    +0.179 C 
ENDBRANCH  10  17
BRANCH  11  16
ATOM     16  C   UNL     1      10.830   5.134   2.867  0.00  0.00    +0.164 C 
BRANCH  16   6
ATOM      6  N   UNL     1      10.732   5.346   4.302  0.00  0.00    -0.250 N 
ATOM      7  N   UNL     1      11.486   6.277   4.895  0.00  0.00    -0.065 NA
ATOM      8  N   UNL     1      11.190   6.243   6.190  0.00  0.00    -0.132 NA
ATOM     22  C   UNL     1       9.936   4.688   5.176  0.00  0.00    +0.136 A 
ATOM     23  C   UNL     1      10.243   5.275   6.379  0.00  0.00    +0.108 A 
BRANCH  23  24
ATOM     24  C   UNL     1       9.701   4.987   7.713  0.00  0.00    +0.214 C 
BRANCH  24   3
ATOM      3  O   UNL     1      10.414   3.942   8.387  0.00  0.00    -0.389 OA
ATOM     25  H   UNL     1      10.026   3.096   8.102  0.00  0.00    +0.210 HD
ENDBRANCH  24   3
ENDBRANCH  23  24
ENDBRANCH  16   6
ENDBRANCH  11  16
TORSDOF 5
ENDMDL
MODEL 3
REMARK VINA RESULT:      -5.9      3.170      3.934
REMARK  Name = 11941993
REMARK  5 active torsions:
REMARK  status: ('A' for Active; 'I' for Inactive)
REMARK    1  A    between atoms: O_3  and  C_24
REMARK    2  A    between atoms: N_6  and  C_16
REMARK    3  A    between atoms: C_10  and  C_17
REMARK    4  A    between atoms: C_11  and  C_16
REMARK    5  A    between atoms: C_23  and  C_24
REMARK                            x       y       z     vdW  Elec       q    Type
REMARK                         _______ _______ _______ _____ _____    ______ ____
ROOT
ATOM      4  N   UNL     1      12.562   8.199  20.115  0.00  0.00    -0.297 NA
ATOM      9  C   UNL     1      14.017   9.841  21.514  0.00  0.00    +0.005 C 
ATOM     10  C   UNL     1      12.521  10.000  21.847  0.00  0.00    +0.092 C 
ATOM     11  C   UNL     1      13.458   8.974  19.217  0.00  0.00    +0.078 C 
ATOM     12  C   UNL     1      14.222  10.062  20.003  0.00  0.00    +0.025 C 
ATOM     13  C   UNL     1      14.386   8.378  21.818  0.00  0.00    +0.020 C 
ATOM     14  C   UNL     1      11.694   9.118  20.895  0.00  0.00    +0.097 C 
ATOM     15  C   UNL     1      13.413   7.446  21.071  0.00  0.00    +0.085 C 
ENDROOT
BRANCH  10  17
ATOM      1  O   UNL     1      11.963  11.986  20.676  0.00  0.00    -0.275 OA
ATOM      2  O   UNL     1      10.711  13.206  25.303  0.00  0.00    -0.377 OA
ATOM      5  N   UNL     1      11.879  12.088  22.994  0.00  0.00    -0.297 N 
ATOM     17  C   UNL     1      12.098  11.446  21.778  0.00  0.00    +0.220 C 
ATOM     18  C   UNL     1      11.461  13.490  23.018  0.00  0.00    +0.136 C 
ATOM     19  C   UNL     1      12.150  11.519  24.319  0.00  0.00    +0.136 C 
ATOM     20  C   UNL     1      10.327  13.689  24.013  0.00  0.00    +0.179 C 
ATOM     21  C   UNL     1      10.990  11.803  25.263  0.00  0.00    +0.179 C 
ENDBRANCH  10  17
BRANCH  11  16
ATOM     16  C   UNL     1      12.714   9.558  18.014  0.00  0.00    +0.164 C 
BRANCH  16   6
ATOM      6  N   UNL     1      13.563   9.629  16.836  0.00  0.00    -0.250 N 
ATOM      7  N   UNL     1      13.741   8.549  16.071  0.00  0.00    -0.065 NA
ATOM      8  N   UNL     1      14.557   8.906  15.085  0.00  0.00    -0.132 NA
ATOM     22  C   UNL     1      14.245  10.706  16.382  0.00  0.00    +0.136 A 
ATOM     23  C   UNL     1      14.875  10.224  15.261  0.00  0.00    +0.108 A 
BRANCH  23  24
ATOM     24  C   UNL     1      15.768  10.925  14.329  0.00  0.00    +0.214 C 
BRANCH  24   3
ATOM      3  O   UNL     1      15.451  10.663  12.955  0.00  0.00    -0.389 OA
ATOM     25  H   UNL     1      14.559  10.276  12.933  0.00  0.00    +0.210 HD
ENDBRANCH  24   3
ENDBRANCH  23  24
ENDBRANCH  16   6
ENDBRANCH  11  16
TORSDOF 5
ENDMDL
MODEL 4
REMARK VINA RESULT:      -5.9     27.330     29.898
REMARK  Name = 11941993
REMARK  5 active torsions:
REMARK  status: ('A' for Active; 'I' for Inactive)
REMARK    1  A    between atoms: O_3  and  C_24
REMARK    2  A    between atoms: N_6  and  C_16
REMARK    3  A    between atoms: C_10  and  C_17
REMARK    4  A    between atoms: C_11  and  C_16
REMARK    5  A    between atoms: C_23  and  C_24
REMARK                            x       y       z     vdW  Elec       q    Type
REMARK                         _______ _______ _______ _____ _____    ______ ____
ROOT
ATOM      4  N   UNL     1      -5.331 -10.254  11.170  0.00  0.00    -0.297 NA
ATOM      9  C   UNL     1      -4.702  -8.982   8.989  0.00  0.00    +0.005 C 
ATOM     10  C   UNL     1      -5.631 -10.174   8.690  0.00  0.00    +0.092 C 
ATOM     11  C   UNL     1      -3.854 -10.109  11.074  0.00  0.00    +0.078 C 
ATOM     12  C   UNL     1      -3.445  -9.494   9.718  0.00  0.00    +0.025 C 
ATOM     13  C   UNL     1      -5.458  -8.065   9.967  0.00  0.00    +0.020 C 
ATOM     14  C   UNL     1      -5.855 -10.977   9.983  0.00  0.00    +0.097 C 
ATOM     15  C   UNL     1      -5.923  -8.893  11.179  0.00  0.00    +0.085 C 
ENDROOT
BRANCH  10  17
ATOM      1  O   UNL     1      -4.277 -11.936   7.863  0.00  0.00    -0.275 OA
ATOM      2  O   UNL     1      -6.884 -10.746   3.832  0.00  0.00    -0.377 OA
ATOM      5  N   UNL     1      -5.512 -10.751   6.294  0.00  0.00    -0.297 N 
ATOM     17  C   UNL     1      -5.074 -11.036   7.585  0.00  0.00    +0.220 C 
ATOM     18  C   UNL     1      -5.025 -11.543   5.164  0.00  0.00    +0.136 C 
ATOM     19  C   UNL     1      -6.357  -9.615   5.912  0.00  0.00    +0.136 C 
ATOM     20  C   UNL     1      -6.177 -11.919   4.244  0.00  0.00    +0.179 C 
ATOM     21  C   UNL     1      -7.452 -10.068   4.956  0.00  0.00    +0.179 C 
ENDBRANCH  10  17
BRANCH  11  16
ATOM     16  C   UNL     1      -3.122 -11.425  11.347  0.00  0.00    +0.164 C 
BRANCH  16   6
ATOM      6  N   UNL     1      -2.540 -11.453  12.679  0.00  0.00    -0.250 N 
ATOM      7  N   UNL     1      -2.294 -12.621  13.279  0.00  0.00    -0.065 NA
ATOM      8  N   UNL     1      -1.774 -12.340  14.470  0.00  0.00    -0.132 NA
ATOM     22  C   UNL     1      -2.194 -10.393  13.444  0.00  0.00    +0.136 A 
ATOM     23  C   UNL     1      -1.706 -10.979  14.586  0.00  0.00    +0.108 A 
BRANCH  23  24
ATOM     24  C   UNL     1      -1.173 -10.343  15.797  0.00  0.00    +0.214 C 
BRANCH  24   3
ATOM      3  O   UNL     1      -1.433 -11.105  16.984  0.00  0.00    -0.389 OA
ATOM     25  H   UNL     1      -2.231 -10.732  17.398  0.00  0.00    +0.210 HD
ENDBRANCH  24   3
ENDBRANCH  23  24
ENDBRANCH  16   6
ENDBRANCH  11  16
TORSDOF 5
ENDMDL
MODEL 5
REMARK VINA RESULT:      -5.7     29.234     30.583
REMARK  Name = 11941993
REMARK  5 active torsions:
REMARK  status: ('A' for Active; 'I' for Inactive)
REMARK    1  A    between atoms: O_3  and  C_24
REMARK    2  A    between atoms: N_6  and  C_16
REMARK    3  A    between atoms: C_10  and  C_17
REMARK    4  A    between atoms: C_11  and  C_16
REMARK    5  A    between atoms: C_23  and  C_24
REMARK                            x       y       z     vdW  Elec       q    Type
REMARK                         _______ _______ _______ _____ _____    ______ ____
ROOT
ATOM      4  N   UNL     1     -15.116   5.145  31.531  0.00  0.00    -0.297 NA
ATOM      9  C   UNL     1     -16.149   5.649  33.865  0.00  0.00    +0.005 C 
ATOM     10  C   UNL     1     -14.964   6.588  33.566  0.00  0.00    +0.092 C 
ATOM     11  C   UNL     1     -15.202   3.894  32.329  0.00  0.00    +0.078 C 
ATOM     12  C   UNL     1     -15.668   4.188  33.771  0.00  0.00    +0.025 C 
ATOM     13  C   UNL     1     -17.181   5.866  32.745  0.00  0.00    +0.020 C 
ATOM     14  C   UNL     1     -14.298   6.157  32.247  0.00  0.00    +0.097 C 
ATOM     15  C   UNL     1     -16.490   5.685  31.380  0.00  0.00    +0.085 C 
ENDROOT
BRANCH  10  17
ATOM      1  O   UNL     1     -13.720   5.557  35.301  0.00  0.00    -0.275 OA
ATOM      2  O   UNL     1     -11.710  10.075  35.224  0.00  0.00    -0.377 OA
ATOM      5  N   UNL     1     -13.418   7.842  35.023  0.00  0.00    -0.297 N 
ATOM     17  C   UNL     1     -13.981   6.608  34.709  0.00  0.00    +0.220 C 
ATOM     18  C   UNL     1     -12.450   7.949  36.116  0.00  0.00    +0.136 C 
ATOM     19  C   UNL     1     -13.797   9.127  34.428  0.00  0.00    +0.136 C 
ATOM     20  C   UNL     1     -11.263   8.800  35.691  0.00  0.00    +0.179 C 
ATOM     21  C   UNL     1     -12.554   9.934  34.077  0.00  0.00    +0.179 C 
ENDBRANCH  10  17
BRANCH  11  16
ATOM     16  C   UNL     1     -13.895   3.097  32.304  0.00  0.00    +0.164 C 
BRANCH  16   6
ATOM      6  N   UNL     1     -14.063   1.805  31.658  0.00  0.00    -0.250 N 
ATOM      7  N   UNL     1     -14.892   0.896  32.180  0.00  0.00    -0.065 NA
ATOM      8  N   UNL     1     -14.838  -0.171  31.390  0.00  0.00    -0.132 NA
ATOM     22  C   UNL     1     -13.454   1.367  30.532  0.00  0.00    +0.136 A 
ATOM     23  C   UNL     1     -13.962   0.101  30.376  0.00  0.00    +0.108 A 
BRANCH  23  24
ATOM     24  C   UNL     1     -13.679  -0.886  29.327  0.00  0.00    +0.214 C 
BRANCH  24   3
ATOM      3  O   UNL     1     -12.418  -1.545  29.511  0.00  0.00    -0.389 OA
ATOM     25  H   UNL     1     -12.276  -1.633  30.469  0.00  0.00    +0.210 HD
ENDBRANCH  24   3
ENDBRANCH  23  24
ENDBRANCH  16   6
ENDBRANCH  11  16
TORSDOF 5
ENDMDL
MODEL 6
REMARK VINA RESULT:      -5.5     25.196     28.002
REMARK  Name = 11941993
REMARK  5 active torsions:
REMARK  status: ('A' for Active; 'I' for Inactive)
REMARK    1  A    between atoms: O_3  and  C_24
REMARK    2  A    between atoms: N_6  and  C_16
REMARK    3  A    between atoms: C_10  and  C_17
REMARK    4  A    between atoms: C_11  and  C_16
REMARK    5  A    between atoms: C_23  and  C_24
REMARK                            x       y       z     vdW  Elec       q    Type
REMARK                         _______ _______ _______ _____ _____    ______ ____
ROOT
ATOM      4  N   UNL     1     -14.958   8.762  21.346  0.00  0.00    -0.297 NA
ATOM      9  C   UNL     1     -12.385   9.066  21.107  0.00  0.00    +0.005 C 
ATOM     10  C   UNL     1     -13.122   9.535  19.838  0.00  0.00    +0.092 C 
ATOM     11  C   UNL     1     -14.264   7.486  21.666  0.00  0.00    +0.078 C 
ATOM     12  C   UNL     1     -12.749   7.595  21.385  0.00  0.00    +0.025 C 
ATOM     13  C   UNL     1     -12.935   9.903  22.275  0.00  0.00    +0.020 C 
ATOM     14  C   UNL     1     -14.618   9.201  19.969  0.00  0.00    +0.097 C 
ATOM     15  C   UNL     1     -14.472   9.796  22.294  0.00  0.00    +0.085 C 
ENDROOT
BRANCH  10  17
ATOM      1  O   UNL     1     -13.048   7.928  18.095  0.00  0.00    -0.275 OA
ATOM      2  O   UNL     1      -9.577  11.124  16.612  0.00  0.00    -0.377 OA
ATOM      5  N   UNL     1     -11.377   9.540  18.093  0.00  0.00    -0.297 N 
ATOM     17  C   UNL     1     -12.518   8.923  18.599  0.00  0.00    +0.220 C 
ATOM     18  C   UNL     1     -10.731   9.013  16.891  0.00  0.00    +0.136 C 
ATOM     19  C   UNL     1     -10.649  10.641  18.734  0.00  0.00    +0.136 C 
ATOM     20  C   UNL     1     -10.376  10.146  15.940  0.00  0.00    +0.179 C 
ATOM     21  C   UNL     1     -10.292  11.706  17.706  0.00  0.00    +0.179 C 
ENDBRANCH  10  17
BRANCH  11  16
ATOM     16  C   UNL     1     -14.891   6.287  20.952  0.00  0.00    +0.164 C 
BRANCH  16   6
ATOM      6  N   UNL     1     -15.346   5.275  21.892  0.00  0.00    -0.250 N 
ATOM      7  N   UNL     1     -16.319   4.427  21.546  0.00  0.00    -0.065 NA
ATOM      8  N   UNL     1     -16.524   3.632  22.591  0.00  0.00    -0.132 NA
ATOM     22  C   UNL     1     -14.894   5.063  23.150  0.00  0.00    +0.136 A 
ATOM     23  C   UNL     1     -15.660   4.008  23.581  0.00  0.00    +0.108 A 
BRANCH  23  24
ATOM     24  C   UNL     1     -15.637   3.318  24.877  0.00  0.00    +0.214 C 
BRANCH  24   3
ATOM      3  O   UNL     1     -15.911   4.196  25.977  0.00  0.00    -0.389 OA
ATOM     25  H   UNL     1     -15.579   3.761  26.782  0.00  0.00    +0.210 HD
ENDBRANCH  24   3
ENDBRANCH  23  24
ENDBRANCH  16   6
ENDBRANCH  11  16
TORSDOF 5
ENDMDL
MODEL 7
REMARK VINA RESULT:      -5.5     16.406     19.333
REMARK  Name = 11941993
REMARK  5 active torsions:
REMARK  status: ('A' for Active; 'I' for Inactive)
REMARK    1  A    between atoms: O_3  and  C_24
REMARK    2  A    between atoms: N_6  and  C_16
REMARK    3  A    between atoms: C_10  and  C_17
REMARK    4  A    between atoms: C_11  and  C_16
REMARK    5  A    between atoms: C_23  and  C_24
REMARK                            x       y       z     vdW  Elec       q    Type
REMARK                         _______ _______ _______ _____ _____    ______ ____
ROOT
ATOM      4  N   UNL     1       9.394   6.884   4.450  0.00  0.00    -0.297 NA
ATOM      9  C   UNL     1      10.592   8.017   2.437  0.00  0.00    +0.005 C 
ATOM     10  C   UNL     1      10.675   6.481   2.342  0.00  0.00    +0.092 C 
ATOM     11  C   UNL     1      10.369   7.893   4.942  0.00  0.00    +0.078 C 
ATOM     12  C   UNL     1      11.202   8.472   3.777  0.00  0.00    +0.025 C 
ATOM     13  C   UNL     1       9.097   8.380   2.467  0.00  0.00    +0.020 C 
ATOM     14  C   UNL     1      10.084   5.863   3.621  0.00  0.00    +0.097 C 
ATOM     15  C   UNL     1       8.407   7.584   3.591  0.00  0.00    +0.085 C 
ENDROOT
BRANCH  10  17
ATOM      1  O   UNL     1      12.941   6.201   2.981  0.00  0.00    -0.275 OA
ATOM      2  O   UNL     1      12.779   3.557  -1.196  0.00  0.00    -0.377 OA
ATOM      5  N   UNL     1      12.351   5.419   0.876  0.00  0.00    -0.297 N 
ATOM     17  C   UNL     1      12.092   6.026   2.102  0.00  0.00    +0.220 C 
ATOM     18  C   UNL     1      13.699   4.943   0.564  0.00  0.00    +0.136 C 
ATOM     19  C   UNL     1      11.402   5.309  -0.237  0.00  0.00    +0.136 C 
ATOM     20  C   UNL     1      13.641   3.554  -0.054  0.00  0.00    +0.179 C 
ATOM     21  C   UNL     1      11.442   3.906  -0.827  0.00  0.00    +0.179 C 
ENDBRANCH  10  17
BRANCH  11  16
ATOM     16  C   UNL     1      11.258   7.347   6.061  0.00  0.00    +0.164 C 
BRANCH  16   6
ATOM      6  N   UNL     1      10.473   6.792   7.152  0.00  0.00    -0.250 N 
ATOM      7  N   UNL     1       9.502   7.518   7.716  0.00  0.00    -0.065 NA
ATOM      8  N   UNL     1       8.968   6.766   8.673  0.00  0.00    -0.132 NA
ATOM     22  C   UNL     1      10.599   5.568   7.713  0.00  0.00    +0.136 A 
ATOM     23  C   UNL     1       9.628   5.569   8.684  0.00  0.00    +0.108 A 
BRANCH  23  24
ATOM     24  C   UNL     1       9.272   4.510   9.636  0.00  0.00    +0.214 C 
BRANCH  24   3
ATOM      3  O   UNL     1      10.064   4.548  10.831  0.00  0.00    -0.389 OA
ATOM     25  H   UNL     1       9.769   3.814  11.397  0.00  0.00    +0.210 HD
ENDBRANCH  24   3
ENDBRANCH  23  24
ENDBRANCH  16   6
ENDBRANCH  11  16
TORSDOF 5
ENDMDL
MODEL 8
REMARK VINA RESULT:      -5.5     27.396     28.948
REMARK  Name = 11941993
REMARK  5 active torsions:
REMARK  status: ('A' for Active; 'I' for Inactive)
REMARK    1  A    between atoms: O_3  and  C_24
REMARK    2  A    between atoms: N_6  and  C_16
REMARK    3  A    between atoms: C_10  and  C_17
REMARK    4  A    between atoms: C_11  and  C_16
REMARK    5  A    between atoms: C_23  and  C_24
REMARK                            x       y       z     vdW  Elec       q    Type
REMARK                         _______ _______ _______ _____ _____    ______ ____
ROOT
ATOM      4  N   UNL     1      -5.089 -12.783  17.009  0.00  0.00    -0.297 NA
ATOM      9  C   UNL     1      -5.331 -10.577  18.368  0.00  0.00    +0.005 C 
ATOM     10  C   UNL     1      -6.681 -11.011  17.766  0.00  0.00    +0.092 C 
ATOM     11  C   UNL     1      -4.081 -11.790  16.551  0.00  0.00    +0.078 C 
ATOM     12  C   UNL     1      -4.300 -10.423  17.233  0.00  0.00    +0.025 C 
ATOM     13  C   UNL     1      -4.854 -11.732  19.266  0.00  0.00    +0.020 C 
ATOM     14  C   UNL     1      -6.460 -12.232  16.855  0.00  0.00    +0.097 C 
ATOM     15  C   UNL     1      -4.854 -13.039  18.451  0.00  0.00    +0.085 C 
ENDROOT
BRANCH  10  17
ATOM      1  O   UNL     1      -6.703  -9.265  16.162  0.00  0.00    -0.275 OA
ATOM      2  O   UNL     1     -11.468  -9.431  17.477  0.00  0.00    -0.377 OA
ATOM      5  N   UNL     1      -8.656  -9.583  17.377  0.00  0.00    -0.297 N 
ATOM     17  C   UNL     1      -7.339  -9.874  17.026  0.00  0.00    +0.220 C 
ATOM     18  C   UNL     1      -9.371  -8.498  16.705  0.00  0.00    +0.136 C 
ATOM     19  C   UNL     1      -9.398 -10.199  18.482  0.00  0.00    +0.136 C 
ATOM     20  C   UNL     1     -10.775  -8.944  16.325  0.00  0.00    +0.179 C 
ATOM     21  C   UNL     1     -10.805 -10.570  18.031  0.00  0.00    +0.179 C 
ENDBRANCH  10  17
BRANCH  11  16
ATOM     16  C   UNL     1      -4.038 -11.665  15.026  0.00  0.00    +0.164 C 
BRANCH  16   6
ATOM      6  N   UNL     1      -2.974 -12.470  14.448  0.00  0.00    -0.250 N 
ATOM      7  N   UNL     1      -1.838 -11.891  14.045  0.00  0.00    -0.065 NA
ATOM      8  N   UNL     1      -1.064 -12.858  13.563  0.00  0.00    -0.132 NA
ATOM     22  C   UNL     1      -2.975 -13.807  14.245  0.00  0.00    +0.136 A 
ATOM     23  C   UNL     1      -1.746 -14.038  13.678  0.00  0.00    +0.108 A 
BRANCH  23  24
ATOM     24  C   UNL     1      -1.157 -15.306  13.230  0.00  0.00    +0.214 C 
BRANCH  24   3
ATOM      3  O   UNL     1       0.250 -15.203  12.972  0.00  0.00    -0.389 OA
ATOM     25  H   UNL     1       0.436 -15.725  12.172  0.00  0.00    +0.210 HD
ENDBRANCH  24   3
ENDBRANCH  23  24
ENDBRANCH  16   6
ENDBRANCH  11  16
TORSDOF 5
ENDMDL
MODEL 9
REMARK VINA RESULT:      -5.4     27.017     29.653
REMARK  Name = 11941993
REMARK  5 active torsions:
REMARK  status: ('A' for Active; 'I' for Inactive)
REMARK    1  A    between atoms: O_3  and  C_24
REMARK    2  A    between atoms: N_6  and  C_16
REMARK    3  A    between atoms: C_10  and  C_17
REMARK    4  A    between atoms: C_11  and  C_16
REMARK    5  A    between atoms: C_23  and  C_24
REMARK                            x       y       z     vdW  Elec       q    Type
REMARK                         _______ _______ _______ _____ _____    ______ ____
ROOT
ATOM      4  N   UNL     1      -6.624 -10.187  17.983  0.00  0.00    -0.297 NA
ATOM      9  C   UNL     1      -5.456 -12.495  18.268  0.00  0.00    +0.005 C 
ATOM     10  C   UNL     1      -4.783 -11.662  17.160  0.00  0.00    +0.092 C 
ATOM     11  C   UNL     1      -7.632 -11.278  17.919  0.00  0.00    +0.078 C 
ATOM     12  C   UNL     1      -6.951 -12.663  17.933  0.00  0.00    +0.025 C 
ATOM     13  C   UNL     1      -5.367 -11.665  19.562  0.00  0.00    +0.020 C 
ATOM     14  C   UNL     1      -5.595 -10.375  16.930  0.00  0.00    +0.097 C 
ATOM     15  C   UNL     1      -5.952 -10.264  19.304  0.00  0.00    +0.085 C 
ENDROOT
BRANCH  10  17
ATOM      1  O   UNL     1      -5.483 -13.311  15.606  0.00  0.00    -0.275 OA
ATOM      2  O   UNL     1      -1.762 -11.180  13.143  0.00  0.00    -0.377 OA
ATOM      5  N   UNL     1      -3.517 -12.183  15.107  0.00  0.00    -0.297 N 
ATOM     17  C   UNL     1      -4.633 -12.464  15.891  0.00  0.00    +0.220 C 
ATOM     18  C   UNL     1      -3.298 -12.910  13.857  0.00  0.00    +0.136 C 
ATOM     19  C   UNL     1      -2.423 -11.277  15.475  0.00  0.00    +0.136 C 
ATOM     20  C   UNL     1      -2.900 -11.950  12.746  0.00  0.00    +0.179 C 
ATOM     21  C   UNL     1      -2.056 -10.386  14.295  0.00  0.00    +0.179 C 
ENDBRANCH  10  17
BRANCH  11  16
ATOM     16  C   UNL     1      -8.584 -11.123  16.730  0.00  0.00    +0.164 C 
BRANCH  16   6
ATOM      6  N   UNL     1      -9.265  -9.838  16.748  0.00  0.00    -0.250 N 
ATOM      7  N   UNL     1     -10.010  -9.489  17.801  0.00  0.00    -0.065 NA
ATOM      8  N   UNL     1     -10.505  -8.284  17.538  0.00  0.00    -0.132 NA
ATOM     22  C   UNL     1      -9.251  -8.890  15.784  0.00  0.00    +0.136 A 
ATOM     23  C   UNL     1     -10.050  -7.903  16.307  0.00  0.00    +0.108 A 
BRANCH  23  24
ATOM     24  C   UNL     1     -10.422  -6.608  15.723  0.00  0.00    +0.214 C 
BRANCH  24   3
ATOM      3  O   UNL     1     -11.068  -5.740  16.664  0.00  0.00    -0.389 OA
ATOM     25  H   UNL     1     -10.697  -5.939  17.542  0.00  0.00    +0.210 HD
ENDBRANCH  24   3
ENDBRANCH  23  24
ENDBRANCH  16   6
ENDBRANCH  11  16
TORSDOF 5
ENDMDL
MODEL 10
REMARK VINA RESULT:      -5.4      3.229      7.384
REMARK  Name = 11941993
REMARK  5 active torsions:
REMARK  status: ('A' for Active; 'I' for Inactive)
REMARK    1  A    between atoms: O_3  and  C_24
REMARK    2  A    between atoms: N_6  and  C_16
REMARK    3  A    between atoms: C_10  and  C_17
REMARK    4  A    between atoms: C_11  and  C_16
REMARK    5  A    between atoms: C_23  and  C_24
REMARK                            x       y       z     vdW  Elec       q    Type
REMARK                         _______ _______ _______ _____ _____    ______ ____
ROOT
ATOM      4  N   UNL     1      13.689   7.762  20.084  0.00  0.00    -0.297 NA
ATOM      9  C   UNL     1      12.774   9.385  18.267  0.00  0.00    +0.005 C 
ATOM     10  C   UNL     1      14.304   9.236  18.162  0.00  0.00    +0.092 C 
ATOM     11  C   UNL     1      12.844   8.809  20.718  0.00  0.00    +0.078 C 
ATOM     12  C   UNL     1      12.413   9.872  19.684  0.00  0.00    +0.025 C 
ATOM     13  C   UNL     1      12.179   7.975  18.102  0.00  0.00    +0.020 C 
ATOM     14  C   UNL     1      14.812   8.388  19.341  0.00  0.00    +0.097 C 
ATOM     15  C   UNL     1      12.847   7.023  19.111  0.00  0.00    +0.085 C 
ENDROOT
BRANCH  10  17
ATOM      1  O   UNL     1      15.384  11.099  19.154  0.00  0.00    -0.275 OA
ATOM      2  O   UNL     1      16.070  12.030  14.345  0.00  0.00    -0.377 OA
ATOM      5  N   UNL     1      15.110  11.163  16.849  0.00  0.00    -0.297 N 
ATOM     17  C   UNL     1      14.981  10.582  18.108  0.00  0.00    +0.220 C 
ATOM     18  C   UNL     1      15.759  12.467  16.707  0.00  0.00    +0.136 C 
ATOM     19  C   UNL     1      14.534  10.640  15.606  0.00  0.00    +0.136 C 
ATOM     20  C   UNL     1      16.736  12.449  15.540  0.00  0.00    +0.179 C 
ATOM     21  C   UNL     1      15.558  10.702  14.482  0.00  0.00    +0.179 C 
ENDBRANCH  10  17
BRANCH  11  16
ATOM     16  C   UNL     1      13.517   9.441  21.938  0.00  0.00    +0.164 C 
BRANCH  16   6
ATOM      6  N   UNL     1      12.571  10.191  22.749  0.00  0.00    -0.250 N 
ATOM      7  N   UNL     1      11.312   9.762  22.879  0.00  0.00    -0.065 NA
ATOM      8  N   UNL     1      10.687  10.636  23.661  0.00  0.00    -0.132 NA
ATOM     22  C   UNL     1      12.802  11.337  23.429  0.00  0.00    +0.136 A 
ATOM     23  C   UNL     1      11.586  11.607  24.006  0.00  0.00    +0.108 A 
BRANCH  23  24
ATOM     24  C   UNL     1      11.202  12.729  24.872  0.00  0.00    +0.214 C 
BRANCH  24   3
ATOM      3  O   UNL     1      10.550  12.302  26.076  0.00  0.00    -0.389 OA
ATOM     25  H   UNL     1      10.414  13.093  26.626  0.00  0.00    +0.210 HD
ENDBRANCH  24   3
ENDBRANCH  23  24
ENDBRANCH  16   6
ENDBRANCH  11  16
TORSDOF 5
ENDMDL
