MODEL 1
REMARK VINA RESULT:      -6.7      0.000      0.000
REMARK  Name = 11912454
REMARK  9 active torsions:
REMARK  status: ('A' for Active; 'I' for Inactive)
REMARK    1  A    between atoms: O_4  and  C_29
REMARK    2  A    between atoms: O_4  and  C_30
REMARK    3  A    between atoms: N_7  and  C_20
REMARK    4  A    between atoms: C_10  and  C_15
REMARK    5  A    between atoms: C_11  and  C_16
REMARK    6  A    between atoms: C_15  and  C_17
REMARK    7  A    between atoms: C_16  and  C_19
REMARK    8  A    between atoms: C_24  and  C_29
REMARK    9  A    between atoms: C_30  and  C_31
REMARK                            x       y       z     vdW  Elec       q    Type
REMARK                         _______ _______ _______ _____ _____    ______ ____
ROOT
ATOM      2  O   UNL     1      13.744   9.237  20.335  0.00  0.00    -0.252 OA
ATOM      6  N   UNL     1      15.236   7.472  20.421  0.00  0.00    -0.285 N 
ATOM      7  N   UNL     1      13.757   7.703  18.596  0.00  0.00    -0.269 N 
ATOM     10  C   UNL     1      17.289   8.135  21.665  0.00  0.00    +0.010 C 
ATOM     11  C   UNL     1      17.982   6.853  21.143  0.00  0.00    +0.004 C 
ATOM     12  C   UNL     1      17.380   6.395  19.806  0.00  0.00    +0.023 C 
ATOM     13  C   UNL     1      15.769   7.911  21.715  0.00  0.00    +0.113 C 
ATOM     14  C   UNL     1      15.859   6.254  19.883  0.00  0.00    +0.109 C 
ATOM     18  C   UNL     1      14.207   8.222  19.810  0.00  0.00    +0.306 C 
ATOM     32  H   UNL     1      13.837   6.704  18.442  0.00  0.00    +0.156 HD
ENDROOT
BRANCH   7  20
ATOM     20  C   UNL     1      13.134   8.411  17.539  0.00  0.00    +0.036 A 
ATOM     22  C   UNL     1      13.884   9.278  16.749  0.00  0.00    +0.038 A 
ATOM     23  C   UNL     1      11.774   8.235  17.296  0.00  0.00    +0.023 A 
ATOM     24  C   UNL     1      13.270   9.974  15.708  0.00  0.00    +0.061 A 
ATOM     25  C   UNL     1      11.160   8.930  16.255  0.00  0.00    +0.003 A 
ATOM     26  C   UNL     1      11.907   9.800  15.461  0.00  0.00    +0.015 A 
BRANCH  24  29
ATOM      5  O   UNL     1      13.589  11.533  13.932  0.00  0.00    -0.245 OA
ATOM     29  C   UNL     1      14.047  10.881  14.880  0.00  0.00    +0.339 C 
BRANCH  29   4
ATOM      4  O   UNL     1      15.356  10.929  15.279  0.00  0.00    -0.461 OA
BRANCH   4  30
ATOM     30  C   UNL     1      15.905  12.225  15.541  0.00  0.00    +0.229 C 
ATOM     31  C   UNL     1      15.669  12.576  16.994  0.00  0.00    +0.048 C 
ENDBRANCH   4  30
ENDBRANCH  29   4
ENDBRANCH  24  29
ENDBRANCH   7  20
BRANCH  10  15
ATOM     15  C   UNL     1      17.617   9.398  20.860  0.00  0.00    +0.002 C 
ATOM     17  C   UNL     1      16.912  10.609  21.432  0.00  0.00    +0.004 C 
ENDBRANCH  10  15
BRANCH  11  16
ATOM     16  C   UNL     1      19.500   6.996  21.031  0.00  0.00    +0.100 C 
BRANCH  16  19
ATOM      1  S   UNL     1      22.679   3.233  21.220  0.00  0.00    -0.061 S 
ATOM      3  O   UNL     1      20.109   6.510  23.310  0.00  0.00    -0.275 OA
ATOM      8  N   UNL     1      21.025   5.238  21.559  0.00  0.00    -0.265 N 
ATOM      9  N   UNL     1      22.033   4.244  23.511  0.00  0.00    -0.233 NA
ATOM     19  C   UNL     1      20.234   6.237  22.120  0.00  0.00    +0.219 C 
ATOM     21  C   UNL     1      21.860   4.317  22.237  0.00  0.00    +0.164 A 
ATOM     27  C   UNL     1      23.381   2.547  22.627  0.00  0.00    +0.068 A 
ATOM     28  C   UNL     1      22.920   3.212  23.745  0.00  0.00    +0.120 A 
ATOM     33  H   UNL     1      21.027   5.121  20.550  0.00  0.00    +0.157 HD
ENDBRANCH  16  19
ENDBRANCH  11  16
TORSDOF 7
ENDMDL
MODEL 2
REMARK VINA RESULT:      -6.5     28.117     32.264
REMARK  Name = 11912454
REMARK  9 active torsions:
REMARK  status: ('A' for Active; 'I' for Inactive)
REMARK    1  A    between atoms: O_4  and  C_29
REMARK    2  A    between atoms: O_4  and  C_30
REMARK    3  A    between atoms: N_7  and  C_20
REMARK    4  A    between atoms: C_10  and  C_15
REMARK    5  A    between atoms: C_11  and  C_16
REMARK    6  A    between atoms: C_15  and  C_17
REMARK    7  A    between atoms: C_16  and  C_19
REMARK    8  A    between atoms: C_24  and  C_29
REMARK    9  A    between atoms: C_30  and  C_31
REMARK                            x       y       z     vdW  Elec       q    Type
REMARK                         _______ _______ _______ _____ _____    ______ ____
ROOT
ATOM      2  O   UNL     1      -9.324 -11.110  18.693  0.00  0.00    -0.252 OA
ATOM      6  N   UNL     1     -10.150  -9.125  17.839  0.00  0.00    -0.285 N 
ATOM      7  N   UNL     1      -7.828  -9.422  18.150  0.00  0.00    -0.269 N 
ATOM     10  C   UNL     1     -12.253  -9.537  16.571  0.00  0.00    +0.010 C 
ATOM     11  C   UNL     1     -12.151  -8.104  15.996  0.00  0.00    +0.004 C 
ATOM     12  C   UNL     1     -10.693  -7.621  15.947  0.00  0.00    +0.023 C 
ATOM     13  C   UNL     1     -11.536  -9.596  17.930  0.00  0.00    +0.113 C 
ATOM     14  C   UNL     1      -9.999  -7.765  17.303  0.00  0.00    +0.109 C 
ATOM     18  C   UNL     1      -9.103  -9.978  18.255  0.00  0.00    +0.306 C 
ATOM     32  H   UNL     1      -7.738  -8.415  18.216  0.00  0.00    +0.156 HD
ENDROOT
BRANCH   7  20
ATOM     20  C   UNL     1      -6.600 -10.114  18.012  0.00  0.00    +0.036 A 
ATOM     22  C   UNL     1      -5.986 -10.194  16.766  0.00  0.00    +0.038 A 
ATOM     23  C   UNL     1      -6.014 -10.710  19.126  0.00  0.00    +0.023 A 
ATOM     24  C   UNL     1      -4.776 -10.875  16.631  0.00  0.00    +0.061 A 
ATOM     25  C   UNL     1      -4.804 -11.390  18.993  0.00  0.00    +0.003 A 
ATOM     26  C   UNL     1      -4.185 -11.473  17.745  0.00  0.00    +0.015 A 
BRANCH  24  29
ATOM      5  O   UNL     1      -4.543 -10.408  14.305  0.00  0.00    -0.245 OA
ATOM     29  C   UNL     1      -4.130 -10.963  15.332  0.00  0.00    +0.339 C 
BRANCH  29   4
ATOM      4  O   UNL     1      -3.003 -11.739  15.382  0.00  0.00    -0.461 OA
BRANCH   4  30
ATOM     30  C   UNL     1      -1.828 -11.212  14.758  0.00  0.00    +0.229 C 
ATOM     31  C   UNL     1      -1.105 -10.319  15.743  0.00  0.00    +0.048 C 
ENDBRANCH   4  30
ENDBRANCH  29   4
ENDBRANCH  24  29
ENDBRANCH   7  20
BRANCH  10  15
ATOM     15  C   UNL     1     -11.718 -10.628  15.637  0.00  0.00    +0.002 C 
ATOM     17  C   UNL     1     -11.817 -11.995  16.279  0.00  0.00    +0.004 C 
ENDBRANCH  10  15
BRANCH  11  16
ATOM     16  C   UNL     1     -12.814  -7.959  14.627  0.00  0.00    +0.100 C 
BRANCH  16  19
ATOM      1  S   UNL     1     -11.940  -5.797  10.284  0.00  0.00    -0.061 S 
ATOM      3  O   UNL     1     -12.957  -5.563  14.825  0.00  0.00    -0.275 OA
ATOM      8  N   UNL     1     -12.457  -6.536  12.745  0.00  0.00    -0.265 N 
ATOM      9  N   UNL     1     -12.442  -4.179  12.237  0.00  0.00    -0.233 NA
ATOM     19  C   UNL     1     -12.757  -6.536  14.105  0.00  0.00    +0.219 C 
ATOM     21  C   UNL     1     -12.314  -5.414  11.893  0.00  0.00    +0.164 A 
ATOM     27  C   UNL     1     -11.937  -4.114   9.953  0.00  0.00    +0.068 A 
ATOM     28  C   UNL     1     -12.222  -3.416  11.108  0.00  0.00    +0.120 A 
ATOM     33  H   UNL     1     -12.309  -7.425  12.274  0.00  0.00    +0.157 HD
ENDBRANCH  16  19
ENDBRANCH  11  16
TORSDOF 7
ENDMDL
MODEL 3
REMARK VINA RESULT:      -6.3     29.062     31.791
REMARK  Name = 11912454
REMARK  9 active torsions:
REMARK  status: ('A' for Active; 'I' for Inactive)
REMARK    1  A    between atoms: O_4  and  C_29
REMARK    2  A    between atoms: O_4  and  C_30
REMARK    3  A    between atoms: N_7  and  C_20
REMARK    4  A    between atoms: C_10  and  C_15
REMARK    5  A    between atoms: C_11  and  C_16
REMARK    6  A    between atoms: C_15  and  C_17
REMARK    7  A    between atoms: C_16  and  C_19
REMARK    8  A    between atoms: C_24  and  C_29
REMARK    9  A    between atoms: C_30  and  C_31
REMARK                            x       y       z     vdW  Elec       q    Type
REMARK                         _______ _______ _______ _____ _____    ______ ____
ROOT
ATOM      2  O   UNL     1      -7.538 -11.279  13.837  0.00  0.00    -0.252 OA
ATOM      6  N   UNL     1      -6.729  -9.780  12.272  0.00  0.00    -0.285 N 
ATOM      7  N   UNL     1      -6.085  -9.611  14.537  0.00  0.00    -0.269 N 
ATOM     10  C   UNL     1      -6.579 -10.862  10.034  0.00  0.00    +0.010 C 
ATOM     11  C   UNL     1      -5.737  -9.659   9.543  0.00  0.00    +0.004 C 
ATOM     12  C   UNL     1      -4.982  -8.993  10.703  0.00  0.00    +0.023 C 
ATOM     13  C   UNL     1      -7.489 -10.412  11.189  0.00  0.00    +0.113 C 
ATOM     14  C   UNL     1      -5.916  -8.627  11.858  0.00  0.00    +0.109 C 
ATOM     18  C   UNL     1      -6.828 -10.303  13.580  0.00  0.00    +0.306 C 
ATOM     32  H   UNL     1      -5.901  -8.627  14.381  0.00  0.00    +0.156 HD
ENDROOT
BRANCH   7  20
ATOM     20  C   UNL     1      -5.586 -10.115  15.763  0.00  0.00    +0.036 A 
ATOM     22  C   UNL     1      -6.398 -10.114  16.894  0.00  0.00    +0.038 A 
ATOM     23  C   UNL     1      -4.286 -10.608  15.831  0.00  0.00    +0.023 A 
ATOM     24  C   UNL     1      -5.907 -10.611  18.101  0.00  0.00    +0.061 A 
ATOM     25  C   UNL     1      -3.794 -11.105  17.037  0.00  0.00    +0.003 A 
ATOM     26  C   UNL     1      -4.604 -11.106  18.173  0.00  0.00    +0.015 A 
BRANCH  24  29
ATOM      5  O   UNL     1      -6.328 -10.699  20.446  0.00  0.00    -0.245 OA
ATOM     29  C   UNL     1      -6.750 -10.612  19.285  0.00  0.00    +0.339 C 
BRANCH  29   4
ATOM      4  O   UNL     1      -8.075 -10.502  18.960  0.00  0.00    -0.461 OA
BRANCH   4  30
ATOM     30  C   UNL     1      -8.958 -11.489  19.503  0.00  0.00    +0.229 C 
ATOM     31  C   UNL     1     -10.178 -10.798  20.075  0.00  0.00    +0.048 C 
ENDBRANCH   4  30
ENDBRANCH  29   4
ENDBRANCH  24  29
ENDBRANCH   7  20
BRANCH  10  15
ATOM     15  C   UNL     1      -5.748 -12.081  10.452  0.00  0.00    +0.002 C 
ATOM     17  C   UNL     1      -6.636 -13.210  10.931  0.00  0.00    +0.004 C 
ENDBRANCH  10  15
BRANCH  11  16
ATOM     16  C   UNL     1      -4.777 -10.023   8.411  0.00  0.00    +0.100 C 
BRANCH  16  19
ATOM      1  S   UNL     1      -8.321  -7.425   6.177  0.00  0.00    -0.061 S 
ATOM      3  O   UNL     1      -5.171 -10.858   6.186  0.00  0.00    -0.275 OA
ATOM      8  N   UNL     1      -6.420  -9.037   6.989  0.00  0.00    -0.265 N 
ATOM      9  N   UNL     1      -7.302  -9.337   4.765  0.00  0.00    -0.233 NA
ATOM     19  C   UNL     1      -5.462 -10.045   7.057  0.00  0.00    +0.219 C 
ATOM     21  C   UNL     1      -7.270  -8.728   5.900  0.00  0.00    +0.164 A 
ATOM     27  C   UNL     1      -8.928  -7.663   4.591  0.00  0.00    +0.068 A 
ATOM     28  C   UNL     1      -8.269  -8.719   3.997  0.00  0.00    +0.120 A 
ATOM     33  H   UNL     1      -6.559  -8.435   7.796  0.00  0.00    +0.157 HD
ENDBRANCH  16  19
ENDBRANCH  11  16
TORSDOF 7
ENDMDL
MODEL 4
REMARK VINA RESULT:      -6.2     28.174     31.648
REMARK  Name = 11912454
REMARK  9 active torsions:
REMARK  status: ('A' for Active; 'I' for Inactive)
REMARK    1  A    between atoms: O_4  and  C_29
REMARK    2  A    between atoms: O_4  and  C_30
REMARK    3  A    between atoms: N_7  and  C_20
REMARK    4  A    between atoms: C_10  and  C_15
REMARK    5  A    between atoms: C_11  and  C_16
REMARK    6  A    between atoms: C_15  and  C_17
REMARK    7  A    between atoms: C_16  and  C_19
REMARK    8  A    between atoms: C_24  and  C_29
REMARK    9  A    between atoms: C_30  and  C_31
REMARK                            x       y       z     vdW  Elec       q    Type
REMARK                         _______ _______ _______ _____ _____    ______ ____
ROOT
ATOM      2  O   UNL     1     -15.342   7.316  19.895  0.00  0.00    -0.252 OA
ATOM      6  N   UNL     1     -14.990   5.656  21.467  0.00  0.00    -0.285 N 
ATOM      7  N   UNL     1     -13.168   6.852  20.560  0.00  0.00    -0.269 N 
ATOM     10  C   UNL     1     -16.945   5.488  23.000  0.00  0.00    +0.010 C 
ATOM     11  C   UNL     1     -16.096   4.597  23.937  0.00  0.00    +0.004 C 
ATOM     12  C   UNL     1     -14.596   4.901  23.793  0.00  0.00    +0.023 C 
ATOM     13  C   UNL     1     -16.424   5.361  21.559  0.00  0.00    +0.113 C 
ATOM     14  C   UNL     1     -14.138   4.831  22.335  0.00  0.00    +0.109 C 
ATOM     18  C   UNL     1     -14.551   6.671  20.588  0.00  0.00    +0.306 C 
ATOM     32  H   UNL     1     -12.577   6.059  20.778  0.00  0.00    +0.156 HD
ENDROOT
BRANCH   7  20
ATOM     20  C   UNL     1     -12.465   8.028  20.200  0.00  0.00    +0.036 A 
ATOM     22  C   UNL     1     -11.769   8.077  18.995  0.00  0.00    +0.038 A 
ATOM     23  C   UNL     1     -12.474   9.128  21.053  0.00  0.00    +0.023 A 
ATOM     24  C   UNL     1     -11.077   9.235  18.641  0.00  0.00    +0.061 A 
ATOM     25  C   UNL     1     -11.783  10.286  20.699  0.00  0.00    +0.003 A 
ATOM     26  C   UNL     1     -11.084  10.339  19.493  0.00  0.00    +0.015 A 
BRANCH  24  29
ATOM      5  O   UNL     1      -9.571  10.201  17.065  0.00  0.00    -0.245 OA
ATOM     29  C   UNL     1     -10.347   9.291  17.385  0.00  0.00    +0.339 C 
BRANCH  29   4
ATOM      4  O   UNL     1     -10.622   8.208  16.594  0.00  0.00    -0.461 OA
BRANCH   4  30
ATOM     30  C   UNL     1     -11.193   8.475  15.308  0.00  0.00    +0.229 C 
ATOM     31  C   UNL     1     -10.404   7.729  14.254  0.00  0.00    +0.048 C 
ENDBRANCH   4  30
ENDBRANCH  29   4
ENDBRANCH  24  29
ENDBRANCH   7  20
BRANCH  10  15
ATOM     15  C   UNL     1     -17.004   6.962  23.419  0.00  0.00    +0.002 C 
ATOM     17  C   UNL     1     -18.434   7.415  23.626  0.00  0.00    +0.004 C 
ENDBRANCH  10  15
BRANCH  11  16
ATOM     16  C   UNL     1     -16.526   4.685  25.401  0.00  0.00    +0.100 C 
BRANCH  16  19
ATOM      1  S   UNL     1     -15.300   3.235  29.950  0.00  0.00    -0.061 S 
ATOM      3  O   UNL     1     -16.591   2.284  25.575  0.00  0.00    -0.275 OA
ATOM      8  N   UNL     1     -15.998   3.575  27.447  0.00  0.00    -0.265 N 
ATOM      9  N   UNL     1     -15.863   1.324  28.301  0.00  0.00    -0.233 NA
ATOM     19  C   UNL     1     -16.383   3.360  26.126  0.00  0.00    +0.219 C 
ATOM     21  C   UNL     1     -15.760   2.600  28.446  0.00  0.00    +0.164 A 
ATOM     27  C   UNL     1     -15.214   1.622  30.529  0.00  0.00    +0.068 A 
ATOM     28  C   UNL     1     -15.544   0.749  29.515  0.00  0.00    +0.120 A 
ATOM     33  H   UNL     1     -15.854   4.529  27.768  0.00  0.00    +0.157 HD
ENDBRANCH  16  19
ENDBRANCH  11  16
TORSDOF 7
ENDMDL
MODEL 5
REMARK VINA RESULT:      -6.1     16.044     20.549
REMARK  Name = 11912454
REMARK  9 active torsions:
REMARK  status: ('A' for Active; 'I' for Inactive)
REMARK    1  A    between atoms: O_4  and  C_29
REMARK    2  A    between atoms: O_4  and  C_30
REMARK    3  A    between atoms: N_7  and  C_20
REMARK    4  A    between atoms: C_10  and  C_15
REMARK    5  A    between atoms: C_11  and  C_16
REMARK    6  A    between atoms: C_15  and  C_17
REMARK    7  A    between atoms: C_16  and  C_19
REMARK    8  A    between atoms: C_24  and  C_29
REMARK    9  A    between atoms: C_30  and  C_31
REMARK                            x       y       z     vdW  Elec       q    Type
REMARK                         _______ _______ _______ _____ _____    ______ ____
ROOT
ATOM      2  O   UNL     1      13.343   6.765   3.182  0.00  0.00    -0.252 OA
ATOM      6  N   UNL     1      13.488   4.897   1.826  0.00  0.00    -0.285 N 
ATOM      7  N   UNL     1      11.625   5.208   3.242  0.00  0.00    -0.269 N 
ATOM     10  C   UNL     1      14.771   5.426  -0.242  0.00  0.00    +0.010 C 
ATOM     11  C   UNL     1      14.283   4.089  -0.850  0.00  0.00    +0.004 C 
ATOM     12  C   UNL     1      12.938   3.656  -0.246  0.00  0.00    +0.023 C 
ATOM     13  C   UNL     1      14.788   5.315   1.292  0.00  0.00    +0.113 C 
ATOM     14  C   UNL     1      12.981   3.628   1.283  0.00  0.00    +0.109 C 
ATOM     18  C   UNL     1      12.842   5.711   2.782  0.00  0.00    +0.306 C 
ATOM     32  H   UNL     1      11.487   4.205   3.233  0.00  0.00    +0.156 HD
ENDROOT
BRANCH   7  20
ATOM     20  C   UNL     1      10.544   5.944   3.787  0.00  0.00    +0.036 A 
ATOM     22  C   UNL     1      10.283   5.882   5.153  0.00  0.00    +0.038 A 
ATOM     23  C   UNL     1       9.749   6.726   2.953  0.00  0.00    +0.023 A 
ATOM     24  C   UNL     1       9.219   6.607   5.689  0.00  0.00    +0.061 A 
ATOM     25  C   UNL     1       8.686   7.452   3.488  0.00  0.00    +0.003 A 
ATOM     26  C   UNL     1       8.420   7.392   4.857  0.00  0.00    +0.015 A 
BRANCH  24  29
ATOM      5  O   UNL     1       8.403   7.452   7.764  0.00  0.00    -0.245 OA
ATOM     29  C   UNL     1       8.941   6.546   7.115  0.00  0.00    +0.339 C 
BRANCH  29   4
ATOM      4  O   UNL     1       9.346   5.355   7.655  0.00  0.00    -0.461 OA
BRANCH   4  30
ATOM     30  C   UNL     1       9.965   5.407   8.944  0.00  0.00    +0.229 C 
ATOM     31  C   UNL     1       9.136   4.604   9.923  0.00  0.00    +0.048 C 
ENDBRANCH   4  30
ENDBRANCH  29   4
ENDBRANCH  24  29
ENDBRANCH   7  20
BRANCH  10  15
ATOM     15  C   UNL     1      13.958   6.649  -0.680  0.00  0.00    +0.002 C 
ATOM     17  C   UNL     1      14.513   7.921  -0.074  0.00  0.00    +0.004 C 
ENDBRANCH  10  15
BRANCH  11  16
ATOM     16  C   UNL     1      14.205   4.118  -2.376  0.00  0.00    +0.100 C 
BRANCH  16  19
ATOM      1  S   UNL     1       9.953   6.348  -3.492  0.00  0.00    -0.061 S 
ATOM      3  O   UNL     1      12.581   2.516  -3.146  0.00  0.00    -0.275 OA
ATOM      8  N   UNL     1      12.009   4.792  -3.021  0.00  0.00    -0.265 N 
ATOM      9  N   UNL     1       9.978   3.787  -3.845  0.00  0.00    -0.233 NA
ATOM     19  C   UNL     1      12.846   3.686  -2.893  0.00  0.00    +0.219 C 
ATOM     21  C   UNL     1      10.666   4.809  -3.470  0.00  0.00    +0.164 A 
ATOM     27  C   UNL     1       8.523   5.605  -4.078  0.00  0.00    +0.068 A 
ATOM     28  C   UNL     1       8.725   4.246  -4.201  0.00  0.00    +0.120 A 
ATOM     33  H   UNL     1      12.363   5.710  -2.766  0.00  0.00    +0.157 HD
ENDBRANCH  16  19
ENDBRANCH  11  16
TORSDOF 7
ENDMDL
MODEL 6
REMARK VINA RESULT:      -6.1      3.550     10.898
REMARK  Name = 11912454
REMARK  9 active torsions:
REMARK  status: ('A' for Active; 'I' for Inactive)
REMARK    1  A    between atoms: O_4  and  C_29
REMARK    2  A    between atoms: O_4  and  C_30
REMARK    3  A    between atoms: N_7  and  C_20
REMARK    4  A    between atoms: C_10  and  C_15
REMARK    5  A    between atoms: C_11  and  C_16
REMARK    6  A    between atoms: C_15  and  C_17
REMARK    7  A    between atoms: C_16  and  C_19
REMARK    8  A    between atoms: C_24  and  C_29
REMARK    9  A    between atoms: C_30  and  C_31
REMARK                            x       y       z     vdW  Elec       q    Type
REMARK                         _______ _______ _______ _____ _____    ______ ____
ROOT
ATOM      2  O   UNL     1      23.145   5.891  21.436  0.00  0.00    -0.252 OA
ATOM      6  N   UNL     1      21.048   5.983  20.464  0.00  0.00    -0.285 N 
ATOM      7  N   UNL     1      22.148   3.914  20.744  0.00  0.00    -0.269 N 
ATOM     10  C   UNL     1      19.758   7.911  21.370  0.00  0.00    +0.010 C 
ATOM     11  C   UNL     1      18.482   7.322  20.722  0.00  0.00    +0.004 C 
ATOM     12  C   UNL     1      18.581   5.796  20.574  0.00  0.00    +0.023 C 
ATOM     13  C   UNL     1      20.994   7.444  20.583  0.00  0.00    +0.113 C 
ATOM     14  C   UNL     1      19.860   5.375  19.849  0.00  0.00    +0.109 C 
ATOM     18  C   UNL     1      22.190   5.296  20.930  0.00  0.00    +0.306 C 
ATOM     32  H   UNL     1      21.598   3.550  19.975  0.00  0.00    +0.156 HD
ENDROOT
BRANCH   7  20
ATOM     20  C   UNL     1      22.844   2.928  21.487  0.00  0.00    +0.036 A 
ATOM     22  C   UNL     1      22.633   2.817  22.858  0.00  0.00    +0.038 A 
ATOM     23  C   UNL     1      23.734   2.075  20.839  0.00  0.00    +0.023 A 
ATOM     24  C   UNL     1      23.317   1.845  23.588  0.00  0.00    +0.061 A 
ATOM     25  C   UNL     1      24.418   1.103  21.568  0.00  0.00    +0.003 A 
ATOM     26  C   UNL     1      24.210   0.988  22.943  0.00  0.00    +0.015 A 
BRANCH  24  29
ATOM      5  O   UNL     1      23.543   0.803  25.721  0.00  0.00    -0.245 OA
ATOM     29  C   UNL     1      23.103   1.724  25.021  0.00  0.00    +0.339 C 
BRANCH  29   4
ATOM      4  O   UNL     1      22.351   2.761  25.505  0.00  0.00    -0.461 OA
BRANCH   4  30
ATOM     30  C   UNL     1      22.966   3.601  26.488  0.00  0.00    +0.229 C 
ATOM     31  C   UNL     1      22.544   5.034  26.244  0.00  0.00    +0.048 C 
ENDBRANCH   4  30
ENDBRANCH  29   4
ENDBRANCH  24  29
ENDBRANCH   7  20
BRANCH  10  15
ATOM     15  C   UNL     1      19.916   7.580  22.859  0.00  0.00    +0.002 C 
ATOM     17  C   UNL     1      21.199   8.162  23.415  0.00  0.00    +0.004 C 
ENDBRANCH  10  15
BRANCH  11  16
ATOM     16  C   UNL     1      17.201   7.711  21.461  0.00  0.00    +0.100 C 
BRANCH  16  19
ATOM      1  S   UNL     1      14.293   9.660  17.990  0.00  0.00    -0.061 S 
ATOM      3  O   UNL     1      15.404   6.205  20.912  0.00  0.00    -0.275 OA
ATOM      8  N   UNL     1      15.565   8.278  19.818  0.00  0.00    -0.265 N 
ATOM      9  N   UNL     1      13.598   7.310  18.815  0.00  0.00    -0.233 NA
ATOM     19  C   UNL     1      15.952   7.284  20.714  0.00  0.00    +0.219 C 
ATOM     21  C   UNL     1      14.455   8.264  18.940  0.00  0.00    +0.164 A 
ATOM     27  C   UNL     1      12.898   8.945  17.294  0.00  0.00    +0.068 A 
ATOM     28  C   UNL     1      12.686   7.703  17.856  0.00  0.00    +0.120 A 
ATOM     33  H   UNL     1      16.115   9.132  19.764  0.00  0.00    +0.157 HD
ENDBRANCH  16  19
ENDBRANCH  11  16
TORSDOF 7
ENDMDL
MODEL 7
REMARK VINA RESULT:      -6.1     24.915     28.986
REMARK  Name = 11912454
REMARK  9 active torsions:
REMARK  status: ('A' for Active; 'I' for Inactive)
REMARK    1  A    between atoms: O_4  and  C_29
REMARK    2  A    between atoms: O_4  and  C_30
REMARK    3  A    between atoms: N_7  and  C_20
REMARK    4  A    between atoms: C_10  and  C_15
REMARK    5  A    between atoms: C_11  and  C_16
REMARK    6  A    between atoms: C_15  and  C_17
REMARK    7  A    between atoms: C_16  and  C_19
REMARK    8  A    between atoms: C_24  and  C_29
REMARK    9  A    between atoms: C_30  and  C_31
REMARK                            x       y       z     vdW  Elec       q    Type
REMARK                         _______ _______ _______ _____ _____    ______ ____
ROOT
ATOM      2  O   UNL     1     -10.258   9.691  15.880  0.00  0.00    -0.252 OA
ATOM      6  N   UNL     1     -10.476   9.172  18.124  0.00  0.00    -0.285 N 
ATOM      7  N   UNL     1      -9.469  11.200  17.454  0.00  0.00    -0.269 N 
ATOM     10  C   UNL     1     -12.486   7.750  18.492  0.00  0.00    +0.010 C 
ATOM     11  C   UNL     1     -12.348   8.002  20.013  0.00  0.00    +0.004 C 
ATOM     12  C   UNL     1     -11.649   9.340  20.299  0.00  0.00    +0.023 C 
ATOM     13  C   UNL     1     -11.108   7.883  17.824  0.00  0.00    +0.113 C 
ATOM     14  C   UNL     1     -10.316   9.457  19.557  0.00  0.00    +0.109 C 
ATOM     18  C   UNL     1     -10.083  10.012  17.058  0.00  0.00    +0.306 C 
ATOM     32  H   UNL     1      -8.973  11.211  18.338  0.00  0.00    +0.156 HD
ENDROOT
BRANCH   7  20
ATOM     20  C   UNL     1      -9.405  12.415  16.729  0.00  0.00    +0.036 A 
ATOM     22  C   UNL     1      -8.197  12.828  16.175  0.00  0.00    +0.038 A 
ATOM     23  C   UNL     1     -10.551  13.191  16.576  0.00  0.00    +0.023 A 
ATOM     24  C   UNL     1      -8.134  14.024  15.460  0.00  0.00    +0.061 A 
ATOM     25  C   UNL     1     -10.489  14.386  15.862  0.00  0.00    +0.003 A 
ATOM     26  C   UNL     1      -9.280  14.804  15.304  0.00  0.00    +0.015 A 
BRANCH  24  29
ATOM      5  O   UNL     1      -6.732  14.819  13.703  0.00  0.00    -0.245 OA
ATOM     29  C   UNL     1      -6.874  14.460  14.880  0.00  0.00    +0.339 C 
BRANCH  29   4
ATOM      4  O   UNL     1      -5.859  14.427  15.797  0.00  0.00    -0.461 OA
BRANCH   4  30
ATOM     30  C   UNL     1      -5.792  15.513  16.727  0.00  0.00    +0.229 C 
ATOM     31  C   UNL     1      -5.572  14.959  18.118  0.00  0.00    +0.048 C 
ENDBRANCH   4  30
ENDBRANCH  29   4
ENDBRANCH  24  29
ENDBRANCH   7  20
BRANCH  10  15
ATOM     15  C   UNL     1     -13.508   8.657  17.797  0.00  0.00    +0.002 C 
ATOM     17  C   UNL     1     -13.695   8.259  16.348  0.00  0.00    +0.004 C 
ENDBRANCH  10  15
BRANCH  11  16
ATOM     16  C   UNL     1     -13.680   7.919  20.758  0.00  0.00    +0.100 C 
BRANCH  16  19
ATOM      1  S   UNL     1     -17.488   5.426  22.651  0.00  0.00    -0.061 S 
ATOM      3  O   UNL     1     -12.956   5.797  21.636  0.00  0.00    -0.275 OA
ATOM      8  N   UNL     1     -15.223   6.402  21.765  0.00  0.00    -0.265 N 
ATOM      9  N   UNL     1     -15.203   4.224  22.799  0.00  0.00    -0.233 NA
ATOM     19  C   UNL     1     -13.881   6.576  21.435  0.00  0.00    +0.219 C 
ATOM     21  C   UNL     1     -15.815   5.287  22.406  0.00  0.00    +0.164 A 
ATOM     27  C   UNL     1     -17.443   3.874  23.381  0.00  0.00    +0.068 A 
ATOM     28  C   UNL     1     -16.149   3.396  23.370  0.00  0.00    +0.120 A 
ATOM     33  H   UNL     1     -15.884   7.141  21.542  0.00  0.00    +0.157 HD
ENDBRANCH  16  19
ENDBRANCH  11  16
TORSDOF 7
ENDMDL
MODEL 8
REMARK VINA RESULT:      -6.0     28.257     30.921
REMARK  Name = 11912454
REMARK  9 active torsions:
REMARK  status: ('A' for Active; 'I' for Inactive)
REMARK    1  A    between atoms: O_4  and  C_29
REMARK    2  A    between atoms: O_4  and  C_30
REMARK    3  A    between atoms: N_7  and  C_20
REMARK    4  A    between atoms: C_10  and  C_15
REMARK    5  A    between atoms: C_11  and  C_16
REMARK    6  A    between atoms: C_15  and  C_17
REMARK    7  A    between atoms: C_16  and  C_19
REMARK    8  A    between atoms: C_24  and  C_29
REMARK    9  A    between atoms: C_30  and  C_31
REMARK                            x       y       z     vdW  Elec       q    Type
REMARK                         _______ _______ _______ _____ _____    ______ ____
ROOT
ATOM      2  O   UNL     1      -5.140 -12.637  13.541  0.00  0.00    -0.252 OA
ATOM      6  N   UNL     1      -4.608 -12.015  15.704  0.00  0.00    -0.285 N 
ATOM      7  N   UNL     1      -3.452 -11.081  13.870  0.00  0.00    -0.269 N 
ATOM     10  C   UNL     1      -6.616 -12.172  17.168  0.00  0.00    +0.010 C 
ATOM     11  C   UNL     1      -5.848 -11.383  18.255  0.00  0.00    +0.004 C 
ATOM     12  C   UNL     1      -4.776 -10.474  17.635  0.00  0.00    +0.023 C 
ATOM     13  C   UNL     1      -5.614 -12.918  16.272  0.00  0.00    +0.113 C 
ATOM     14  C   UNL     1      -3.846 -11.245  16.697  0.00  0.00    +0.109 C 
ATOM     18  C   UNL     1      -4.452 -11.952  14.302  0.00  0.00    +0.306 C 
ATOM     32  H   UNL     1      -2.670 -10.904  14.490  0.00  0.00    +0.156 HD
ENDROOT
BRANCH   7  20
ATOM     20  C   UNL     1      -3.361 -10.436  12.613  0.00  0.00    +0.036 A 
ATOM     22  C   UNL     1      -4.520 -10.041  11.951  0.00  0.00    +0.038 A 
ATOM     23  C   UNL     1      -2.111 -10.199  12.045  0.00  0.00    +0.023 A 
ATOM     24  C   UNL     1      -4.430  -9.405  10.713  0.00  0.00    +0.061 A 
ATOM     25  C   UNL     1      -2.020  -9.563  10.808  0.00  0.00    +0.003 A 
ATOM     26  C   UNL     1      -3.180  -9.166  10.142  0.00  0.00    +0.015 A 
BRANCH  24  29
ATOM      5  O   UNL     1      -5.741  -8.902   8.787  0.00  0.00    -0.245 OA
ATOM     29  C   UNL     1      -5.637  -8.991  10.017  0.00  0.00    +0.339 C 
BRANCH  29   4
ATOM      4  O   UNL     1      -6.652  -8.713  10.892  0.00  0.00    -0.461 OA
BRANCH   4  30
ATOM     30  C   UNL     1      -7.938  -9.263  10.588  0.00  0.00    +0.229 C 
ATOM     31  C   UNL     1      -8.279 -10.318  11.618  0.00  0.00    +0.048 C 
ENDBRANCH   4  30
ENDBRANCH  29   4
ENDBRANCH  24  29
ENDBRANCH   7  20
BRANCH  10  15
ATOM     15  C   UNL     1      -7.558 -11.312  16.316  0.00  0.00    +0.002 C 
ATOM     17  C   UNL     1      -8.290 -12.154  15.292  0.00  0.00    +0.004 C 
ENDBRANCH  10  15
BRANCH  11  16
ATOM     16  C   UNL     1      -6.768 -10.582  19.177  0.00  0.00    +0.100 C 
BRANCH  16  19
ATOM      1  S   UNL     1     -11.655 -10.132  19.634  0.00  0.00    -0.061 S 
ATOM      3  O   UNL     1      -7.705 -12.526  20.247  0.00  0.00    -0.275 OA
ATOM      8  N   UNL     1      -9.112 -10.763  19.587  0.00  0.00    -0.265 N 
ATOM      9  N   UNL     1     -10.662 -12.333  20.560  0.00  0.00    -0.233 NA
ATOM     19  C   UNL     1      -7.896 -11.425  19.741  0.00  0.00    +0.219 C 
ATOM     21  C   UNL     1     -10.394 -11.213  19.982  0.00  0.00    +0.164 A 
ATOM     27  C   UNL     1     -12.734 -11.269  20.332  0.00  0.00    +0.068 A 
ATOM     28  C   UNL     1     -12.026 -12.371  20.767  0.00  0.00    +0.120 A 
ATOM     33  H   UNL     1      -9.120  -9.845  19.151  0.00  0.00    +0.157 HD
ENDBRANCH  16  19
ENDBRANCH  11  16
TORSDOF 7
ENDMDL
MODEL 9
REMARK VINA RESULT:      -6.0     25.453     29.859
REMARK  Name = 11912454
REMARK  9 active torsions:
REMARK  status: ('A' for Active; 'I' for Inactive)
REMARK    1  A    between atoms: O_4  and  C_29
REMARK    2  A    between atoms: O_4  and  C_30
REMARK    3  A    between atoms: N_7  and  C_20
REMARK    4  A    between atoms: C_10  and  C_15
REMARK    5  A    between atoms: C_11  and  C_16
REMARK    6  A    between atoms: C_15  and  C_17
REMARK    7  A    between atoms: C_16  and  C_19
REMARK    8  A    between atoms: C_24  and  C_29
REMARK    9  A    between atoms: C_30  and  C_31
REMARK                            x       y       z     vdW  Elec       q    Type
REMARK                         _______ _______ _______ _____ _____    ______ ____
ROOT
ATOM      2  O   UNL     1     -12.911   9.983  17.050  0.00  0.00    -0.252 OA
ATOM      6  N   UNL     1     -12.372   8.456  18.702  0.00  0.00    -0.285 N 
ATOM      7  N   UNL     1     -10.881  10.201  18.150  0.00  0.00    -0.269 N 
ATOM     10  C   UNL     1     -14.437   7.619  19.815  0.00  0.00    +0.010 C 
ATOM     11  C   UNL     1     -13.553   7.004  20.925  0.00  0.00    +0.004 C 
ATOM     12  C   UNL     1     -12.230   7.770  21.078  0.00  0.00    +0.023 C 
ATOM     13  C   UNL     1     -13.627   7.720  18.512  0.00  0.00    +0.113 C 
ATOM     14  C   UNL     1     -11.493   7.908  19.745  0.00  0.00    +0.109 C 
ATOM     18  C   UNL     1     -12.112   9.592  17.905  0.00  0.00    +0.306 C 
ATOM     32  H   UNL     1     -10.124   9.627  18.503  0.00  0.00    +0.156 HD
ENDROOT
BRANCH   7  20
ATOM     20  C   UNL     1     -10.529  11.552  17.909  0.00  0.00    +0.036 A 
ATOM     22  C   UNL     1      -9.429  11.849  17.110  0.00  0.00    +0.038 A 
ATOM     23  C   UNL     1     -11.286  12.575  18.474  0.00  0.00    +0.023 A 
ATOM     24  C   UNL     1      -9.084  13.179  16.872  0.00  0.00    +0.061 A 
ATOM     25  C   UNL     1     -10.942  13.905  18.237  0.00  0.00    +0.003 A 
ATOM     26  C   UNL     1      -9.840  14.208  17.436  0.00  0.00    +0.015 A 
BRANCH  24  29
ATOM      5  O   UNL     1      -7.995  13.743  14.827  0.00  0.00    -0.245 OA
ATOM     29  C   UNL     1      -7.936  13.496  16.039  0.00  0.00    +0.339 C 
BRANCH  29   4
ATOM      4  O   UNL     1      -6.773  13.489  16.761  0.00  0.00    -0.461 OA
BRANCH   4  30
ATOM     30  C   UNL     1      -6.364  14.732  17.342  0.00  0.00    +0.229 C 
ATOM     31  C   UNL     1      -4.885  14.931  17.091  0.00  0.00    +0.048 C 
ENDBRANCH   4  30
ENDBRANCH  29   4
ENDBRANCH  24  29
ENDBRANCH   7  20
BRANCH  10  15
ATOM     15  C   UNL     1     -15.041   8.981  20.176  0.00  0.00    +0.002 C 
ATOM     17  C   UNL     1     -16.543   8.982  19.981  0.00  0.00    +0.004 C 
ENDBRANCH  10  15
BRANCH  11  16
ATOM     16  C   UNL     1     -14.271   6.893  22.270  0.00  0.00    +0.100 C 
BRANCH  16  19
ATOM      1  S   UNL     1     -16.884   4.633  25.787  0.00  0.00    -0.061 S 
ATOM      3  O   UNL     1     -14.249   4.506  21.946  0.00  0.00    -0.275 OA
ATOM      8  N   UNL     1     -15.423   5.428  23.761  0.00  0.00    -0.265 N 
ATOM      9  N   UNL     1     -15.812   3.064  24.034  0.00  0.00    -0.233 NA
ATOM     19  C   UNL     1     -14.630   5.460  22.616  0.00  0.00    +0.219 C 
ATOM     21  C   UNL     1     -15.963   4.289  24.405  0.00  0.00    +0.164 A 
ATOM     27  C   UNL     1     -17.144   2.946  25.954  0.00  0.00    +0.068 A 
ATOM     28  C   UNL     1     -16.498   2.276  24.936  0.00  0.00    +0.120 A 
ATOM     33  H   UNL     1     -15.658   6.304  24.221  0.00  0.00    +0.157 HD
ENDBRANCH  16  19
ENDBRANCH  11  16
TORSDOF 7
ENDMDL
MODEL 10
REMARK VINA RESULT:      -5.9     28.094     31.393
REMARK  Name = 11912454
REMARK  9 active torsions:
REMARK  status: ('A' for Active; 'I' for Inactive)
REMARK    1  A    between atoms: O_4  and  C_29
REMARK    2  A    between atoms: O_4  and  C_30
REMARK    3  A    between atoms: N_7  and  C_20
REMARK    4  A    between atoms: C_10  and  C_15
REMARK    5  A    between atoms: C_11  and  C_16
REMARK    6  A    between atoms: C_15  and  C_17
REMARK    7  A    between atoms: C_16  and  C_19
REMARK    8  A    between atoms: C_24  and  C_29
REMARK    9  A    between atoms: C_30  and  C_31
REMARK                            x       y       z     vdW  Elec       q    Type
REMARK                         _______ _______ _______ _____ _____    ______ ____
ROOT
ATOM      2  O   UNL     1     -12.816   8.861  21.656  0.00  0.00    -0.252 OA
ATOM      6  N   UNL     1     -11.473   8.159  19.908  0.00  0.00    -0.285 N 
ATOM      7  N   UNL     1     -13.029   6.682  20.893  0.00  0.00    -0.269 N 
ATOM     10  C   UNL     1     -10.925  10.073  18.413  0.00  0.00    +0.010 C 
ATOM     11  C   UNL     1     -10.393   9.065  17.367  0.00  0.00    +0.004 C 
ATOM     12  C   UNL     1     -11.081   7.698  17.506  0.00  0.00    +0.023 C 
ATOM     13  C   UNL     1     -10.807   9.462  19.819  0.00  0.00    +0.113 C 
ATOM     14  C   UNL     1     -11.000   7.162  18.937  0.00  0.00    +0.109 C 
ATOM     18  C   UNL     1     -12.480   7.964  20.879  0.00  0.00    +0.306 C 
ATOM     32  H   UNL     1     -12.453   5.910  20.577  0.00  0.00    +0.156 HD
ENDROOT
BRANCH   7  20
ATOM     20  C   UNL     1     -14.312   6.303  21.359  0.00  0.00    +0.036 A 
ATOM     22  C   UNL     1     -14.455   5.163  22.145  0.00  0.00    +0.038 A 
ATOM     23  C   UNL     1     -15.423   7.073  21.028  0.00  0.00    +0.023 A 
ATOM     24  C   UNL     1     -15.718   4.791  22.605  0.00  0.00    +0.061 A 
ATOM     25  C   UNL     1     -16.687   6.703  21.487  0.00  0.00    +0.003 A 
ATOM     26  C   UNL     1     -16.834   5.561  22.275  0.00  0.00    +0.015 A 
BRANCH  24  29
ATOM      5  O   UNL     1     -16.466   2.575  23.066  0.00  0.00    -0.245 OA
ATOM     29  C   UNL     1     -15.874   3.601  23.425  0.00  0.00    +0.339 C 
BRANCH  29   4
ATOM      4  O   UNL     1     -15.281   3.753  24.649  0.00  0.00    -0.461 OA
BRANCH   4  30
ATOM     30  C   UNL     1     -16.054   3.376  25.793  0.00  0.00    +0.229 C 
ATOM     31  C   UNL     1     -16.992   4.509  26.150  0.00  0.00    +0.048 C 
ENDBRANCH   4  30
ENDBRANCH  29   4
ENDBRANCH  24  29
ENDBRANCH   7  20
BRANCH  10  15
ATOM     15  C   UNL     1     -12.359  10.549  18.155  0.00  0.00    +0.002 C 
ATOM     17  C   UNL     1     -12.531  12.003  18.540  0.00  0.00    +0.004 C 
ENDBRANCH  10  15
BRANCH  11  16
ATOM     16  C   UNL     1     -10.501   9.579  15.931  0.00  0.00    +0.100 C 
BRANCH  16  19
ATOM      1  S   UNL     1     -15.007   8.402  14.318  0.00  0.00    -0.061 S 
ATOM      3  O   UNL     1     -10.399   7.720  14.403  0.00  0.00    -0.275 OA
ATOM      8  N   UNL     1     -12.473   8.697  14.918  0.00  0.00    -0.265 N 
ATOM      9  N   UNL     1     -13.088   6.946  13.378  0.00  0.00    -0.233 NA
ATOM     19  C   UNL     1     -11.090   8.546  14.990  0.00  0.00    +0.219 C 
ATOM     21  C   UNL     1     -13.386   7.931  14.154  0.00  0.00    +0.164 A 
ATOM     27  C   UNL     1     -15.413   7.149  13.219  0.00  0.00    +0.068 A 
ATOM     28  C   UNL     1     -14.268   6.486  12.830  0.00  0.00    +0.120 A 
ATOM     33  H   UNL     1     -12.917   9.426  15.469  0.00  0.00    +0.157 HD
ENDBRANCH  16  19
ENDBRANCH  11  16
TORSDOF 7
ENDMDL
