MODEL 1
REMARK VINA RESULT:      -7.0      0.000      0.000
REMARK  Name = 11865813
REMARK  8 active torsions:
REMARK  status: ('A' for Active; 'I' for Inactive)
REMARK    1  A    between atoms: O_3  and  C_28
REMARK    2  A    between atoms: O_3  and  C_34
REMARK    3  A    between atoms: N_8  and  C_12
REMARK    4  A    between atoms: N_9  and  C_20
REMARK    5  A    between atoms: N_10  and  C_33
REMARK    6  A    between atoms: C_11  and  C_15
REMARK    7  A    between atoms: C_16  and  C_28
REMARK    8  A    between atoms: C_21  and  C_29
REMARK                            x       y       z     vdW  Elec       q    Type
REMARK                         _______ _______ _______ _____ _____    ______ ____
ROOT
ATOM      2  O   UNL     1      15.670   6.607  21.579  0.00  0.00    -0.268 OA
ATOM      6  N   UNL     1      16.564   8.709  21.250  0.00  0.00    -0.283 N 
ATOM     11  C   UNL     1      15.327   9.432  21.530  0.00  0.00    +0.183 C 
ATOM     12  C   UNL     1      15.751  10.892  21.696  0.00  0.00    +0.105 C 
ATOM     13  C   UNL     1      17.005  10.996  20.824  0.00  0.00    +0.043 C 
ATOM     14  C   UNL     1      17.666   9.633  20.979  0.00  0.00    +0.111 C 
ATOM     21  C   UNL     1      16.650   7.317  21.348  0.00  0.00    +0.264 C 
ENDROOT
BRANCH  11  15
ATOM      1  O   UNL     1      14.847   9.550  19.201  0.00  0.00    -0.273 OA
ATOM      7  N   UNL     1      13.177   8.741  20.584  0.00  0.00    -0.286 N 
ATOM     15  C   UNL     1      14.438   9.255  20.325  0.00  0.00    +0.239 C 
ATOM     16  C   UNL     1      12.141   8.657  19.562  0.00  0.00    +0.185 C 
ATOM     17  C   UNL     1      12.651   8.379  21.898  0.00  0.00    +0.109 C 
ATOM     18  C   UNL     1      10.841   8.492  20.341  0.00  0.00    +0.035 C 
ATOM     19  C   UNL     1      11.280   7.781  21.619  0.00  0.00    +0.021 C 
BRANCH  16  28
ATOM      5  O   UNL     1      13.136   6.515  19.098  0.00  0.00    -0.249 OA
ATOM     28  C   UNL     1      12.444   7.451  18.725  0.00  0.00    +0.328 C 
BRANCH  28   3
ATOM      3  O   UNL     1      11.835   7.575  17.511  0.00  0.00    -0.467 OA
ATOM     34  C   UNL     1      12.014   8.836  16.859  0.00  0.00    +0.280 C 
ENDBRANCH  28   3
ENDBRANCH  16  28
ENDBRANCH  11  15
BRANCH  12   8
ATOM      4  O   UNL     1      13.856  11.334  23.812  0.00  0.00    -0.253 OA
ATOM      8  N   UNL     1      16.052  11.195  23.075  0.00  0.00    -0.294 N 
ATOM      9  N   UNL     1      15.621  11.672  25.282  0.00  0.00    -0.297 N 
ATOM     27  C   UNL     1      15.065  11.395  24.036  0.00  0.00    +0.300 C 
ATOM     35  H   UNL     1      17.021  11.336  23.343  0.00  0.00    +0.151 HD
ATOM     36  H   UNL     1      16.630  11.769  25.340  0.00  0.00    +0.151 HD
BRANCH   9  20
ATOM     20  C   UNL     1      14.829  11.921  26.466  0.00  0.00    +0.074 C 
ATOM     22  C   UNL     1      14.484  13.409  26.594  0.00  0.00    +0.022 C 
ATOM     23  C   UNL     1      15.537  11.406  27.722  0.00  0.00    +0.022 C 
ATOM     24  C   UNL     1      15.695  14.260  26.977  0.00  0.00    +0.002 C 
ATOM     25  C   UNL     1      16.747  12.259  28.104  0.00  0.00    +0.002 C 
ATOM     26  C   UNL     1      16.377  13.734  28.236  0.00  0.00    +0.000 C 
ENDBRANCH   9  20
ENDBRANCH  12   8
BRANCH  21  29
ATOM     10  N   UNL     1      18.323   6.005  20.024  0.00  0.00    -0.346 N 
ATOM     29  C   UNL     1      17.967   6.731  21.130  0.00  0.00    +0.104 A 
ATOM     30  C   UNL     1      19.061   6.791  21.965  0.00  0.00    +0.032 A 
ATOM     31  C   UNL     1      19.628   5.602  20.139  0.00  0.00    +0.086 A 
ATOM     32  C   UNL     1      20.111   6.076  21.338  0.00  0.00    +0.020 A 
ATOM     33  C   UNL     1      17.467   5.703  18.897  0.00  0.00    +0.149 C 
ENDBRANCH  21  29
TORSDOF 6
ENDMDL
MODEL 2
REMARK VINA RESULT:      -6.3     28.451     31.033
REMARK  Name = 11865813
REMARK  8 active torsions:
REMARK  status: ('A' for Active; 'I' for Inactive)
REMARK    1  A    between atoms: O_3  and  C_28
REMARK    2  A    between atoms: O_3  and  C_34
REMARK    3  A    between atoms: N_8  and  C_12
REMARK    4  A    between atoms: N_9  and  C_20
REMARK    5  A    between atoms: N_10  and  C_33
REMARK    6  A    between atoms: C_11  and  C_15
REMARK    7  A    between atoms: C_16  and  C_28
REMARK    8  A    between atoms: C_21  and  C_29
REMARK                            x       y       z     vdW  Elec       q    Type
REMARK                         _______ _______ _______ _____ _____    ______ ____
ROOT
ATOM      2  O   UNL     1      -4.818  -8.563  11.066  0.00  0.00    -0.268 OA
ATOM      6  N   UNL     1      -6.676  -9.826  11.597  0.00  0.00    -0.283 N 
ATOM     11  C   UNL     1      -6.433  -9.833  13.036  0.00  0.00    +0.183 C 
ATOM     12  C   UNL     1      -7.734 -10.346  13.654  0.00  0.00    +0.105 C 
ATOM     13  C   UNL     1      -8.321 -11.234  12.554  0.00  0.00    +0.043 C 
ATOM     14  C   UNL     1      -7.916 -10.528  11.266  0.00  0.00    +0.111 C 
ATOM     21  C   UNL     1      -5.851  -9.131  10.707  0.00  0.00    +0.264 C 
ENDROOT
BRANCH  11  15
ATOM      1  O   UNL     1      -4.883 -11.514  12.370  0.00  0.00    -0.273 OA
ATOM      7  N   UNL     1      -4.772 -10.783  14.563  0.00  0.00    -0.286 N 
ATOM     15  C   UNL     1      -5.296 -10.793  13.280  0.00  0.00    +0.239 C 
ATOM     16  C   UNL     1      -3.783 -11.756  15.012  0.00  0.00    +0.185 C 
ATOM     17  C   UNL     1      -5.230  -9.948  15.671  0.00  0.00    +0.109 C 
ATOM     18  C   UNL     1      -3.837 -11.688  16.535  0.00  0.00    +0.035 C 
ATOM     19  C   UNL     1      -4.269 -10.250  16.811  0.00  0.00    +0.021 C 
BRANCH  16  28
ATOM      5  O   UNL     1      -2.192 -10.156  14.174  0.00  0.00    -0.249 OA
ATOM     28  C   UNL     1      -2.454 -11.310  14.482  0.00  0.00    +0.328 C 
BRANCH  28   3
ATOM      3  O   UNL     1      -1.613 -12.380  14.404  0.00  0.00    -0.467 OA
ATOM     34  C   UNL     1      -2.050 -13.445  13.554  0.00  0.00    +0.280 C 
ENDBRANCH  28   3
ENDBRANCH  16  28
ENDBRANCH  11  15
BRANCH  12   8
ATOM      4  O   UNL     1      -8.792  -9.692  16.245  0.00  0.00    -0.253 OA
ATOM      8  N   UNL     1      -8.627  -9.257  13.972  0.00  0.00    -0.294 N 
ATOM      9  N   UNL     1      -9.935  -7.908  15.295  0.00  0.00    -0.297 N 
ATOM     27  C   UNL     1      -9.091  -9.015  15.262  0.00  0.00    +0.300 C 
ATOM     35  H   UNL     1      -8.986  -8.684  13.215  0.00  0.00    +0.151 HD
ATOM     36  H   UNL     1     -10.172  -7.465  14.413  0.00  0.00    +0.151 HD
BRANCH   9  20
ATOM     20  C   UNL     1     -10.562  -7.426  16.506  0.00  0.00    +0.074 C 
ATOM     22  C   UNL     1     -11.643  -8.399  16.992  0.00  0.00    +0.022 C 
ATOM     23  C   UNL     1     -11.132  -6.018  16.309  0.00  0.00    +0.022 C 
ATOM     24  C   UNL     1     -12.884  -8.387  16.101  0.00  0.00    +0.002 C 
ATOM     25  C   UNL     1     -12.375  -6.009  15.419  0.00  0.00    +0.002 C 
ATOM     26  C   UNL     1     -13.439  -6.977  15.928  0.00  0.00    +0.000 C 
ENDBRANCH   9  20
ENDBRANCH  12   8
BRANCH  21  29
ATOM     10  N   UNL     1      -5.782  -9.996   8.358  0.00  0.00    -0.346 N 
ATOM     29  C   UNL     1      -6.259  -9.131   9.308  0.00  0.00    +0.104 A 
ATOM     30  C   UNL     1      -7.166  -8.292   8.697  0.00  0.00    +0.032 A 
ATOM     31  C   UNL     1      -6.371  -9.724   7.150  0.00  0.00    +0.086 A 
ATOM     32  C   UNL     1      -7.235  -8.668   7.332  0.00  0.00    +0.020 A 
ATOM     33  C   UNL     1      -4.808 -11.043   8.578  0.00  0.00    +0.149 C 
ENDBRANCH  21  29
TORSDOF 6
ENDMDL
MODEL 3
REMARK VINA RESULT:      -6.2     28.063     30.173
REMARK  Name = 11865813
REMARK  8 active torsions:
REMARK  status: ('A' for Active; 'I' for Inactive)
REMARK    1  A    between atoms: O_3  and  C_28
REMARK    2  A    between atoms: O_3  and  C_34
REMARK    3  A    between atoms: N_8  and  C_12
REMARK    4  A    between atoms: N_9  and  C_20
REMARK    5  A    between atoms: N_10  and  C_33
REMARK    6  A    between atoms: C_11  and  C_15
REMARK    7  A    between atoms: C_16  and  C_28
REMARK    8  A    between atoms: C_21  and  C_29
REMARK                            x       y       z     vdW  Elec       q    Type
REMARK                         _______ _______ _______ _____ _____    ______ ____
ROOT
ATOM      2  O   UNL     1      -4.308 -13.880  12.225  0.00  0.00    -0.268 OA
ATOM      6  N   UNL     1      -2.855 -12.700  13.575  0.00  0.00    -0.283 N 
ATOM     11  C   UNL     1      -3.644 -11.471  13.588  0.00  0.00    +0.183 C 
ATOM     12  C   UNL     1      -3.036 -10.623  14.706  0.00  0.00    +0.105 C 
ATOM     13  C   UNL     1      -1.578 -11.087  14.749  0.00  0.00    +0.043 C 
ATOM     14  C   UNL     1      -1.662 -12.571  14.413  0.00  0.00    +0.111 C 
ATOM     21  C   UNL     1      -3.287 -13.854  12.915  0.00  0.00    +0.264 C 
ENDROOT
BRANCH  11  15
ATOM      1  O   UNL     1      -2.365 -10.879  11.669  0.00  0.00    -0.273 OA
ATOM      7  N   UNL     1      -4.571 -10.181  11.726  0.00  0.00    -0.286 N 
ATOM     15  C   UNL     1      -3.454 -10.818  12.242  0.00  0.00    +0.239 C 
ATOM     16  C   UNL     1      -4.519  -9.367  10.518  0.00  0.00    +0.185 C 
ATOM     17  C   UNL     1      -5.878 -10.084  12.370  0.00  0.00    +0.109 C 
ATOM     18  C   UNL     1      -5.780  -8.511  10.572  0.00  0.00    +0.035 C 
ATOM     19  C   UNL     1      -6.764  -9.380  11.353  0.00  0.00    +0.021 C 
BRANCH  16  28
ATOM      5  O   UNL     1      -4.513 -11.526   9.453  0.00  0.00    -0.249 OA
ATOM     28  C   UNL     1      -4.535 -10.308   9.351  0.00  0.00    +0.328 C 
BRANCH  28   3
ATOM      3  O   UNL     1      -4.574  -9.592   8.191  0.00  0.00    -0.467 OA
ATOM     34  C   UNL     1      -5.497 -10.070   7.205  0.00  0.00    +0.280 C 
ENDBRANCH  28   3
ENDBRANCH  16  28
ENDBRANCH  11  15
BRANCH  12   8
ATOM      4  O   UNL     1      -5.552  -9.537  15.573  0.00  0.00    -0.253 OA
ATOM      8  N   UNL     1      -3.695 -10.870  15.967  0.00  0.00    -0.294 N 
ATOM      9  N   UNL     1      -5.332 -10.698  17.572  0.00  0.00    -0.297 N 
ATOM     27  C   UNL     1      -4.918 -10.298  16.304  0.00  0.00    +0.300 C 
ATOM     35  H   UNL     1      -3.216 -11.431  16.665  0.00  0.00    +0.151 HD
ATOM     36  H   UNL     1      -4.698 -11.272  18.118  0.00  0.00    +0.151 HD
BRANCH   9  20
ATOM     20  C   UNL     1      -6.568 -10.257  18.177  0.00  0.00    +0.074 C 
ATOM     22  C   UNL     1      -6.562 -10.510  19.689  0.00  0.00    +0.022 C 
ATOM     23  C   UNL     1      -7.777 -10.919  17.509  0.00  0.00    +0.022 C 
ATOM     24  C   UNL     1      -6.685 -11.994  20.035  0.00  0.00    +0.002 C 
ATOM     25  C   UNL     1      -7.898 -12.403  17.858  0.00  0.00    +0.002 C 
ATOM     26  C   UNL     1      -7.900 -12.629  19.367  0.00  0.00    +0.000 C 
ENDBRANCH   9  20
ENDBRANCH  12   8
BRANCH  21  29
ATOM     10  N   UNL     1      -2.529 -15.929  14.095  0.00  0.00    -0.346 N 
ATOM     29  C   UNL     1      -2.448 -15.037  13.058  0.00  0.00    +0.104 A 
ATOM     30  C   UNL     1      -1.449 -15.465  12.210  0.00  0.00    +0.032 A 
ATOM     31  C   UNL     1      -1.599 -16.921  13.922  0.00  0.00    +0.086 A 
ATOM     32  C   UNL     1      -0.912 -16.656  12.758  0.00  0.00    +0.020 A 
ATOM     33  C   UNL     1      -3.450 -15.852  15.208  0.00  0.00    +0.149 C 
ENDBRANCH  21  29
TORSDOF 6
ENDMDL
MODEL 4
REMARK VINA RESULT:      -6.1     28.249     32.207
REMARK  Name = 11865813
REMARK  8 active torsions:
REMARK  status: ('A' for Active; 'I' for Inactive)
REMARK    1  A    between atoms: O_3  and  C_28
REMARK    2  A    between atoms: O_3  and  C_34
REMARK    3  A    between atoms: N_8  and  C_12
REMARK    4  A    between atoms: N_9  and  C_20
REMARK    5  A    between atoms: N_10  and  C_33
REMARK    6  A    between atoms: C_11  and  C_15
REMARK    7  A    between atoms: C_16  and  C_28
REMARK    8  A    between atoms: C_21  and  C_29
REMARK                            x       y       z     vdW  Elec       q    Type
REMARK                         _______ _______ _______ _____ _____    ______ ____
ROOT
ATOM      2  O   UNL     1     -10.360 -11.586  16.900  0.00  0.00    -0.268 OA
ATOM      6  N   UNL     1      -8.315 -10.708  17.511  0.00  0.00    -0.283 N 
ATOM     11  C   UNL     1      -7.706 -11.992  17.845  0.00  0.00    +0.183 C 
ATOM     12  C   UNL     1      -6.210 -11.698  17.972  0.00  0.00    +0.105 C 
ATOM     13  C   UNL     1      -6.174 -10.230  18.403  0.00  0.00    +0.043 C 
ATOM     14  C   UNL     1      -7.359  -9.611  17.674  0.00  0.00    +0.111 C 
ATOM     21  C   UNL     1      -9.615 -10.610  17.005  0.00  0.00    +0.264 C 
ENDROOT
BRANCH  11  15
ATOM      1  O   UNL     1      -8.244 -11.670  20.142  0.00  0.00    -0.273 OA
ATOM      7  N   UNL     1      -8.877 -13.677  19.179  0.00  0.00    -0.286 N 
ATOM     15  C   UNL     1      -8.293 -12.421  19.166  0.00  0.00    +0.239 C 
ATOM     16  C   UNL     1      -9.347 -14.309  20.406  0.00  0.00    +0.185 C 
ATOM     17  C   UNL     1      -8.957 -14.599  18.049  0.00  0.00    +0.109 C 
ATOM     18  C   UNL     1      -9.469 -15.788  20.058  0.00  0.00    +0.035 C 
ATOM     19  C   UNL     1      -9.772 -15.777  18.562  0.00  0.00    +0.021 C 
BRANCH  16  28
ATOM      5  O   UNL     1     -11.351 -13.059  19.940  0.00  0.00    -0.249 OA
ATOM     28  C   UNL     1     -10.678 -13.703  20.733  0.00  0.00    +0.328 C 
BRANCH  28   3
ATOM      3  O   UNL     1     -11.001 -13.983  22.028  0.00  0.00    -0.467 OA
ATOM     34  C   UNL     1     -12.331 -13.628  22.421  0.00  0.00    +0.280 C 
ENDBRANCH  28   3
ENDBRANCH  16  28
ENDBRANCH  11  15
BRANCH  12   8
ATOM      4  O   UNL     1      -3.395 -11.399  17.474  0.00  0.00    -0.253 OA
ATOM      8  N   UNL     1      -5.532 -11.886  16.712  0.00  0.00    -0.294 N 
ATOM      9  N   UNL     1      -3.759 -11.959  15.250  0.00  0.00    -0.297 N 
ATOM     27  C   UNL     1      -4.158 -11.719  16.563  0.00  0.00    +0.300 C 
ATOM     35  H   UNL     1      -6.086 -12.083  15.885  0.00  0.00    +0.151 HD
ATOM     36  H   UNL     1      -4.481 -12.146  14.562  0.00  0.00    +0.151 HD
BRANCH   9  20
ATOM     20  C   UNL     1      -2.386 -11.859  14.809  0.00  0.00    +0.074 C 
ATOM     22  C   UNL     1      -2.116 -10.501  14.151  0.00  0.00    +0.022 C 
ATOM     23  C   UNL     1      -2.023 -13.012  13.869  0.00  0.00    +0.022 C 
ATOM     24  C   UNL     1      -2.780 -10.372  12.781  0.00  0.00    +0.002 C 
ATOM     25  C   UNL     1      -2.687 -12.880  12.498  0.00  0.00    +0.002 C 
ATOM     26  C   UNL     1      -2.396 -11.525  11.859  0.00  0.00    +0.000 C 
ENDBRANCH   9  20
ENDBRANCH  12   8
BRANCH  21  29
ATOM     10  N   UNL     1      -9.934  -8.735  15.376  0.00  0.00    -0.346 N 
ATOM     29  C   UNL     1     -10.067  -9.277  16.628  0.00  0.00    +0.104 A 
ATOM     30  C   UNL     1     -10.687  -8.343  17.428  0.00  0.00    +0.032 A 
ATOM     31  C   UNL     1     -10.462  -7.471  15.364  0.00  0.00    +0.086 A 
ATOM     32  C   UNL     1     -10.936  -7.200  16.628  0.00  0.00    +0.020 A 
ATOM     33  C   UNL     1      -9.335  -9.385  14.230  0.00  0.00    +0.149 C 
ENDBRANCH  21  29
TORSDOF 6
ENDMDL
MODEL 5
REMARK VINA RESULT:      -6.0     28.670     31.799
REMARK  Name = 11865813
REMARK  8 active torsions:
REMARK  status: ('A' for Active; 'I' for Inactive)
REMARK    1  A    between atoms: O_3  and  C_28
REMARK    2  A    between atoms: O_3  and  C_34
REMARK    3  A    between atoms: N_8  and  C_12
REMARK    4  A    between atoms: N_9  and  C_20
REMARK    5  A    between atoms: N_10  and  C_33
REMARK    6  A    between atoms: C_11  and  C_15
REMARK    7  A    between atoms: C_16  and  C_28
REMARK    8  A    between atoms: C_21  and  C_29
REMARK                            x       y       z     vdW  Elec       q    Type
REMARK                         _______ _______ _______ _____ _____    ______ ____
ROOT
ATOM      2  O   UNL     1      -7.232  -9.279  17.619  0.00  0.00    -0.268 OA
ATOM      6  N   UNL     1      -7.322 -11.112  16.220  0.00  0.00    -0.283 N 
ATOM     11  C   UNL     1      -8.331 -10.554  15.324  0.00  0.00    +0.183 C 
ATOM     12  C   UNL     1      -8.324 -11.473  14.101  0.00  0.00    +0.105 C 
ATOM     13  C   UNL     1      -7.870 -12.819  14.672  0.00  0.00    +0.043 C 
ATOM     14  C   UNL     1      -6.882 -12.431  15.764  0.00  0.00    +0.111 C 
ATOM     21  C   UNL     1      -6.804 -10.389  17.298  0.00  0.00    +0.264 C 
ENDROOT
BRANCH  11  15
ATOM      1  O   UNL     1     -10.078 -11.710  16.457  0.00  0.00    -0.273 OA
ATOM      7  N   UNL     1     -10.298  -9.417  16.235  0.00  0.00    -0.286 N 
ATOM     15  C   UNL     1      -9.649 -10.628  16.055  0.00  0.00    +0.239 C 
ATOM     16  C   UNL     1     -11.649  -9.327  16.775  0.00  0.00    +0.185 C 
ATOM     17  C   UNL     1      -9.827  -8.113  15.775  0.00  0.00    +0.109 C 
ATOM     18  C   UNL     1     -12.134  -7.937  16.377  0.00  0.00    +0.035 C 
ATOM     19  C   UNL     1     -10.847  -7.119  16.309  0.00  0.00    +0.021 C 
BRANCH  16  28
ATOM      5  O   UNL     1     -10.479  -9.525  18.870  0.00  0.00    -0.249 OA
ATOM     28  C   UNL     1     -11.539  -9.472  18.263  0.00  0.00    +0.328 C 
BRANCH  28   3
ATOM      3  O   UNL     1     -12.788  -9.535  18.808  0.00  0.00    -0.467 OA
ATOM     34  C   UNL     1     -12.836  -9.865  20.200  0.00  0.00    +0.280 C 
ENDBRANCH  28   3
ENDBRANCH  16  28
ENDBRANCH  11  15
BRANCH  12   8
ATOM      4  O   UNL     1      -8.887  -9.591  12.002  0.00  0.00    -0.253 OA
ATOM      8  N   UNL     1      -7.402 -10.999  13.097  0.00  0.00    -0.294 N 
ATOM      9  N   UNL     1      -6.692  -9.793  11.273  0.00  0.00    -0.297 N 
ATOM     27  C   UNL     1      -7.764 -10.082  12.113  0.00  0.00    +0.300 C 
ATOM     35  H   UNL     1      -6.470 -11.399  13.063  0.00  0.00    +0.151 HD
ATOM     36  H   UNL     1      -5.829 -10.309  11.411  0.00  0.00    +0.151 HD
BRANCH   9  20
ATOM     20  C   UNL     1      -6.782  -8.871  10.163  0.00  0.00    +0.074 C 
ATOM     22  C   UNL     1      -7.317  -9.570   8.908  0.00  0.00    +0.022 C 
ATOM     23  C   UNL     1      -5.431  -8.201   9.892  0.00  0.00    +0.022 C 
ATOM     24  C   UNL     1      -6.298 -10.530   8.294  0.00  0.00    +0.002 C 
ATOM     25  C   UNL     1      -4.415  -9.163   9.275  0.00  0.00    +0.002 C 
ATOM     26  C   UNL     1      -4.966  -9.838   8.023  0.00  0.00    +0.000 C 
ENDBRANCH   9  20
ENDBRANCH  12   8
BRANCH  21  29
ATOM     10  N   UNL     1      -4.416 -11.037  17.689  0.00  0.00    -0.346 N 
ATOM     29  C   UNL     1      -5.737 -11.028  18.057  0.00  0.00    +0.104 A 
ATOM     30  C   UNL     1      -5.848 -11.722  19.242  0.00  0.00    +0.032 A 
ATOM     31  C   UNL     1      -3.683 -11.724  18.621  0.00  0.00    +0.086 A 
ATOM     32  C   UNL     1      -4.549 -12.162  19.598  0.00  0.00    +0.020 A 
ATOM     33  C   UNL     1      -3.864 -10.419  16.503  0.00  0.00    +0.149 C 
ENDBRANCH  21  29
TORSDOF 6
ENDMDL
MODEL 6
REMARK VINA RESULT:      -5.9     16.572     19.194
REMARK  Name = 11865813
REMARK  8 active torsions:
REMARK  status: ('A' for Active; 'I' for Inactive)
REMARK    1  A    between atoms: O_3  and  C_28
REMARK    2  A    between atoms: O_3  and  C_34
REMARK    3  A    between atoms: N_8  and  C_12
REMARK    4  A    between atoms: N_9  and  C_20
REMARK    5  A    between atoms: N_10  and  C_33
REMARK    6  A    between atoms: C_11  and  C_15
REMARK    7  A    between atoms: C_16  and  C_28
REMARK    8  A    between atoms: C_21  and  C_29
REMARK                            x       y       z     vdW  Elec       q    Type
REMARK                         _______ _______ _______ _____ _____    ______ ____
ROOT
ATOM      2  O   UNL     1      11.492   4.812   3.566  0.00  0.00    -0.268 OA
ATOM      6  N   UNL     1      12.505   6.635   2.577  0.00  0.00    -0.283 N 
ATOM     11  C   UNL     1      12.566   7.438   3.795  0.00  0.00    +0.183 C 
ATOM     12  C   UNL     1      13.510   8.593   3.459  0.00  0.00    +0.105 C 
ATOM     13  C   UNL     1      13.344   8.758   1.947  0.00  0.00    +0.043 C 
ATOM     14  C   UNL     1      13.125   7.334   1.451  0.00  0.00    +0.111 C 
ATOM     21  C   UNL     1      12.002   5.330   2.571  0.00  0.00    +0.264 C 
ENDROOT
BRANCH  11  15
ATOM      1  O   UNL     1      10.551   8.552   3.186  0.00  0.00    -0.273 OA
ATOM      7  N   UNL     1      10.654   7.640   5.311  0.00  0.00    -0.286 N 
ATOM     15  C   UNL     1      11.166   7.936   4.058  0.00  0.00    +0.239 C 
ATOM     16  C   UNL     1       9.386   8.180   5.785  0.00  0.00    +0.185 C 
ATOM     17  C   UNL     1      11.347   6.915   6.372  0.00  0.00    +0.109 C 
ATOM     18  C   UNL     1       9.432   8.004   7.299  0.00  0.00    +0.035 C 
ATOM     19  C   UNL     1      10.320   6.776   7.486  0.00  0.00    +0.021 C 
BRANCH  16  28
ATOM      5  O   UNL     1       8.099   6.181   5.413  0.00  0.00    -0.249 OA
ATOM     28  C   UNL     1       8.296   7.361   5.162  0.00  0.00    +0.328 C 
BRANCH  28   3
ATOM      3  O   UNL     1       7.585   8.135   4.293  0.00  0.00    -0.467 OA
ATOM     34  C   UNL     1       7.530   9.529   4.614  0.00  0.00    +0.280 C 
ENDBRANCH  28   3
ENDBRANCH  16  28
ENDBRANCH  11  15
BRANCH  12   8
ATOM      4  O   UNL     1      15.759  10.384   3.452  0.00  0.00    -0.253 OA
ATOM      8  N   UNL     1      14.875   8.267   3.798  0.00  0.00    -0.294 N 
ATOM      9  N   UNL     1      17.120   8.631   4.136  0.00  0.00    -0.297 N 
ATOM     27  C   UNL     1      15.905   9.203   3.767  0.00  0.00    +0.300 C 
ATOM     35  H   UNL     1      15.109   7.300   4.003  0.00  0.00    +0.151 HD
ATOM     36  H   UNL     1      17.141   7.631   4.306  0.00  0.00    +0.151 HD
BRANCH   9  20
ATOM     20  C   UNL     1      18.359   9.373   4.192  0.00  0.00    +0.074 C 
ATOM     22  C   UNL     1      19.504   8.583   3.547  0.00  0.00    +0.022 C 
ATOM     23  C   UNL     1      18.700   9.768   5.632  0.00  0.00    +0.022 C 
ATOM     24  C   UNL     1      19.942   7.390   4.396  0.00  0.00    +0.002 C 
ATOM     25  C   UNL     1      19.141   8.573   6.478  0.00  0.00    +0.002 C 
ATOM     26  C   UNL     1      20.287   7.809   5.821  0.00  0.00    +0.000 C 
ENDBRANCH   9  20
ENDBRANCH  12   8
BRANCH  21  29
ATOM     10  N   UNL     1      13.139   3.822   0.927  0.00  0.00    -0.346 N 
ATOM     29  C   UNL     1      12.083   4.609   1.308  0.00  0.00    +0.104 A 
ATOM     30  C   UNL     1      11.151   4.583   0.293  0.00  0.00    +0.032 A 
ATOM     31  C   UNL     1      12.894   3.293  -0.314  0.00  0.00    +0.086 A 
ATOM     32  C   UNL     1      11.665   3.751  -0.732  0.00  0.00    +0.020 A 
ATOM     33  C   UNL     1      14.334   3.574   1.703  0.00  0.00    +0.149 C 
ENDBRANCH  21  29
TORSDOF 6
ENDMDL
MODEL 7
REMARK VINA RESULT:      -5.9     11.813     15.967
REMARK  Name = 11865813
REMARK  8 active torsions:
REMARK  status: ('A' for Active; 'I' for Inactive)
REMARK    1  A    between atoms: O_3  and  C_28
REMARK    2  A    between atoms: O_3  and  C_34
REMARK    3  A    between atoms: N_8  and  C_12
REMARK    4  A    between atoms: N_9  and  C_20
REMARK    5  A    between atoms: N_10  and  C_33
REMARK    6  A    between atoms: C_11  and  C_15
REMARK    7  A    between atoms: C_16  and  C_28
REMARK    8  A    between atoms: C_21  and  C_29
REMARK                            x       y       z     vdW  Elec       q    Type
REMARK                         _______ _______ _______ _____ _____    ______ ____
ROOT
ATOM      2  O   UNL     1       8.344   8.020   7.313  0.00  0.00    -0.268 OA
ATOM      6  N   UNL     1      10.634   8.031   7.033  0.00  0.00    -0.283 N 
ATOM     11  C   UNL     1      10.720   9.437   6.647  0.00  0.00    +0.183 C 
ATOM     12  C   UNL     1      12.210   9.777   6.723  0.00  0.00    +0.105 C 
ATOM     13  C   UNL     1      12.893   8.435   6.447  0.00  0.00    +0.043 C 
ATOM     14  C   UNL     1      11.961   7.417   7.091  0.00  0.00    +0.111 C 
ATOM     21  C   UNL     1       9.423   7.432   7.392  0.00  0.00    +0.264 C 
ENDROOT
BRANCH  11  15
ATOM      1  O   UNL     1      10.651   8.780   4.359  0.00  0.00    -0.273 OA
ATOM      7  N   UNL     1       9.235  10.491   5.011  0.00  0.00    -0.286 N 
ATOM     15  C   UNL     1      10.210   9.531   5.231  0.00  0.00    +0.239 C 
ATOM     16  C   UNL     1       8.751  10.823   3.677  0.00  0.00    +0.185 C 
ATOM     17  C   UNL     1       8.686  11.402   6.012  0.00  0.00    +0.109 C 
ATOM     18  C   UNL     1       8.077  12.181   3.836  0.00  0.00    +0.035 C 
ATOM     19  C   UNL     1       7.593  12.170   5.284  0.00  0.00    +0.021 C 
BRANCH  16  28
ATOM      5  O   UNL     1       7.105   9.114   4.084  0.00  0.00    -0.249 OA
ATOM     28  C   UNL     1       7.771   9.758   3.286  0.00  0.00    +0.328 C 
BRANCH  28   3
ATOM      3  O   UNL     1       7.751   9.634   1.928  0.00  0.00    -0.467 OA
ATOM     34  C   UNL     1       6.474   9.831   1.311  0.00  0.00    +0.280 C 
ENDBRANCH  28   3
ENDBRANCH  16  28
ENDBRANCH  11  15
BRANCH  12   8
ATOM      4  O   UNL     1      11.725  12.423   7.738  0.00  0.00    -0.253 OA
ATOM      8  N   UNL     1      12.565  10.279   8.029  0.00  0.00    -0.294 N 
ATOM      9  N   UNL     1      12.735  11.809   9.736  0.00  0.00    -0.297 N 
ATOM     27  C   UNL     1      12.289  11.582   8.437  0.00  0.00    +0.300 C 
ATOM     35  H   UNL     1      13.097   9.681   8.653  0.00  0.00    +0.151 HD
ATOM     36  H   UNL     1      13.253  11.068  10.197  0.00  0.00    +0.151 HD
BRANCH   9  20
ATOM     20  C   UNL     1      12.580  13.076  10.416  0.00  0.00    +0.074 C 
ATOM     22  C   UNL     1      13.864  13.462  11.160  0.00  0.00    +0.022 C 
ATOM     23  C   UNL     1      11.377  13.051  11.363  0.00  0.00    +0.022 C 
ATOM     24  C   UNL     1      14.107  12.597  12.396  0.00  0.00    +0.002 C 
ATOM     25  C   UNL     1      11.623  12.186  12.599  0.00  0.00    +0.002 C 
ATOM     26  C   UNL     1      12.899  12.596  13.328  0.00  0.00    +0.000 C 
ENDBRANCH   9  20
ENDBRANCH  12   8
BRANCH  21  29
ATOM     10  N   UNL     1       9.627   4.965   7.015  0.00  0.00    -0.346 N 
ATOM     29  C   UNL     1       9.492   6.048   7.844  0.00  0.00    +0.104 A 
ATOM     30  C   UNL     1       9.435   5.583   9.139  0.00  0.00    +0.032 A 
ATOM     31  C   UNL     1       9.658   3.816   7.762  0.00  0.00    +0.086 A 
ATOM     32  C   UNL     1       9.539   4.171   9.087  0.00  0.00    +0.020 A 
ATOM     33  C   UNL     1       9.726   5.008   5.572  0.00  0.00    +0.149 C 
ENDBRANCH  21  29
TORSDOF 6
ENDMDL
MODEL 8
REMARK VINA RESULT:      -5.9     27.662     30.375
REMARK  Name = 11865813
REMARK  8 active torsions:
REMARK  status: ('A' for Active; 'I' for Inactive)
REMARK    1  A    between atoms: O_3  and  C_28
REMARK    2  A    between atoms: O_3  and  C_34
REMARK    3  A    between atoms: N_8  and  C_12
REMARK    4  A    between atoms: N_9  and  C_20
REMARK    5  A    between atoms: N_10  and  C_33
REMARK    6  A    between atoms: C_11  and  C_15
REMARK    7  A    between atoms: C_16  and  C_28
REMARK    8  A    between atoms: C_21  and  C_29
REMARK                            x       y       z     vdW  Elec       q    Type
REMARK                         _______ _______ _______ _____ _____    ______ ____
ROOT
ATOM      2  O   UNL     1      17.035  -4.813  -2.418  0.00  0.00    -0.268 OA
ATOM      6  N   UNL     1      17.412  -6.924  -3.271  0.00  0.00    -0.283 N 
ATOM     11  C   UNL     1      18.506  -7.249  -2.360  0.00  0.00    +0.183 C 
ATOM     12  C   UNL     1      18.716  -8.756  -2.517  0.00  0.00    +0.105 C 
ATOM     13  C   UNL     1      18.256  -9.029  -3.951  0.00  0.00    +0.043 C 
ATOM     14  C   UNL     1      17.107  -8.050  -4.154  0.00  0.00    +0.111 C 
ATOM     21  C   UNL     1      16.713  -5.716  -3.192  0.00  0.00    +0.264 C 
ENDROOT
BRANCH  11  15
ATOM      1  O   UNL     1      19.910  -6.313  -4.041  0.00  0.00    -0.273 OA
ATOM      7  N   UNL     1      20.534  -5.981  -1.837  0.00  0.00    -0.286 N 
ATOM     15  C   UNL     1      19.711  -6.477  -2.836  0.00  0.00    +0.239 C 
ATOM     16  C   UNL     1      21.818  -5.353  -2.122  0.00  0.00    +0.185 C 
ATOM     17  C   UNL     1      20.338  -6.151  -0.400  0.00  0.00    +0.109 C 
ATOM     18  C   UNL     1      22.568  -5.386  -0.794  0.00  0.00    +0.035 C 
ATOM     19  C   UNL     1      21.451  -5.339   0.245  0.00  0.00    +0.021 C 
BRANCH  16  28
ATOM      5  O   UNL     1      20.714  -3.216  -2.035  0.00  0.00    -0.249 OA
ATOM     28  C   UNL     1      21.535  -3.950  -2.566  0.00  0.00    +0.328 C 
BRANCH  28   3
ATOM      3  O   UNL     1      22.327  -3.641  -3.633  0.00  0.00    -0.467 OA
ATOM     34  C   UNL     1      23.403  -2.738  -3.360  0.00  0.00    +0.280 C 
ENDBRANCH  28   3
ENDBRANCH  16  28
ENDBRANCH  11  15
BRANCH  12   8
ATOM      4  O   UNL     1      19.667 -10.684  -0.608  0.00  0.00    -0.253 OA
ATOM      8  N   UNL     1      17.919  -9.496  -1.567  0.00  0.00    -0.294 N 
ATOM      9  N   UNL     1      17.485 -10.987   0.127  0.00  0.00    -0.297 N 
ATOM     27  C   UNL     1      18.468 -10.414  -0.676  0.00  0.00    +0.300 C 
ATOM     35  H   UNL     1      16.910  -9.394  -1.594  0.00  0.00    +0.151 HD
ATOM     36  H   UNL     1      16.518 -10.746  -0.061  0.00  0.00    +0.151 HD
BRANCH   9  20
ATOM     20  C   UNL     1      17.771 -11.975   1.144  0.00  0.00    +0.074 C 
ATOM     22  C   UNL     1      17.414 -13.384   0.658  0.00  0.00    +0.022 C 
ATOM     23  C   UNL     1      17.050 -11.642   2.454  0.00  0.00    +0.022 C 
ATOM     24  C   UNL     1      15.905 -13.610   0.572  0.00  0.00    +0.002 C 
ATOM     25  C   UNL     1      15.541 -11.870   2.367  0.00  0.00    +0.002 C 
ATOM     26  C   UNL     1      15.212 -13.282   1.891  0.00  0.00    +0.000 C 
ENDBRANCH   9  20
ENDBRANCH  12   8
BRANCH  21  29
ATOM     10  N   UNL     1      15.682  -5.105  -5.391  0.00  0.00    -0.346 N 
ATOM     29  C   UNL     1      15.585  -5.558  -4.101  0.00  0.00    +0.104 A 
ATOM     30  C   UNL     1      14.257  -5.821  -3.845  0.00  0.00    +0.032 A 
ATOM     31  C   UNL     1      14.437  -5.076  -5.963  0.00  0.00    +0.086 A 
ATOM     32  C   UNL     1      13.531  -5.516  -5.023  0.00  0.00    +0.020 A 
ATOM     33  C   UNL     1      16.902  -4.715  -6.062  0.00  0.00    +0.149 C 
ENDBRANCH  21  29
TORSDOF 6
ENDMDL
MODEL 9
REMARK VINA RESULT:      -5.8     31.590     33.432
REMARK  Name = 11865813
REMARK  8 active torsions:
REMARK  status: ('A' for Active; 'I' for Inactive)
REMARK    1  A    between atoms: O_3  and  C_28
REMARK    2  A    between atoms: O_3  and  C_34
REMARK    3  A    between atoms: N_8  and  C_12
REMARK    4  A    between atoms: N_9  and  C_20
REMARK    5  A    between atoms: N_10  and  C_33
REMARK    6  A    between atoms: C_11  and  C_15
REMARK    7  A    between atoms: C_16  and  C_28
REMARK    8  A    between atoms: C_21  and  C_29
REMARK                            x       y       z     vdW  Elec       q    Type
REMARK                         _______ _______ _______ _____ _____    ______ ____
ROOT
ATOM      2  O   UNL     1      -9.013 -10.467   7.006  0.00  0.00    -0.268 OA
ATOM      6  N   UNL     1      -8.344  -8.438   7.878  0.00  0.00    -0.283 N 
ATOM     11  C   UNL     1      -9.245  -7.631   7.059  0.00  0.00    +0.183 C 
ATOM     12  C   UNL     1      -9.219  -6.241   7.697  0.00  0.00    +0.105 C 
ATOM     13  C   UNL     1      -7.831  -6.173   8.339  0.00  0.00    +0.043 C 
ATOM     14  C   UNL     1      -7.577  -7.601   8.802  0.00  0.00    +0.111 C 
ATOM     21  C   UNL     1      -8.336  -9.835   7.818  0.00  0.00    +0.264 C 
ENDROOT
BRANCH  11  15
ATOM      1  O   UNL     1      -7.462  -7.821   5.492  0.00  0.00    -0.273 OA
ATOM      7  N   UNL     1      -9.562  -7.338   4.650  0.00  0.00    -0.286 N 
ATOM     15  C   UNL     1      -8.662  -7.605   5.668  0.00  0.00    +0.239 C 
ATOM     16  C   UNL     1      -9.142  -7.119   3.271  0.00  0.00    +0.185 C 
ATOM     17  C   UNL     1     -10.990  -7.076   4.813  0.00  0.00    +0.109 C 
ATOM     18  C   UNL     1     -10.327  -6.423   2.611  0.00  0.00    +0.035 C 
ATOM     19  C   UNL     1     -11.527  -6.946   3.395  0.00  0.00    +0.021 C 
BRANCH  16  28
ATOM      5  O   UNL     1      -9.388  -9.505   3.071  0.00  0.00    -0.249 OA
ATOM     28  C   UNL     1      -8.882  -8.467   2.669  0.00  0.00    +0.328 C 
BRANCH  28   3
ATOM      3  O   UNL     1      -8.011  -8.341   1.628  0.00  0.00    -0.467 OA
ATOM     34  C   UNL     1      -8.518  -8.738   0.350  0.00  0.00    +0.280 C 
ENDBRANCH  28   3
ENDBRANCH  16  28
ENDBRANCH  11  15
BRANCH  12   8
ATOM      4  O   UNL     1     -10.427  -3.790   8.590  0.00  0.00    -0.253 OA
ATOM      8  N   UNL     1     -10.257  -6.102   8.690  0.00  0.00    -0.294 N 
ATOM      9  N   UNL     1     -11.770  -5.014  10.036  0.00  0.00    -0.297 N 
ATOM     27  C   UNL     1     -10.785  -4.869   9.062  0.00  0.00    +0.300 C 
ATOM     35  H   UNL     1     -10.569  -6.931   9.187  0.00  0.00    +0.151 HD
ATOM     36  H   UNL     1     -11.937  -5.944  10.407  0.00  0.00    +0.151 HD
BRANCH   9  20
ATOM     20  C   UNL     1     -12.489  -3.898  10.607  0.00  0.00    +0.074 C 
ATOM     22  C   UNL     1     -11.963  -3.561  12.007  0.00  0.00    +0.022 C 
ATOM     23  C   UNL     1     -13.997  -4.168  10.631  0.00  0.00    +0.022 C 
ATOM     24  C   UNL     1     -12.356  -4.610  13.048  0.00  0.00    +0.002 C 
ATOM     25  C   UNL     1     -14.387  -5.216  11.675  0.00  0.00    +0.002 C 
ATOM     26  C   UNL     1     -13.861  -4.854  13.061  0.00  0.00    +0.000 C 
ENDBRANCH   9  20
ENDBRANCH  12   8
BRANCH  21  29
ATOM     10  N   UNL     1      -6.123 -10.763   8.533  0.00  0.00    -0.346 N 
ATOM     29  C   UNL     1      -7.453 -10.520   8.753  0.00  0.00    +0.104 A 
ATOM     30  C   UNL     1      -7.777 -11.037   9.989  0.00  0.00    +0.032 A 
ATOM     31  C   UNL     1      -5.592 -11.424   9.610  0.00  0.00    +0.086 A 
ATOM     32  C   UNL     1      -6.600 -11.609  10.530  0.00  0.00    +0.020 A 
ATOM     33  C   UNL     1      -5.376 -10.383   7.353  0.00  0.00    +0.149 C 
ENDBRANCH  21  29
TORSDOF 6
ENDMDL
MODEL 10
REMARK VINA RESULT:      -5.7     11.730     15.067
REMARK  Name = 11865813
REMARK  8 active torsions:
REMARK  status: ('A' for Active; 'I' for Inactive)
REMARK    1  A    between atoms: O_3  and  C_28
REMARK    2  A    between atoms: O_3  and  C_34
REMARK    3  A    between atoms: N_8  and  C_12
REMARK    4  A    between atoms: N_9  and  C_20
REMARK    5  A    between atoms: N_10  and  C_33
REMARK    6  A    between atoms: C_11  and  C_15
REMARK    7  A    between atoms: C_16  and  C_28
REMARK    8  A    between atoms: C_21  and  C_29
REMARK                            x       y       z     vdW  Elec       q    Type
REMARK                         _______ _______ _______ _____ _____    ______ ____
ROOT
ATOM      2  O   UNL     1      14.496   6.923   6.635  0.00  0.00    -0.268 OA
ATOM      6  N   UNL     1      13.999   9.140   6.228  0.00  0.00    -0.283 N 
ATOM     11  C   UNL     1      12.686   9.107   6.865  0.00  0.00    +0.183 C 
ATOM     12  C   UNL     1      12.283  10.575   7.013  0.00  0.00    +0.105 C 
ATOM     13  C   UNL     1      13.015  11.261   5.857  0.00  0.00    +0.043 C 
ATOM     14  C   UNL     1      14.319  10.483   5.744  0.00  0.00    +0.111 C 
ATOM     21  C   UNL     1      14.843   8.025   6.206  0.00  0.00    +0.264 C 
ENDROOT
BRANCH  11  15
ATOM      1  O   UNL     1      12.076   8.224   4.739  0.00  0.00    -0.273 OA
ATOM      7  N   UNL     1      10.584   7.913   6.481  0.00  0.00    -0.286 N 
ATOM     15  C   UNL     1      11.762   8.380   5.921  0.00  0.00    +0.239 C 
ATOM     16  C   UNL     1       9.513   7.333   5.681  0.00  0.00    +0.185 C 
ATOM     17  C   UNL     1      10.172   8.076   7.873  0.00  0.00    +0.109 C 
ATOM     18  C   UNL     1       8.282   7.392   6.579  0.00  0.00    +0.035 C 
ATOM     19  C   UNL     1       8.866   7.304   7.986  0.00  0.00    +0.021 C 
BRANCH  16  28
ATOM      5  O   UNL     1      10.141   5.073   6.222  0.00  0.00    -0.249 OA
ATOM     28  C   UNL     1       9.909   5.920   5.372  0.00  0.00    +0.328 C 
BRANCH  28   3
ATOM      3  O   UNL     1       9.966   5.748   4.020  0.00  0.00    -0.467 OA
ATOM     34  C   UNL     1      10.700   4.602   3.577  0.00  0.00    +0.280 C 
ENDBRANCH  28   3
ENDBRANCH  16  28
ENDBRANCH  11  15
BRANCH  12   8
ATOM      4  O   UNL     1      10.600  11.268   9.239  0.00  0.00    -0.253 OA
ATOM      8  N   UNL     1      12.710  11.109   8.285  0.00  0.00    -0.294 N 
ATOM      9  N   UNL     1      12.488  11.914  10.427  0.00  0.00    -0.297 N 
ATOM     27  C   UNL     1      11.820  11.417   9.311  0.00  0.00    +0.300 C 
ATOM     35  H   UNL     1      13.692  11.332   8.415  0.00  0.00    +0.151 HD
ATOM     36  H   UNL     1      13.489  12.063  10.353  0.00  0.00    +0.151 HD
BRANCH   9  20
ATOM     20  C   UNL     1      11.812  12.315  11.640  0.00  0.00    +0.074 C 
ATOM     22  C   UNL     1      11.111  13.666  11.459  0.00  0.00    +0.022 C 
ATOM     23  C   UNL     1      12.781  12.347  12.826  0.00  0.00    +0.022 C 
ATOM     24  C   UNL     1      12.097  14.831  11.381  0.00  0.00    +0.002 C 
ATOM     25  C   UNL     1      13.765  13.515  12.746  0.00  0.00    +0.002 C 
ATOM     26  C   UNL     1      13.044  14.849  12.577  0.00  0.00    +0.000 C 
ENDBRANCH   9  20
ENDBRANCH  12   8
BRANCH  21  29
ATOM     10  N   UNL     1      16.476   7.963   4.309  0.00  0.00    -0.346 N 
ATOM     29  C   UNL     1      16.162   8.219   5.618  0.00  0.00    +0.104 A 
ATOM     30  C   UNL     1      17.301   8.678   6.243  0.00  0.00    +0.032 A 
ATOM     31  C   UNL     1      17.797   8.253   4.088  0.00  0.00    +0.086 A 
ATOM     32  C   UNL     1      18.335   8.698   5.275  0.00  0.00    +0.020 A 
ATOM     33  C   UNL     1      15.565   7.466   3.300  0.00  0.00    +0.149 C 
ENDBRANCH  21  29
TORSDOF 6
ENDMDL
