MODEL 1
REMARK VINA RESULT:      -6.7      0.000      0.000
REMARK  Name = 75536788
REMARK  7 active torsions:
REMARK  status: ('A' for Active; 'I' for Inactive)
REMARK    1  A    between atoms: O_2  and  C_10
REMARK    2  A    between atoms: N_4  and  C_8
REMARK    3  A    between atoms: N_4  and  C_9
REMARK    4  A    between atoms: N_5  and  C_18
REMARK    5  A    between atoms: N_6  and  C_17
REMARK    6  A    between atoms: C_11  and  C_17
REMARK    7  A    between atoms: C_19  and  C_20
REMARK                            x       y       z     vdW  Elec       q    Type
REMARK                         _______ _______ _______ _____ _____    ______ ____
ROOT
ATOM      1  O   UNL     1      13.256   6.832  20.750  0.00  0.00    -0.371 OA
ATOM      8  C   UNL     1      11.173   7.972  20.726  0.00  0.00    +0.111 C 
ATOM     10  C   UNL     1      11.888   8.219  19.410  0.00  0.00    +0.164 C 
ATOM     11  C   UNL     1      12.866   7.053  19.385  0.00  0.00    +0.165 C 
ATOM     14  C   UNL     1      12.319   7.507  21.609  0.00  0.00    +0.181 C 
ENDROOT
BRANCH  10   2
ATOM      2  O   UNL     1      11.013   8.197  18.300  0.00  0.00    -0.388 OA
ATOM     26  H   UNL     1      10.254   8.774  18.497  0.00  0.00    +0.210 HD
ENDBRANCH  10   2
BRANCH   8   4
ATOM      4  N   UNL     1      10.495   9.146  21.250  0.00  0.00    -0.306 NA
ATOM     25  H   UNL     1       9.714   8.868  21.841  0.00  0.00    +0.123 HD
BRANCH   4   9
ATOM      5  N   UNL     1      12.018  12.526  23.331  0.00  0.00    -0.305 NA
ATOM      9  C   UNL     1      11.421   9.983  22.011  0.00  0.00    +0.056 C 
ATOM     12  C   UNL     1      10.803  10.369  23.357  0.00  0.00    +0.034 C 
ATOM     13  C   UNL     1      11.792  11.245  21.225  0.00  0.00    +0.034 C 
ATOM     15  C   UNL     1      11.717  11.327  24.126  0.00  0.00    +0.085 C 
ATOM     16  C   UNL     1      12.674  12.174  22.064  0.00  0.00    +0.085 C 
ATOM     18  C   UNL     1      12.851  13.453  24.097  0.00  0.00    +0.104 C 
ENDBRANCH   4   9
ENDBRANCH   8   4
BRANCH  11  17
ATOM     17  C   UNL     1      14.098   7.320  18.537  0.00  0.00    +0.138 C 
BRANCH  17   6
ATOM      3  O   UNL     1      16.437   5.656  18.539  0.00  0.00    -0.270 OA
ATOM      6  N   UNL     1      15.266   7.487  19.351  0.00  0.00    -0.309 N 
ATOM     19  C   UNL     1      16.359   6.628  19.286  0.00  0.00    +0.244 C 
ATOM     27  H   UNL     1      15.239   8.231  20.040  0.00  0.00    +0.149 HD
BRANCH  19  20
ATOM      7  N   UNL     1      19.590   7.471  21.964  0.00  0.00    -0.263 NA
ATOM     20  C   UNL     1      17.481   6.922  20.214  0.00  0.00    +0.040 A 
ATOM     21  C   UNL     1      18.575   6.066  20.279  0.00  0.00    +0.033 A 
ATOM     22  C   UNL     1      17.441   8.052  21.023  0.00  0.00    +0.033 A 
ATOM     23  C   UNL     1      19.595   6.383  21.163  0.00  0.00    +0.111 A 
ATOM     24  C   UNL     1      18.510   8.280  21.874  0.00  0.00    +0.111 A 
ENDBRANCH  19  20
ENDBRANCH  17   6
ENDBRANCH  11  17
TORSDOF 6
ENDMDL
MODEL 2
REMARK VINA RESULT:      -6.6      1.493      7.498
REMARK  Name = 75536788
REMARK  7 active torsions:
REMARK  status: ('A' for Active; 'I' for Inactive)
REMARK    1  A    between atoms: O_2  and  C_10
REMARK    2  A    between atoms: N_4  and  C_8
REMARK    3  A    between atoms: N_4  and  C_9
REMARK    4  A    between atoms: N_5  and  C_18
REMARK    5  A    between atoms: N_6  and  C_17
REMARK    6  A    between atoms: C_11  and  C_17
REMARK    7  A    between atoms: C_19  and  C_20
REMARK                            x       y       z     vdW  Elec       q    Type
REMARK                         _______ _______ _______ _____ _____    ______ ____
ROOT
ATOM      1  O   UNL     1      13.279   8.715  18.589  0.00  0.00    -0.371 OA
ATOM      8  C   UNL     1      15.164   7.886  19.773  0.00  0.00    +0.111 C 
ATOM     10  C   UNL     1      13.904   7.543  20.546  0.00  0.00    +0.164 C 
ATOM     11  C   UNL     1      12.850   7.648  19.452  0.00  0.00    +0.165 C 
ATOM     14  C   UNL     1      14.664   8.993  18.859  0.00  0.00    +0.181 C 
ENDROOT
BRANCH  10   2
ATOM      2  O   UNL     1      13.946   6.249  21.115  0.00  0.00    -0.388 OA
ATOM     26  H   UNL     1      13.041   5.996  21.367  0.00  0.00    +0.210 HD
ENDBRANCH  10   2
BRANCH   8   4
ATOM      4  N   UNL     1      16.271   8.305  20.617  0.00  0.00    -0.306 NA
ATOM     25  H   UNL     1      15.921   8.668  21.502  0.00  0.00    +0.123 HD
BRANCH   4   9
ATOM      5  N   UNL     1      19.780   5.914  20.408  0.00  0.00    -0.305 NA
ATOM      9  C   UNL     1      17.186   7.192  20.862  0.00  0.00    +0.056 C 
ATOM     12  C   UNL     1      18.472   7.699  21.519  0.00  0.00    +0.034 C 
ATOM     13  C   UNL     1      17.519   6.458  19.560  0.00  0.00    +0.034 C 
ATOM     15  C   UNL     1      19.484   6.563  21.694  0.00  0.00    +0.085 C 
ATOM     16  C   UNL     1      18.562   5.363  19.798  0.00  0.00    +0.085 C 
ATOM     18  C   UNL     1      20.784   4.866  20.583  0.00  0.00    +0.104 C 
ENDBRANCH   4   9
ENDBRANCH   8   4
BRANCH  11  17
ATOM     17  C   UNL     1      11.460   7.946  19.984  0.00  0.00    +0.138 C 
BRANCH  17   6
ATOM      3  O   UNL     1      10.800   8.349  22.749  0.00  0.00    -0.270 OA
ATOM      6  N   UNL     1      11.425   9.198  20.683  0.00  0.00    -0.309 N 
ATOM     19  C   UNL     1      11.092   9.301  22.030  0.00  0.00    +0.244 C 
ATOM     27  H   UNL     1      11.590  10.033  20.129  0.00  0.00    +0.149 HD
BRANCH  19  20
ATOM      7  N   UNL     1      11.053  13.256  23.668  0.00  0.00    -0.263 NA
ATOM     20  C   UNL     1      11.077  10.672  22.599  0.00  0.00    +0.040 A 
ATOM     21  C   UNL     1      11.263  11.774  21.769  0.00  0.00    +0.033 A 
ATOM     22  C   UNL     1      10.879  10.862  23.962  0.00  0.00    +0.033 A 
ATOM     23  C   UNL     1      11.242  13.033  22.348  0.00  0.00    +0.111 A 
ATOM     24  C   UNL     1      10.876  12.162  24.443  0.00  0.00    +0.111 A 
ENDBRANCH  19  20
ENDBRANCH  17   6
ENDBRANCH  11  17
TORSDOF 6
ENDMDL
MODEL 3
REMARK VINA RESULT:      -6.5     25.916     28.089
REMARK  Name = 75536788
REMARK  7 active torsions:
REMARK  status: ('A' for Active; 'I' for Inactive)
REMARK    1  A    between atoms: O_2  and  C_10
REMARK    2  A    between atoms: N_4  and  C_8
REMARK    3  A    between atoms: N_4  and  C_9
REMARK    4  A    between atoms: N_5  and  C_18
REMARK    5  A    between atoms: N_6  and  C_17
REMARK    6  A    between atoms: C_11  and  C_17
REMARK    7  A    between atoms: C_19  and  C_20
REMARK                            x       y       z     vdW  Elec       q    Type
REMARK                         _______ _______ _______ _____ _____    ______ ____
ROOT
ATOM      1  O   UNL     1      -1.107 -11.427  15.219  0.00  0.00    -0.371 OA
ATOM      8  C   UNL     1      -3.267 -10.977  16.098  0.00  0.00    +0.111 C 
ATOM     10  C   UNL     1      -3.413 -11.687  14.765  0.00  0.00    +0.164 C 
ATOM     11  C   UNL     1      -2.045 -12.342  14.630  0.00  0.00    +0.165 C 
ATOM     14  C   UNL     1      -1.834 -10.476  16.017  0.00  0.00    +0.181 C 
ENDROOT
BRANCH  10   2
ATOM      2  O   UNL     1      -4.457 -12.641  14.766  0.00  0.00    -0.388 OA
ATOM     26  H   UNL     1      -4.728 -12.797  15.687  0.00  0.00    +0.210 HD
ENDBRANCH  10   2
BRANCH   8   4
ATOM      4  N   UNL     1      -4.230  -9.907  16.298  0.00  0.00    -0.306 NA
ATOM     25  H   UNL     1      -4.753  -9.739  15.440  0.00  0.00    +0.123 HD
BRANCH   4   9
ATOM      5  N   UNL     1      -6.858 -12.181  18.745  0.00  0.00    -0.305 NA
ATOM      9  C   UNL     1      -5.149 -10.232  17.386  0.00  0.00    +0.056 C 
ATOM     12  C   UNL     1      -4.576 -11.364  18.243  0.00  0.00    +0.034 C 
ATOM     13  C   UNL     1      -6.523 -10.634  16.843  0.00  0.00    +0.034 C 
ATOM     15  C   UNL     1      -5.568 -11.786  19.330  0.00  0.00    +0.085 C 
ATOM     16  C   UNL     1      -7.452 -11.080  17.974  0.00  0.00    +0.085 C 
ATOM     18  C   UNL     1      -7.778 -12.629  19.790  0.00  0.00    +0.104 C 
ENDBRANCH   4   9
ENDBRANCH   8   4
BRANCH  11  17
ATOM     17  C   UNL     1      -1.654 -12.623  13.190  0.00  0.00    +0.138 C 
BRANCH  17   6
ATOM      3  O   UNL     1      -1.418 -10.079  11.881  0.00  0.00    -0.270 OA
ATOM      6  N   UNL     1      -2.590 -12.043  12.272  0.00  0.00    -0.309 N 
ATOM     19  C   UNL     1      -2.394 -10.798  11.681  0.00  0.00    +0.244 C 
ATOM     27  H   UNL     1      -3.453 -12.554  12.116  0.00  0.00    +0.149 HD
BRANCH  19  20
ATOM      7  N   UNL     1      -5.495  -9.443   9.060  0.00  0.00    -0.263 NA
ATOM     20  C   UNL     1      -3.470 -10.326  10.773  0.00  0.00    +0.040 A 
ATOM     21  C   UNL     1      -4.683 -11.004  10.717  0.00  0.00    +0.033 A 
ATOM     22  C   UNL     1      -3.269  -9.207   9.973  0.00  0.00    +0.033 A 
ATOM     23  C   UNL     1      -5.654 -10.526   9.852  0.00  0.00    +0.111 A 
ATOM     24  C   UNL     1      -4.303  -8.810   9.140  0.00  0.00    +0.111 A 
ENDBRANCH  19  20
ENDBRANCH  17   6
ENDBRANCH  11  17
TORSDOF 6
ENDMDL
MODEL 4
REMARK VINA RESULT:      -6.5      1.541      6.705
REMARK  Name = 75536788
REMARK  7 active torsions:
REMARK  status: ('A' for Active; 'I' for Inactive)
REMARK    1  A    between atoms: O_2  and  C_10
REMARK    2  A    between atoms: N_4  and  C_8
REMARK    3  A    between atoms: N_4  and  C_9
REMARK    4  A    between atoms: N_5  and  C_18
REMARK    5  A    between atoms: N_6  and  C_17
REMARK    6  A    between atoms: C_11  and  C_17
REMARK    7  A    between atoms: C_19  and  C_20
REMARK                            x       y       z     vdW  Elec       q    Type
REMARK                         _______ _______ _______ _____ _____    ______ ____
ROOT
ATOM      1  O   UNL     1      14.064   7.377  18.211  0.00  0.00    -0.371 OA
ATOM      8  C   UNL     1      14.777   6.494  20.298  0.00  0.00    +0.111 C 
ATOM     10  C   UNL     1      13.378   7.062  20.452  0.00  0.00    +0.164 C 
ATOM     11  C   UNL     1      12.906   7.075  19.005  0.00  0.00    +0.165 C 
ATOM     14  C   UNL     1      15.238   7.173  19.019  0.00  0.00    +0.181 C 
ENDROOT
BRANCH  10   2
ATOM      2  O   UNL     1      12.550   6.260  21.271  0.00  0.00    -0.388 OA
ATOM     26  H   UNL     1      12.471   5.382  20.859  0.00  0.00    +0.210 HD
ENDBRANCH  10   2
BRANCH   8   4
ATOM      4  N   UNL     1      15.647   6.770  21.430  0.00  0.00    -0.306 NA
ATOM     25  H   UNL     1      15.854   5.909  21.933  0.00  0.00    +0.123 HD
BRANCH   4   9
ATOM      5  N   UNL     1      19.524   8.501  21.629  0.00  0.00    -0.305 NA
ATOM      9  C   UNL     1      16.889   7.400  20.988  0.00  0.00    +0.056 C 
ATOM     12  C   UNL     1      18.086   6.508  21.329  0.00  0.00    +0.034 C 
ATOM     13  C   UNL     1      17.065   8.778  21.633  0.00  0.00    +0.034 C 
ATOM     15  C   UNL     1      19.404   7.195  20.963  0.00  0.00    +0.085 C 
ATOM     16  C   UNL     1      18.416   9.391  21.257  0.00  0.00    +0.085 C 
ATOM     18  C   UNL     1      20.809   9.122  21.310  0.00  0.00    +0.104 C 
ENDBRANCH   4   9
ENDBRANCH   8   4
BRANCH  11  17
ATOM     17  C   UNL     1      11.818   8.101  18.738  0.00  0.00    +0.138 C 
BRANCH  17   6
ATOM      3  O   UNL     1      12.849  10.672  19.491  0.00  0.00    -0.270 OA
ATOM      6  N   UNL     1      11.494   8.839  19.924  0.00  0.00    -0.309 N 
ATOM     19  C   UNL     1      12.044  10.085  20.210  0.00  0.00    +0.244 C 
ATOM     27  H   UNL     1      10.887   8.380  20.595  0.00  0.00    +0.149 HD
BRANCH  19  20
ATOM      7  N   UNL     1      10.845  11.882  23.905  0.00  0.00    -0.263 NA
ATOM     20  C   UNL     1      11.626  10.708  21.491  0.00  0.00    +0.040 A 
ATOM     21  C   UNL     1      11.559  12.092  21.605  0.00  0.00    +0.033 A 
ATOM     22  C   UNL     1      11.304   9.910  22.584  0.00  0.00    +0.033 A 
ATOM     23  C   UNL     1      11.165  12.625  22.822  0.00  0.00    +0.111 A 
ATOM     24  C   UNL     1      10.923  10.540  23.758  0.00  0.00    +0.111 A 
ENDBRANCH  19  20
ENDBRANCH  17   6
ENDBRANCH  11  17
TORSDOF 6
ENDMDL
MODEL 5
REMARK VINA RESULT:      -6.5      3.130      6.965
REMARK  Name = 75536788
REMARK  7 active torsions:
REMARK  status: ('A' for Active; 'I' for Inactive)
REMARK    1  A    between atoms: O_2  and  C_10
REMARK    2  A    between atoms: N_4  and  C_8
REMARK    3  A    between atoms: N_4  and  C_9
REMARK    4  A    between atoms: N_5  and  C_18
REMARK    5  A    between atoms: N_6  and  C_17
REMARK    6  A    between atoms: C_11  and  C_17
REMARK    7  A    between atoms: C_19  and  C_20
REMARK                            x       y       z     vdW  Elec       q    Type
REMARK                         _______ _______ _______ _____ _____    ______ ____
ROOT
ATOM      1  O   UNL     1      11.312   6.712  20.688  0.00  0.00    -0.371 OA
ATOM      8  C   UNL     1      13.657   6.944  20.392  0.00  0.00    +0.111 C 
ATOM     10  C   UNL     1      13.172   8.007  21.361  0.00  0.00    +0.164 C 
ATOM     11  C   UNL     1      11.855   7.402  21.825  0.00  0.00    +0.165 C 
ATOM     14  C   UNL     1      12.358   6.540  19.715  0.00  0.00    +0.181 C 
ENDROOT
BRANCH  10   2
ATOM      2  O   UNL     1      14.066   8.214  22.437  0.00  0.00    -0.388 OA
ATOM     26  H   UNL     1      14.895   7.744  22.241  0.00  0.00    +0.210 HD
ENDBRANCH  10   2
BRANCH   8   4
ATOM      4  N   UNL     1      14.658   7.423  19.454  0.00  0.00    -0.306 NA
ATOM     25  H   UNL     1      15.087   6.639  18.965  0.00  0.00    +0.123 HD
BRANCH   4   9
ATOM      5  N   UNL     1      14.375  10.139  16.195  0.00  0.00    -0.305 NA
ATOM      9  C   UNL     1      14.065   8.347  18.489  0.00  0.00    +0.056 C 
ATOM     12  C   UNL     1      14.262   7.823  17.064  0.00  0.00    +0.034 C 
ATOM     13  C   UNL     1      14.678   9.745  18.620  0.00  0.00    +0.034 C 
ATOM     15  C   UNL     1      13.735   8.825  16.033  0.00  0.00    +0.085 C 
ATOM     16  C   UNL     1      14.137  10.684  17.539  0.00  0.00    +0.085 C 
ATOM     18  C   UNL     1      13.899  11.069  15.173  0.00  0.00    +0.104 C 
ENDBRANCH   4   9
ENDBRANCH   8   4
BRANCH  11  17
ATOM     17  C   UNL     1      10.860   8.437  22.321  0.00  0.00    +0.138 C 
BRANCH  17   6
ATOM      3  O   UNL     1      10.989  10.957  23.691  0.00  0.00    -0.270 OA
ATOM      6  N   UNL     1      11.106   9.721  21.731  0.00  0.00    -0.309 N 
ATOM     19  C   UNL     1      11.151  10.896  22.475  0.00  0.00    +0.244 C 
ATOM     27  H   UNL     1      11.180   9.751  20.719  0.00  0.00    +0.149 HD
BRANCH  19  20
ATOM      7  N   UNL     1      11.833  14.502  20.270  0.00  0.00    -0.263 NA
ATOM     20  C   UNL     1      11.389  12.147  21.711  0.00  0.00    +0.040 A 
ATOM     21  C   UNL     1      10.635  13.284  21.982  0.00  0.00    +0.033 A 
ATOM     22  C   UNL     1      12.364  12.186  20.720  0.00  0.00    +0.033 A 
ATOM     23  C   UNL     1      10.895  14.426  21.240  0.00  0.00    +0.111 A 
ATOM     24  C   UNL     1      12.545  13.376  20.034  0.00  0.00    +0.111 A 
ENDBRANCH  19  20
ENDBRANCH  17   6
ENDBRANCH  11  17
TORSDOF 6
ENDMDL
MODEL 6
REMARK VINA RESULT:      -6.4      3.096      6.731
REMARK  Name = 75536788
REMARK  7 active torsions:
REMARK  status: ('A' for Active; 'I' for Inactive)
REMARK    1  A    between atoms: O_2  and  C_10
REMARK    2  A    between atoms: N_4  and  C_8
REMARK    3  A    between atoms: N_4  and  C_9
REMARK    4  A    between atoms: N_5  and  C_18
REMARK    5  A    between atoms: N_6  and  C_17
REMARK    6  A    between atoms: C_11  and  C_17
REMARK    7  A    between atoms: C_19  and  C_20
REMARK                            x       y       z     vdW  Elec       q    Type
REMARK                         _______ _______ _______ _____ _____    ______ ____
ROOT
ATOM      1  O   UNL     1      11.340   6.621  20.675  0.00  0.00    -0.371 OA
ATOM      8  C   UNL     1      13.677   6.979  20.438  0.00  0.00    +0.111 C 
ATOM     10  C   UNL     1      13.092   8.081  21.302  0.00  0.00    +0.164 C 
ATOM     11  C   UNL     1      11.797   7.431  21.770  0.00  0.00    +0.165 C 
ATOM     14  C   UNL     1      12.431   6.440  19.753  0.00  0.00    +0.181 C 
ENDROOT
BRANCH  10   2
ATOM      2  O   UNL     1      13.930   8.429  22.386  0.00  0.00    -0.388 OA
ATOM     26  H   UNL     1      14.531   7.683  22.559  0.00  0.00    +0.210 HD
ENDBRANCH  10   2
BRANCH   8   4
ATOM      4  N   UNL     1      14.682   7.446  19.497  0.00  0.00    -0.306 NA
ATOM     25  H   UNL     1      15.096   6.657  19.003  0.00  0.00    +0.123 HD
BRANCH   4   9
ATOM      5  N   UNL     1      14.428  10.178  16.250  0.00  0.00    -0.305 NA
ATOM      9  C   UNL     1      14.100   8.384  18.540  0.00  0.00    +0.056 C 
ATOM     12  C   UNL     1      14.278   7.861  17.112  0.00  0.00    +0.034 C 
ATOM     13  C   UNL     1      14.738   9.770  18.672  0.00  0.00    +0.034 C 
ATOM     15  C   UNL     1      13.763   8.876  16.088  0.00  0.00    +0.085 C 
ATOM     16  C   UNL     1      14.208  10.722  17.597  0.00  0.00    +0.085 C 
ATOM     18  C   UNL     1      13.962  11.120  15.234  0.00  0.00    +0.104 C 
ENDBRANCH   4   9
ENDBRANCH   8   4
BRANCH  11  17
ATOM     17  C   UNL     1      10.724   8.437  22.148  0.00  0.00    +0.138 C 
BRANCH  17   6
ATOM      3  O   UNL     1      11.018  11.267  21.767  0.00  0.00    -0.270 OA
ATOM      6  N   UNL     1      11.210   9.384  23.108  0.00  0.00    -0.309 N 
ATOM     19  C   UNL     1      11.320  10.744  22.837  0.00  0.00    +0.244 C 
ATOM     27  H   UNL     1      11.542   9.008  23.991  0.00  0.00    +0.149 HD
BRANCH  19  20
ATOM      7  N   UNL     1      12.897  13.174  25.988  0.00  0.00    -0.263 NA
ATOM     20  C   UNL     1      11.866  11.589  23.929  0.00  0.00    +0.040 A 
ATOM     21  C   UNL     1      13.229  11.574  24.207  0.00  0.00    +0.033 A 
ATOM     22  C   UNL     1      11.019  12.395  24.680  0.00  0.00    +0.033 A 
ATOM     23  C   UNL     1      13.690  12.379  25.237  0.00  0.00    +0.111 A 
ATOM     24  C   UNL     1      11.578  13.162  25.690  0.00  0.00    +0.111 A 
ENDBRANCH  19  20
ENDBRANCH  17   6
ENDBRANCH  11  17
TORSDOF 6
ENDMDL
MODEL 7
REMARK VINA RESULT:      -6.3      1.735      6.951
REMARK  Name = 75536788
REMARK  7 active torsions:
REMARK  status: ('A' for Active; 'I' for Inactive)
REMARK    1  A    between atoms: O_2  and  C_10
REMARK    2  A    between atoms: N_4  and  C_8
REMARK    3  A    between atoms: N_4  and  C_9
REMARK    4  A    between atoms: N_5  and  C_18
REMARK    5  A    between atoms: N_6  and  C_17
REMARK    6  A    between atoms: C_11  and  C_17
REMARK    7  A    between atoms: C_19  and  C_20
REMARK                            x       y       z     vdW  Elec       q    Type
REMARK                         _______ _______ _______ _____ _____    ______ ____
ROOT
ATOM      1  O   UNL     1      11.731   6.784  20.280  0.00  0.00    -0.371 OA
ATOM      8  C   UNL     1      13.982   7.543  20.250  0.00  0.00    +0.111 C 
ATOM     10  C   UNL     1      13.242   8.229  21.384  0.00  0.00    +0.164 C 
ATOM     11  C   UNL     1      12.068   7.281  21.585  0.00  0.00    +0.165 C 
ATOM     14  C   UNL     1      12.827   7.058  19.388  0.00  0.00    +0.181 C 
ENDROOT
BRANCH  10   2
ATOM      2  O   UNL     1      14.028   8.352  22.553  0.00  0.00    -0.388 OA
ATOM     26  H   UNL     1      13.430   8.439  23.316  0.00  0.00    +0.210 HD
ENDBRANCH  10   2
BRANCH   8   4
ATOM      4  N   UNL     1      14.893   8.419  19.533  0.00  0.00    -0.306 NA
ATOM     25  H   UNL     1      14.728   9.390  19.795  0.00  0.00    +0.123 HD
BRANCH   4   9
ATOM      5  N   UNL     1      18.325   7.150  21.698  0.00  0.00    -0.305 NA
ATOM      9  C   UNL     1      16.283   8.059  19.808  0.00  0.00    +0.056 C 
ATOM     12  C   UNL     1      16.370   6.605  20.279  0.00  0.00    +0.034 C 
ATOM     13  C   UNL     1      16.891   8.987  20.864  0.00  0.00    +0.034 C 
ATOM     15  C   UNL     1      17.805   6.239  20.667  0.00  0.00    +0.085 C 
ATOM     16  C   UNL     1      18.309   8.544  21.233  0.00  0.00    +0.085 C 
ATOM     18  C   UNL     1      19.677   6.757  22.094  0.00  0.00    +0.104 C 
ENDBRANCH   4   9
ENDBRANCH   8   4
BRANCH  11  17
ATOM     17  C   UNL     1      10.856   7.951  22.208  0.00  0.00    +0.138 C 
BRANCH  17   6
ATOM      3  O   UNL     1      10.877  10.770  21.664  0.00  0.00    -0.270 OA
ATOM      6  N   UNL     1      11.244   8.995  23.112  0.00  0.00    -0.309 N 
ATOM     19  C   UNL     1      11.223  10.342  22.762  0.00  0.00    +0.244 C 
ATOM     27  H   UNL     1      11.606   8.704  24.015  0.00  0.00    +0.149 HD
BRANCH  19  20
ATOM      7  N   UNL     1      12.536  13.100  25.761  0.00  0.00    -0.263 NA
ATOM     20  C   UNL     1      11.679  11.297  23.804  0.00  0.00    +0.040 A 
ATOM     21  C   UNL     1      10.748  12.001  24.561  0.00  0.00    +0.033 A 
ATOM     22  C   UNL     1      13.037  11.494  24.024  0.00  0.00    +0.033 A 
ATOM     23  C   UNL     1      11.224  12.882  25.519  0.00  0.00    +0.111 A 
ATOM     24  C   UNL     1      13.411  12.399  25.005  0.00  0.00    +0.111 A 
ENDBRANCH  19  20
ENDBRANCH  17   6
ENDBRANCH  11  17
TORSDOF 6
ENDMDL
MODEL 8
REMARK VINA RESULT:      -6.3      1.859      7.855
REMARK  Name = 75536788
REMARK  7 active torsions:
REMARK  status: ('A' for Active; 'I' for Inactive)
REMARK    1  A    between atoms: O_2  and  C_10
REMARK    2  A    between atoms: N_4  and  C_8
REMARK    3  A    between atoms: N_4  and  C_9
REMARK    4  A    between atoms: N_5  and  C_18
REMARK    5  A    between atoms: N_6  and  C_17
REMARK    6  A    between atoms: C_11  and  C_17
REMARK    7  A    between atoms: C_19  and  C_20
REMARK                            x       y       z     vdW  Elec       q    Type
REMARK                         _______ _______ _______ _____ _____    ______ ____
ROOT
ATOM      1  O   UNL     1      16.146   6.019  19.097  0.00  0.00    -0.371 OA
ATOM      8  C   UNL     1      17.278   6.581  21.108  0.00  0.00    +0.111 C 
ATOM     10  C   UNL     1      15.891   7.197  21.131  0.00  0.00    +0.164 C 
ATOM     11  C   UNL     1      15.171   6.336  20.103  0.00  0.00    +0.165 C 
ATOM     14  C   UNL     1      17.456   6.295  19.626  0.00  0.00    +0.181 C 
ENDROOT
BRANCH  10   2
ATOM      2  O   UNL     1      15.280   7.120  22.404  0.00  0.00    -0.388 OA
ATOM     26  H   UNL     1      15.027   6.194  22.567  0.00  0.00    +0.210 HD
ENDBRANCH  10   2
BRANCH   8   4
ATOM      4  N   UNL     1      18.312   7.450  21.645  0.00  0.00    -0.306 NA
ATOM     25  H   UNL     1      17.901   8.139  22.274  0.00  0.00    +0.123 HD
BRANCH   4   9
ATOM      5  N   UNL     1      22.138   6.237  23.043  0.00  0.00    -0.305 NA
ATOM      9  C   UNL     1      19.328   6.673  22.351  0.00  0.00    +0.056 C 
ATOM     12  C   UNL     1      20.069   7.559  23.356  0.00  0.00    +0.034 C 
ATOM     13  C   UNL     1      20.325   6.053  21.368  0.00  0.00    +0.034 C 
ATOM     15  C   UNL     1      21.204   6.789  24.035  0.00  0.00    +0.085 C 
ATOM     16  C   UNL     1      21.452   5.331  22.112  0.00  0.00    +0.085 C 
ATOM     18  C   UNL     1      23.243   5.547  23.709  0.00  0.00    +0.104 C 
ENDBRANCH   4   9
ENDBRANCH   8   4
BRANCH  11  17
ATOM     17  C   UNL     1      13.983   7.033  19.463  0.00  0.00    +0.138 C 
BRANCH  17   6
ATOM      3  O   UNL     1      11.238   7.833  19.726  0.00  0.00    -0.270 OA
ATOM      6  N   UNL     1      13.471   8.073  20.308  0.00  0.00    -0.309 N 
ATOM     19  C   UNL     1      12.118   8.394  20.373  0.00  0.00    +0.244 C 
ATOM     27  H   UNL     1      14.154   8.623  20.818  0.00  0.00    +0.149 HD
BRANCH  19  20
ATOM      7  N   UNL     1      11.060  11.621  22.979  0.00  0.00    -0.263 NA
ATOM     20  C   UNL     1      11.753   9.514  21.277  0.00  0.00    +0.040 A 
ATOM     21  C   UNL     1      11.164   9.252  22.510  0.00  0.00    +0.033 A 
ATOM     22  C   UNL     1      11.995  10.829  20.896  0.00  0.00    +0.033 A 
ATOM     23  C   UNL     1      10.840  10.331  23.316  0.00  0.00    +0.111 A 
ATOM     24  C   UNL     1      11.633  11.837  21.774  0.00  0.00    +0.111 A 
ENDBRANCH  19  20
ENDBRANCH  17   6
ENDBRANCH  11  17
TORSDOF 6
ENDMDL
MODEL 9
REMARK VINA RESULT:      -6.1     26.211     28.648
REMARK  Name = 75536788
REMARK  7 active torsions:
REMARK  status: ('A' for Active; 'I' for Inactive)
REMARK    1  A    between atoms: O_2  and  C_10
REMARK    2  A    between atoms: N_4  and  C_8
REMARK    3  A    between atoms: N_4  and  C_9
REMARK    4  A    between atoms: N_5  and  C_18
REMARK    5  A    between atoms: N_6  and  C_17
REMARK    6  A    between atoms: C_11  and  C_17
REMARK    7  A    between atoms: C_19  and  C_20
REMARK                            x       y       z     vdW  Elec       q    Type
REMARK                         _______ _______ _______ _____ _____    ______ ____
ROOT
ATOM      1  O   UNL     1      -8.400 -11.265  18.792  0.00  0.00    -0.371 OA
ATOM      8  C   UNL     1      -9.145  -9.414  17.503  0.00  0.00    +0.111 C 
ATOM     10  C   UNL     1      -7.628  -9.468  17.463  0.00  0.00    +0.164 C 
ATOM     11  C   UNL     1      -7.376 -10.920  17.845  0.00  0.00    +0.165 C 
ATOM     14  C   UNL     1      -9.444 -10.278  18.717  0.00  0.00    +0.181 C 
ENDROOT
BRANCH  10   2
ATOM      2  O   UNL     1      -7.104  -9.159  16.187  0.00  0.00    -0.388 OA
ATOM     26  H   UNL     1      -7.434  -8.282  15.924  0.00  0.00    +0.210 HD
ENDBRANCH  10   2
BRANCH   8   4
ATOM      4  N   UNL     1      -9.678  -8.067  17.621  0.00  0.00    -0.306 NA
ATOM     25  H   UNL     1      -8.967  -7.438  17.992  0.00  0.00    +0.123 HD
BRANCH   4   9
ATOM      5  N   UNL     1     -12.359  -7.058  14.481  0.00  0.00    -0.305 NA
ATOM      9  C   UNL     1     -10.148  -7.580  16.326  0.00  0.00    +0.056 C 
ATOM     12  C   UNL     1     -11.114  -6.408  16.520  0.00  0.00    +0.034 C 
ATOM     13  C   UNL     1     -10.835  -8.698  15.536  0.00  0.00    +0.034 C 
ATOM     15  C   UNL     1     -11.695  -5.948  15.180  0.00  0.00    +0.085 C 
ATOM     16  C   UNL     1     -11.424  -8.163  14.228  0.00  0.00    +0.085 C 
ATOM     18  C   UNL     1     -12.951  -6.592  13.228  0.00  0.00    +0.104 C 
ENDBRANCH   4   9
ENDBRANCH   8   4
BRANCH  11  17
ATOM     17  C   UNL     1      -6.008 -11.149  18.462  0.00  0.00    +0.138 C 
BRANCH  17   6
ATOM      3  O   UNL     1      -4.916 -12.714  16.317  0.00  0.00    -0.270 OA
ATOM      6  N   UNL     1      -4.958 -10.759  17.566  0.00  0.00    -0.309 N 
ATOM     19  C   UNL     1      -4.489 -11.586  16.549  0.00  0.00    +0.244 C 
ATOM     27  H   UNL     1      -4.514  -9.864  17.746  0.00  0.00    +0.149 HD
BRANCH  19  20
ATOM      7  N   UNL     1      -1.293 -10.020  14.171  0.00  0.00    -0.263 NA
ATOM     20  C   UNL     1      -3.380 -11.044  15.723  0.00  0.00    +0.040 A 
ATOM     21  C   UNL     1      -2.187 -10.658  16.325  0.00  0.00    +0.033 A 
ATOM     22  C   UNL     1      -3.531 -10.918  14.347  0.00  0.00    +0.033 A 
ATOM     23  C   UNL     1      -1.183 -10.158  15.511  0.00  0.00    +0.111 A 
ATOM     24  C   UNL     1      -2.467 -10.405  13.622  0.00  0.00    +0.111 A 
ENDBRANCH  19  20
ENDBRANCH  17   6
ENDBRANCH  11  17
TORSDOF 6
ENDMDL
MODEL 10
REMARK VINA RESULT:      -6.1     26.588     28.630
REMARK  Name = 75536788
REMARK  7 active torsions:
REMARK  status: ('A' for Active; 'I' for Inactive)
REMARK    1  A    between atoms: O_2  and  C_10
REMARK    2  A    between atoms: N_4  and  C_8
REMARK    3  A    between atoms: N_4  and  C_9
REMARK    4  A    between atoms: N_5  and  C_18
REMARK    5  A    between atoms: N_6  and  C_17
REMARK    6  A    between atoms: C_11  and  C_17
REMARK    7  A    between atoms: C_19  and  C_20
REMARK                            x       y       z     vdW  Elec       q    Type
REMARK                         _______ _______ _______ _____ _____    ______ ____
ROOT
ATOM      1  O   UNL     1      -3.828 -10.369  14.033  0.00  0.00    -0.371 OA
ATOM      8  C   UNL     1      -3.293 -10.766  16.313  0.00  0.00    +0.111 C 
ATOM     10  C   UNL     1      -2.201 -11.355  15.439  0.00  0.00    +0.164 C 
ATOM     11  C   UNL     1      -2.411 -10.579  14.146  0.00  0.00    +0.165 C 
ATOM     14  C   UNL     1      -4.430 -10.619  15.316  0.00  0.00    +0.181 C 
ENDROOT
BRANCH  10   2
ATOM      2  O   UNL     1      -0.906 -11.154  15.971  0.00  0.00    -0.388 OA
ATOM     26  H   UNL     1      -0.255 -11.453  15.312  0.00  0.00    +0.210 HD
ENDBRANCH  10   2
BRANCH   8   4
ATOM      4  N   UNL     1      -3.642 -11.601  17.451  0.00  0.00    -0.306 NA
ATOM     25  H   UNL     1      -3.150 -11.285  18.285  0.00  0.00    +0.123 HD
BRANCH   4   9
ATOM      5  N   UNL     1      -7.366 -12.196  19.412  0.00  0.00    -0.305 NA
ATOM      9  C   UNL     1      -5.084 -11.581  17.686  0.00  0.00    +0.056 C 
ATOM     12  C   UNL     1      -5.405 -10.760  18.937  0.00  0.00    +0.034 C 
ATOM     13  C   UNL     1      -5.636 -13.002  17.837  0.00  0.00    +0.034 C 
ATOM     15  C   UNL     1      -6.902 -10.809  19.257  0.00  0.00    +0.085 C 
ATOM     16  C   UNL     1      -7.124 -12.977  18.192  0.00  0.00    +0.085 C 
ATOM     18  C   UNL     1      -8.785 -12.224  19.766  0.00  0.00    +0.104 C 
ENDBRANCH   4   9
ENDBRANCH   8   4
BRANCH  11  17
ATOM     17  C   UNL     1      -1.901 -11.311  12.917  0.00  0.00    +0.138 C 
BRANCH  17   6
ATOM      3  O   UNL     1      -3.323 -13.021  11.102  0.00  0.00    -0.270 OA
ATOM      6  N   UNL     1      -2.610 -10.907  11.737  0.00  0.00    -0.309 N 
ATOM     19  C   UNL     1      -3.274 -11.809  10.911  0.00  0.00    +0.244 C 
ATOM     27  H   UNL     1      -2.552  -9.926  11.484  0.00  0.00    +0.149 HD
BRANCH  19  20
ATOM      7  N   UNL     1      -5.195 -10.152   7.463  0.00  0.00    -0.263 NA
ATOM     20  C   UNL     1      -3.939 -11.235   9.714  0.00  0.00    +0.040 A 
ATOM     21  C   UNL     1      -4.147  -9.863   9.623  0.00  0.00    +0.033 A 
ATOM     22  C   UNL     1      -4.359 -12.066   8.682  0.00  0.00    +0.033 A 
ATOM     23  C   UNL     1      -4.773  -9.376   8.486  0.00  0.00    +0.111 A 
ATOM     24  C   UNL     1      -4.976 -11.481   7.588  0.00  0.00    +0.111 A 
ENDBRANCH  19  20
ENDBRANCH  17   6
ENDBRANCH  11  17
TORSDOF 6
ENDMDL
