MODEL 1
REMARK VINA RESULT:      -8.4      0.000      0.000
REMARK  Name = 7674727
REMARK  5 active torsions:
REMARK  status: ('A' for Active; 'I' for Inactive)
REMARK    1  A    between atoms: O_6  and  C_30
REMARK    2  A    between atoms: O_6  and  C_35
REMARK    3  A    between atoms: N_9  and  C_23
REMARK    4  A    between atoms: C_20  and  C_22
REMARK    5  A    between atoms: C_33  and  C_34
REMARK                            x       y       z     vdW  Elec       q    Type
REMARK                         _______ _______ _______ _____ _____    ______ ____
ROOT
ATOM      4  O   UNL     1      10.630   7.328   2.392  0.00  0.00    -0.267 OA
ATOM      5  O   UNL     1      13.330   6.240   7.401  0.00  0.00    -0.252 OA
ATOM      7  N   UNL     1      11.395   7.509   7.349  0.00  0.00    -0.284 N 
ATOM      8  N   UNL     1      10.001   6.783   4.570  0.00  0.00    -0.311 N 
ATOM      9  N   UNL     1      13.469   8.463   6.754  0.00  0.00    -0.269 N 
ATOM     10  C   UNL     1       9.371   8.553   6.305  0.00  0.00    +0.027 C 
ATOM     11  C   UNL     1       9.336   6.176   6.922  0.00  0.00    +0.054 C 
ATOM     12  C   UNL     1       8.507   7.458   6.915  0.00  0.00    +0.018 C 
ATOM     13  C   UNL     1      10.660   8.764   7.124  0.00  0.00    +0.114 C 
ATOM     14  C   UNL     1       9.674   8.187   4.847  0.00  0.00    +0.130 C 
ATOM     15  C   UNL     1      10.575   6.382   7.812  0.00  0.00    +0.119 C 
ATOM     16  C   UNL     1       9.769   5.787   5.521  0.00  0.00    +0.027 A 
ATOM     17  C   UNL     1       9.959   4.496   5.205  0.00  0.00    +0.022 A 
ATOM     18  C   UNL     1      10.451   6.482   3.269  0.00  0.00    +0.259 A 
ATOM     19  C   UNL     1      12.785   7.323   7.174  0.00  0.00    +0.306 C 
ATOM     20  C   UNL     1      10.695   5.029   2.958  0.00  0.00    +0.047 A 
ATOM     21  C   UNL     1      10.435   4.116   3.906  0.00  0.00    +0.015 A 
ATOM     36  H   UNL     1      13.091   9.370   7.006  0.00  0.00    +0.156 HD
ENDROOT
BRANCH   9  23
ATOM     23  C   UNL     1      14.691   8.514   6.039  0.00  0.00    +0.035 A 
ATOM     26  C   UNL     1      15.638   9.483   6.354  0.00  0.00    +0.023 A 
ATOM     27  C   UNL     1      14.936   7.594   5.022  0.00  0.00    +0.023 A 
ATOM     31  C   UNL     1      16.841   9.533   5.650  0.00  0.00    +0.005 A 
ATOM     32  C   UNL     1      16.139   7.644   4.318  0.00  0.00    +0.005 A 
ATOM     33  C   UNL     1      17.091   8.614   4.631  0.00  0.00    -0.050 A 
ATOM     34  C   UNL     1      18.377   8.668   3.876  0.00  0.00    +0.044 C 
ENDBRANCH   9  23
BRANCH  20  22
ATOM     22  C   UNL     1      11.219   4.607   1.648  0.00  0.00    -0.012 A 
ATOM     24  C   UNL     1      12.504   4.072   1.548  0.00  0.00    +0.012 A 
ATOM     25  C   UNL     1      10.430   4.742   0.504  0.00  0.00    +0.012 A 
ATOM     28  C   UNL     1      13.000   3.673   0.307  0.00  0.00    +0.046 A 
ATOM     29  C   UNL     1      10.927   4.343  -0.737  0.00  0.00    +0.046 A 
ATOM     30  C   UNL     1      12.211   3.808  -0.836  0.00  0.00    +0.130 A 
BRANCH  30   6
ATOM      6  O   UNL     1      12.696   3.420  -2.046  0.00  0.00    -0.406 OA
BRANCH   6  35
ATOM      1  F   UNL     1      12.825   1.969  -3.770  0.00  0.00    -0.133 F 
ATOM      2  F   UNL     1      12.028   1.239  -1.871  0.00  0.00    -0.133 F 
ATOM      3  F   UNL     1      10.842   2.622  -3.123  0.00  0.00    -0.133 F 
ATOM     35  C   UNL     1      12.083   2.310  -2.692  0.00  0.00    +0.575 C 
ENDBRANCH   6  35
ENDBRANCH  30   6
ENDBRANCH  20  22
TORSDOF 4
ENDMDL
MODEL 2
REMARK VINA RESULT:      -7.8      2.695      5.410
REMARK  Name = 7674727
REMARK  5 active torsions:
REMARK  status: ('A' for Active; 'I' for Inactive)
REMARK    1  A    between atoms: O_6  and  C_30
REMARK    2  A    between atoms: O_6  and  C_35
REMARK    3  A    between atoms: N_9  and  C_23
REMARK    4  A    between atoms: C_20  and  C_22
REMARK    5  A    between atoms: C_33  and  C_34
REMARK                            x       y       z     vdW  Elec       q    Type
REMARK                         _______ _______ _______ _____ _____    ______ ____
ROOT
ATOM      4  O   UNL     1       9.918   4.607   3.491  0.00  0.00    -0.267 OA
ATOM      5  O   UNL     1       9.615  10.283   4.606  0.00  0.00    -0.252 OA
ATOM      7  N   UNL     1       9.232   8.727   6.275  0.00  0.00    -0.284 N 
ATOM      8  N   UNL     1      10.575   6.029   5.218  0.00  0.00    -0.311 N 
ATOM      9  N   UNL     1       7.553   9.226   4.695  0.00  0.00    -0.269 N 
ATOM     10  C   UNL     1       9.132   6.437   7.290  0.00  0.00    +0.027 C 
ATOM     11  C   UNL     1      11.295   7.580   7.067  0.00  0.00    +0.054 C 
ATOM     12  C   UNL     1      10.454   6.706   7.995  0.00  0.00    +0.018 C 
ATOM     13  C   UNL     1       8.387   7.753   6.987  0.00  0.00    +0.114 C 
ATOM     14  C   UNL     1       9.409   5.631   6.016  0.00  0.00    +0.130 C 
ATOM     15  C   UNL     1      10.571   8.920   6.845  0.00  0.00    +0.119 C 
ATOM     16  C   UNL     1      11.538   6.900   5.734  0.00  0.00    +0.027 A 
ATOM     17  C   UNL     1      12.657   7.155   5.038  0.00  0.00    +0.022 A 
ATOM     18  C   UNL     1      10.726   5.408   3.963  0.00  0.00    +0.259 A 
ATOM     19  C   UNL     1       8.852   9.472   5.137  0.00  0.00    +0.306 C 
ATOM     20  C   UNL     1      11.971   5.747   3.187  0.00  0.00    +0.047 A 
ATOM     21  C   UNL     1      12.870   6.574   3.743  0.00  0.00    +0.015 A 
ATOM     36  H   UNL     1       6.864   8.924   5.375  0.00  0.00    +0.156 HD
ENDROOT
BRANCH   9  23
ATOM     23  C   UNL     1       7.048   9.396   3.382  0.00  0.00    +0.035 A 
ATOM     26  C   UNL     1       7.822   9.021   2.288  0.00  0.00    +0.023 A 
ATOM     27  C   UNL     1       5.779   9.940   3.194  0.00  0.00    +0.023 A 
ATOM     31  C   UNL     1       7.325   9.189   0.996  0.00  0.00    +0.005 A 
ATOM     32  C   UNL     1       5.282  10.108   1.902  0.00  0.00    +0.005 A 
ATOM     33  C   UNL     1       6.055   9.732   0.803  0.00  0.00    -0.050 A 
ATOM     34  C   UNL     1       5.523   9.914  -0.579  0.00  0.00    +0.044 C 
ENDBRANCH   9  23
BRANCH  20  22
ATOM     22  C   UNL     1      12.204   5.198   1.840  0.00  0.00    -0.012 A 
ATOM     24  C   UNL     1      11.812   5.921   0.713  0.00  0.00    +0.012 A 
ATOM     25  C   UNL     1      12.818   3.954   1.690  0.00  0.00    +0.012 A 
ATOM     28  C   UNL     1      12.032   5.401  -0.562  0.00  0.00    +0.046 A 
ATOM     29  C   UNL     1      13.038   3.434   0.415  0.00  0.00    +0.046 A 
ATOM     30  C   UNL     1      12.646   4.156  -0.711  0.00  0.00    +0.130 A 
BRANCH  30   6
ATOM      6  O   UNL     1      12.859   3.648  -1.955  0.00  0.00    -0.406 OA
BRANCH   6  35
ATOM      1  F   UNL     1      12.009   2.676  -3.807  0.00  0.00    -0.133 F 
ATOM      2  F   UNL     1      12.244   1.446  -2.016  0.00  0.00    -0.133 F 
ATOM      3  F   UNL     1      10.672   2.996  -2.108  0.00  0.00    -0.133 F 
ATOM     35  C   UNL     1      11.939   2.685  -2.456  0.00  0.00    +0.575 C 
ENDBRANCH   6  35
ENDBRANCH  30   6
ENDBRANCH  20  22
TORSDOF 4
ENDMDL
MODEL 3
REMARK VINA RESULT:      -7.7     27.558     30.774
REMARK  Name = 7674727
REMARK  5 active torsions:
REMARK  status: ('A' for Active; 'I' for Inactive)
REMARK    1  A    between atoms: O_6  and  C_30
REMARK    2  A    between atoms: O_6  and  C_35
REMARK    3  A    between atoms: N_9  and  C_23
REMARK    4  A    between atoms: C_20  and  C_22
REMARK    5  A    between atoms: C_33  and  C_34
REMARK                            x       y       z     vdW  Elec       q    Type
REMARK                         _______ _______ _______ _____ _____    ______ ____
ROOT
ATOM      4  O   UNL     1     -14.465   9.315  19.678  0.00  0.00    -0.267 OA
ATOM      5  O   UNL     1     -10.953   8.369  15.168  0.00  0.00    -0.252 OA
ATOM      7  N   UNL     1     -11.304  10.513  15.968  0.00  0.00    -0.284 N 
ATOM      8  N   UNL     1     -12.405  10.120  18.939  0.00  0.00    -0.311 N 
ATOM      9  N   UNL     1     -12.908   9.474  14.585  0.00  0.00    -0.269 N 
ATOM     10  C   UNL     1     -12.180  12.252  17.544  0.00  0.00    +0.027 C 
ATOM     11  C   UNL     1     -10.173  10.968  18.139  0.00  0.00    +0.054 C 
ATOM     12  C   UNL     1     -10.799  12.360  18.174  0.00  0.00    +0.018 C 
ATOM     13  C   UNL     1     -12.090  11.751  16.088  0.00  0.00    +0.114 C 
ATOM     14  C   UNL     1     -13.046  11.332  18.412  0.00  0.00    +0.130 C 
ATOM     15  C   UNL     1     -10.016  10.523  16.674  0.00  0.00    +0.119 C 
ATOM     16  C   UNL     1     -11.018   9.961  18.894  0.00  0.00    +0.027 A 
ATOM     17  C   UNL     1     -10.442   8.905  19.490  0.00  0.00    +0.022 A 
ATOM     18  C   UNL     1     -13.243   9.190  19.584  0.00  0.00    +0.259 A 
ATOM     19  C   UNL     1     -11.679   9.366  15.234  0.00  0.00    +0.306 C 
ATOM     20  C   UNL     1     -12.572   7.994  20.207  0.00  0.00    +0.047 A 
ATOM     21  C   UNL     1     -11.235   7.906  20.149  0.00  0.00    +0.015 A 
ATOM     36  H   UNL     1     -13.226  10.396  14.310  0.00  0.00    +0.156 HD
ENDROOT
BRANCH   9  23
ATOM     23  C   UNL     1     -13.774   8.417  14.209  0.00  0.00    +0.035 A 
ATOM     26  C   UNL     1     -13.634   7.820  12.960  0.00  0.00    +0.023 A 
ATOM     27  C   UNL     1     -14.761   7.983  15.090  0.00  0.00    +0.023 A 
ATOM     31  C   UNL     1     -14.486   6.780  12.589  0.00  0.00    +0.005 A 
ATOM     32  C   UNL     1     -15.613   6.943  14.719  0.00  0.00    +0.005 A 
ATOM     33  C   UNL     1     -15.476   6.342  13.468  0.00  0.00    -0.050 A 
ATOM     34  C   UNL     1     -16.388   5.230  13.072  0.00  0.00    +0.044 C 
ENDBRANCH   9  23
BRANCH  20  22
ATOM     22  C   UNL     1     -13.357   6.932  20.858  0.00  0.00    -0.012 A 
ATOM     24  C   UNL     1     -14.729   6.833  20.624  0.00  0.00    +0.012 A 
ATOM     25  C   UNL     1     -12.729   6.022  21.711  0.00  0.00    +0.012 A 
ATOM     28  C   UNL     1     -15.472   5.828  21.241  0.00  0.00    +0.046 A 
ATOM     29  C   UNL     1     -13.473   5.017  22.328  0.00  0.00    +0.046 A 
ATOM     30  C   UNL     1     -14.844   4.919  22.094  0.00  0.00    +0.130 A 
BRANCH  30   6
ATOM      6  O   UNL     1     -15.570   3.939  22.697  0.00  0.00    -0.406 OA
BRANCH   6  35
ATOM      1  F   UNL     1     -17.114   3.537  24.294  0.00  0.00    -0.133 F 
ATOM      2  F   UNL     1     -15.005   3.473  24.865  0.00  0.00    -0.133 F 
ATOM      3  F   UNL     1     -15.980   5.403  24.406  0.00  0.00    -0.133 F 
ATOM     35  C   UNL     1     -15.903   4.097  24.072  0.00  0.00    +0.575 C 
ENDBRANCH   6  35
ENDBRANCH  30   6
ENDBRANCH  20  22
TORSDOF 4
ENDMDL
MODEL 4
REMARK VINA RESULT:      -7.6     14.750     17.553
REMARK  Name = 7674727
REMARK  5 active torsions:
REMARK  status: ('A' for Active; 'I' for Inactive)
REMARK    1  A    between atoms: O_6  and  C_30
REMARK    2  A    between atoms: O_6  and  C_35
REMARK    3  A    between atoms: N_9  and  C_23
REMARK    4  A    between atoms: C_20  and  C_22
REMARK    5  A    between atoms: C_33  and  C_34
REMARK                            x       y       z     vdW  Elec       q    Type
REMARK                         _______ _______ _______ _____ _____    ______ ____
ROOT
ATOM      4  O   UNL     1      15.460   6.349  18.744  0.00  0.00    -0.267 OA
ATOM      5  O   UNL     1      14.218  11.976  19.343  0.00  0.00    -0.252 OA
ATOM      7  N   UNL     1      12.530  10.409  19.113  0.00  0.00    -0.284 N 
ATOM      8  N   UNL     1      13.877   7.620  19.892  0.00  0.00    -0.311 N 
ATOM      9  N   UNL     1      13.735  11.156  17.228  0.00  0.00    -0.269 N 
ATOM     10  C   UNL     1      11.552   8.108  18.944  0.00  0.00    +0.027 C 
ATOM     11  C   UNL     1      12.185   9.006  21.141  0.00  0.00    +0.054 C 
ATOM     12  C   UNL     1      11.122   8.197  20.402  0.00  0.00    +0.018 C 
ATOM     13  C   UNL     1      11.680   9.510  18.316  0.00  0.00    +0.114 C 
ATOM     14  C   UNL     1      12.868   7.325  18.867  0.00  0.00    +0.130 C 
ATOM     15  C   UNL     1      12.238  10.427  20.552  0.00  0.00    +0.119 C 
ATOM     16  C   UNL     1      13.551   8.354  21.034  0.00  0.00    +0.027 A 
ATOM     17  C   UNL     1      14.453   8.508  22.016  0.00  0.00    +0.022 A 
ATOM     18  C   UNL     1      15.147   7.035  19.718  0.00  0.00    +0.259 A 
ATOM     19  C   UNL     1      13.558  11.236  18.608  0.00  0.00    +0.306 C 
ATOM     20  C   UNL     1      16.151   7.261  20.817  0.00  0.00    +0.047 A 
ATOM     21  C   UNL     1      15.773   7.957  21.899  0.00  0.00    +0.015 A 
ATOM     36  H   UNL     1      12.935  10.908  16.655  0.00  0.00    +0.156 HD
ENDROOT
BRANCH   9  23
ATOM     23  C   UNL     1      14.917  11.434  16.498  0.00  0.00    +0.035 A 
ATOM     26  C   UNL     1      15.854  12.325  17.012  0.00  0.00    +0.023 A 
ATOM     27  C   UNL     1      15.133  10.815  15.269  0.00  0.00    +0.023 A 
ATOM     31  C   UNL     1      17.018  12.599  16.293  0.00  0.00    +0.005 A 
ATOM     32  C   UNL     1      16.297  11.089  14.551  0.00  0.00    +0.005 A 
ATOM     33  C   UNL     1      17.239  11.980  15.063  0.00  0.00    -0.050 A 
ATOM     34  C   UNL     1      18.483  12.274  14.293  0.00  0.00    +0.044 C 
ENDBRANCH   9  23
BRANCH  20  22
ATOM     22  C   UNL     1      17.525   6.741  20.713  0.00  0.00    -0.012 A 
ATOM     24  C   UNL     1      17.819   5.716  19.814  0.00  0.00    +0.012 A 
ATOM     25  C   UNL     1      18.536   7.274  21.515  0.00  0.00    +0.012 A 
ATOM     28  C   UNL     1      19.120   5.224  19.716  0.00  0.00    +0.046 A 
ATOM     29  C   UNL     1      19.837   6.782  21.417  0.00  0.00    +0.046 A 
ATOM     30  C   UNL     1      20.130   5.757  20.517  0.00  0.00    +0.130 A 
BRANCH  30   6
ATOM      6  O   UNL     1      21.399   5.276  20.422  0.00  0.00    -0.406 OA
BRANCH   6  35
ATOM      1  F   UNL     1      23.033   3.808  20.942  0.00  0.00    -0.133 F 
ATOM      2  F   UNL     1      21.567   4.301  22.485  0.00  0.00    -0.133 F 
ATOM      3  F   UNL     1      20.991   3.050  20.756  0.00  0.00    -0.133 F 
ATOM     35  C   UNL     1      21.732   4.105  21.159  0.00  0.00    +0.575 C 
ENDBRANCH   6  35
ENDBRANCH  30   6
ENDBRANCH  20  22
TORSDOF 4
ENDMDL
MODEL 5
REMARK VINA RESULT:      -7.4     26.281     29.086
REMARK  Name = 7674727
REMARK  5 active torsions:
REMARK  status: ('A' for Active; 'I' for Inactive)
REMARK    1  A    between atoms: O_6  and  C_30
REMARK    2  A    between atoms: O_6  and  C_35
REMARK    3  A    between atoms: N_9  and  C_23
REMARK    4  A    between atoms: C_20  and  C_22
REMARK    5  A    between atoms: C_33  and  C_34
REMARK                            x       y       z     vdW  Elec       q    Type
REMARK                         _______ _______ _______ _____ _____    ______ ____
ROOT
ATOM      4  O   UNL     1      -7.765  -8.921  17.008  0.00  0.00    -0.267 OA
ATOM      5  O   UNL     1      -5.224 -12.982  13.750  0.00  0.00    -0.252 OA
ATOM      7  N   UNL     1      -4.348 -12.398  15.811  0.00  0.00    -0.284 N 
ATOM      8  N   UNL     1      -6.757 -10.992  17.367  0.00  0.00    -0.311 N 
ATOM      9  N   UNL     1      -3.973 -11.036  13.922  0.00  0.00    -0.269 N 
ATOM     10  C   UNL     1      -4.297 -11.230  18.028  0.00  0.00    +0.027 C 
ATOM     11  C   UNL     1      -5.680 -13.238  17.739  0.00  0.00    +0.054 C 
ATOM     12  C   UNL     1      -4.740 -12.520  18.704  0.00  0.00    +0.018 C 
ATOM     13  C   UNL     1      -3.569 -11.520  16.700  0.00  0.00    +0.114 C 
ATOM     14  C   UNL     1      -5.525 -10.335  17.823  0.00  0.00    +0.130 C 
ATOM     15  C   UNL     1      -4.910 -13.592  16.454  0.00  0.00    +0.119 C 
ATOM     16  C   UNL     1      -6.885 -12.383  17.397  0.00  0.00    +0.027 A 
ATOM     17  C   UNL     1      -8.060 -12.957  17.094  0.00  0.00    +0.022 A 
ATOM     18  C   UNL     1      -7.828 -10.151  17.009  0.00  0.00    +0.259 A 
ATOM     19  C   UNL     1      -4.570 -12.188  14.432  0.00  0.00    +0.306 C 
ATOM     20  C   UNL     1      -9.121 -10.826  16.633  0.00  0.00    +0.047 A 
ATOM     21  C   UNL     1      -9.189 -12.164  16.701  0.00  0.00    +0.015 A 
ATOM     36  H   UNL     1      -3.133 -10.690  14.374  0.00  0.00    +0.156 HD
ENDROOT
BRANCH   9  23
ATOM     23  C   UNL     1      -4.377 -10.293  12.785  0.00  0.00    +0.035 A 
ATOM     26  C   UNL     1      -5.625  -9.677  12.769  0.00  0.00    +0.023 A 
ATOM     27  C   UNL     1      -3.523 -10.184  11.690  0.00  0.00    +0.023 A 
ATOM     31  C   UNL     1      -6.022  -8.946  11.650  0.00  0.00    +0.005 A 
ATOM     32  C   UNL     1      -3.921  -9.453  10.571  0.00  0.00    +0.005 A 
ATOM     33  C   UNL     1      -5.170  -8.833  10.551  0.00  0.00    -0.050 A 
ATOM     34  C   UNL     1      -5.596  -8.053   9.353  0.00  0.00    +0.044 C 
ENDBRANCH   9  23
BRANCH  20  22
ATOM     22  C   UNL     1     -10.288 -10.046  16.190  0.00  0.00    -0.012 A 
ATOM     24  C   UNL     1     -11.327  -9.775  17.080  0.00  0.00    +0.012 A 
ATOM     25  C   UNL     1     -10.357  -9.576  14.877  0.00  0.00    +0.012 A 
ATOM     28  C   UNL     1     -12.433  -9.037  16.660  0.00  0.00    +0.046 A 
ATOM     29  C   UNL     1     -11.463  -8.838  14.457  0.00  0.00    +0.046 A 
ATOM     30  C   UNL     1     -12.501  -8.568  15.348  0.00  0.00    +0.130 A 
BRANCH  30   6
ATOM      6  O   UNL     1     -13.580  -7.848  14.938  0.00  0.00    -0.406 OA
BRANCH   6  35
ATOM      1  F   UNL     1     -14.295  -5.750  14.510  0.00  0.00    -0.133 F 
ATOM      2  F   UNL     1     -14.606  -6.551  16.519  0.00  0.00    -0.133 F 
ATOM      3  F   UNL     1     -12.577  -6.000  15.837  0.00  0.00    -0.133 F 
ATOM     35  C   UNL     1     -13.758  -6.540  15.468  0.00  0.00    +0.575 C 
ENDBRANCH   6  35
ENDBRANCH  30   6
ENDBRANCH  20  22
TORSDOF 4
ENDMDL
MODEL 6
REMARK VINA RESULT:      -7.4      5.058      8.992
REMARK  Name = 7674727
REMARK  5 active torsions:
REMARK  status: ('A' for Active; 'I' for Inactive)
REMARK    1  A    between atoms: O_6  and  C_30
REMARK    2  A    between atoms: O_6  and  C_35
REMARK    3  A    between atoms: N_9  and  C_23
REMARK    4  A    between atoms: C_20  and  C_22
REMARK    5  A    between atoms: C_33  and  C_34
REMARK                            x       y       z     vdW  Elec       q    Type
REMARK                         _______ _______ _______ _____ _____    ______ ____
ROOT
ATOM      4  O   UNL     1      12.106   7.673   3.153  0.00  0.00    -0.267 OA
ATOM      5  O   UNL     1       9.169   5.694  -1.431  0.00  0.00    -0.252 OA
ATOM      7  N   UNL     1      11.363   6.397  -1.645  0.00  0.00    -0.284 N 
ATOM      8  N   UNL     1      12.554   6.307   1.317  0.00  0.00    -0.311 N 
ATOM      9  N   UNL     1       9.608   7.969  -1.543  0.00  0.00    -0.269 N 
ATOM     10  C   UNL     1      13.598   7.199  -0.841  0.00  0.00    +0.027 C 
ATOM     11  C   UNL     1      13.019   4.819  -0.661  0.00  0.00    +0.054 C 
ATOM     12  C   UNL     1      14.148   5.788  -1.002  0.00  0.00    +0.018 C 
ATOM     13  C   UNL     1      12.397   7.437  -1.779  0.00  0.00    +0.114 C 
ATOM     14  C   UNL     1      13.226   7.417   0.630  0.00  0.00    +0.130 C 
ATOM     15  C   UNL     1      11.865   5.017  -1.660  0.00  0.00    +0.119 C 
ATOM     16  C   UNL     1      12.515   5.029   0.754  0.00  0.00    +0.027 A 
ATOM     17  C   UNL     1      12.006   4.001   1.451  0.00  0.00    +0.022 A 
ATOM     18  C   UNL     1      12.056   6.569   2.608  0.00  0.00    +0.259 A 
ATOM     19  C   UNL     1       9.975   6.624  -1.523  0.00  0.00    +0.306 C 
ATOM     20  C   UNL     1      11.452   5.405   3.349  0.00  0.00    +0.047 A 
ATOM     21  C   UNL     1      11.462   4.197   2.764  0.00  0.00    +0.015 A 
ATOM     36  H   UNL     1      10.202   8.622  -2.042  0.00  0.00    +0.156 HD
ENDROOT
BRANCH   9  23
ATOM     23  C   UNL     1       8.446   8.548  -0.974  0.00  0.00    +0.035 A 
ATOM     26  C   UNL     1       7.302   8.708  -1.749  0.00  0.00    +0.023 A 
ATOM     27  C   UNL     1       8.458   8.956   0.358  0.00  0.00    +0.023 A 
ATOM     31  C   UNL     1       6.159   9.278  -1.190  0.00  0.00    +0.005 A 
ATOM     32  C   UNL     1       7.315   9.527   0.917  0.00  0.00    +0.005 A 
ATOM     33  C   UNL     1       6.165   9.688   0.144  0.00  0.00    -0.050 A 
ATOM     34  C   UNL     1       4.943  10.299   0.743  0.00  0.00    +0.044 C 
ENDBRANCH   9  23
BRANCH  20  22
ATOM     22  C   UNL     1      10.851   5.578   4.682  0.00  0.00    -0.012 A 
ATOM     24  C   UNL     1       9.551   5.134   4.926  0.00  0.00    +0.012 A 
ATOM     25  C   UNL     1      11.582   6.187   5.704  0.00  0.00    +0.012 A 
ATOM     28  C   UNL     1       8.982   5.298   6.188  0.00  0.00    +0.046 A 
ATOM     29  C   UNL     1      11.012   6.351   6.966  0.00  0.00    +0.046 A 
ATOM     30  C   UNL     1       9.713   5.907   7.209  0.00  0.00    +0.130 A 
BRANCH  30   6
ATOM      6  O   UNL     1       9.157   6.068   8.440  0.00  0.00    -0.406 OA
BRANCH   6  35
ATOM      1  F   UNL     1       8.289   5.006  10.233  0.00  0.00    -0.133 F 
ATOM      2  F   UNL     1       9.481   3.836   8.824  0.00  0.00    -0.133 F 
ATOM      3  F   UNL     1      10.453   5.302  10.163  0.00  0.00    -0.133 F 
ATOM     35  C   UNL     1       9.361   5.047   9.410  0.00  0.00    +0.575 C 
ENDBRANCH   6  35
ENDBRANCH  30   6
ENDBRANCH  20  22
TORSDOF 4
ENDMDL
MODEL 7
REMARK VINA RESULT:      -7.3     26.278     29.084
REMARK  Name = 7674727
REMARK  5 active torsions:
REMARK  status: ('A' for Active; 'I' for Inactive)
REMARK    1  A    between atoms: O_6  and  C_30
REMARK    2  A    between atoms: O_6  and  C_35
REMARK    3  A    between atoms: N_9  and  C_23
REMARK    4  A    between atoms: C_20  and  C_22
REMARK    5  A    between atoms: C_33  and  C_34
REMARK                            x       y       z     vdW  Elec       q    Type
REMARK                         _______ _______ _______ _____ _____    ______ ____
ROOT
ATOM      4  O   UNL     1      -8.513  -8.230  17.036  0.00  0.00    -0.267 OA
ATOM      5  O   UNL     1      -6.477 -12.942  14.352  0.00  0.00    -0.252 OA
ATOM      7  N   UNL     1      -5.826 -12.437  16.514  0.00  0.00    -0.284 N 
ATOM      8  N   UNL     1      -8.068 -10.445  17.611  0.00  0.00    -0.311 N 
ATOM      9  N   UNL     1      -4.861 -11.311  14.680  0.00  0.00    -0.269 N 
ATOM     10  C   UNL     1      -5.860 -11.174  18.678  0.00  0.00    +0.027 C 
ATOM     11  C   UNL     1      -7.599 -12.846  18.214  0.00  0.00    +0.054 C 
ATOM     12  C   UNL     1      -6.684 -12.292  19.303  0.00  0.00    +0.018 C 
ATOM     13  C   UNL     1      -5.017 -11.699  17.498  0.00  0.00    +0.114 C 
ATOM     14  C   UNL     1      -6.806 -10.047  18.249  0.00  0.00    +0.130 C 
ATOM     15  C   UNL     1      -6.737 -13.438  17.085  0.00  0.00    +0.119 C 
ATOM     16  C   UNL     1      -8.510 -11.770  17.655  0.00  0.00    +0.027 A 
ATOM     17  C   UNL     1      -9.722 -12.091  17.175  0.00  0.00    +0.022 A 
ATOM     18  C   UNL     1      -8.852  -9.414  17.059  0.00  0.00    +0.259 A 
ATOM     19  C   UNL     1      -5.776 -12.270  15.112  0.00  0.00    +0.306 C 
ATOM     20  C   UNL     1     -10.188  -9.812  16.490  0.00  0.00    +0.047 A 
ATOM     21  C   UNL     1     -10.567 -11.096  16.579  0.00  0.00    +0.015 A 
ATOM     36  H   UNL     1      -4.047 -11.129  15.256  0.00  0.00    +0.156 HD
ENDROOT
BRANCH   9  23
ATOM     23  C   UNL     1      -4.904 -10.569  13.473  0.00  0.00    +0.035 A 
ATOM     26  C   UNL     1      -3.840 -10.641  12.579  0.00  0.00    +0.023 A 
ATOM     27  C   UNL     1      -6.010  -9.772  13.190  0.00  0.00    +0.023 A 
ATOM     31  C   UNL     1      -3.882  -9.911  11.391  0.00  0.00    +0.005 A 
ATOM     32  C   UNL     1      -6.052  -9.042  12.002  0.00  0.00    +0.005 A 
ATOM     33  C   UNL     1      -4.988  -9.111  11.103  0.00  0.00    -0.050 A 
ATOM     34  C   UNL     1      -5.032  -8.329   9.833  0.00  0.00    +0.044 C 
ENDBRANCH   9  23
BRANCH  20  22
ATOM     22  C   UNL     1     -11.065  -8.825  15.838  0.00  0.00    -0.012 A 
ATOM     24  C   UNL     1     -11.190  -8.811  14.449  0.00  0.00    +0.012 A 
ATOM     25  C   UNL     1     -11.771  -7.901  16.610  0.00  0.00    +0.012 A 
ATOM     28  C   UNL     1     -12.020  -7.875  13.831  0.00  0.00    +0.046 A 
ATOM     29  C   UNL     1     -12.601  -6.965  15.993  0.00  0.00    +0.046 A 
ATOM     30  C   UNL     1     -12.726  -6.952  14.604  0.00  0.00    +0.130 A 
BRANCH  30   6
ATOM      6  O   UNL     1     -13.534  -6.038  14.001  0.00  0.00    -0.406 OA
BRANCH   6  35
ATOM      1  F   UNL     1     -13.644  -3.842  13.491  0.00  0.00    -0.133 F 
ATOM      2  F   UNL     1     -11.668  -4.746  13.722  0.00  0.00    -0.133 F 
ATOM      3  F   UNL     1     -12.913  -5.218  11.958  0.00  0.00    -0.133 F 
ATOM     35  C   UNL     1     -12.926  -4.970  13.285  0.00  0.00    +0.575 C 
ENDBRANCH   6  35
ENDBRANCH  30   6
ENDBRANCH  20  22
TORSDOF 4
ENDMDL
MODEL 8
REMARK VINA RESULT:      -7.2      5.171      9.510
REMARK  Name = 7674727
REMARK  5 active torsions:
REMARK  status: ('A' for Active; 'I' for Inactive)
REMARK    1  A    between atoms: O_6  and  C_30
REMARK    2  A    between atoms: O_6  and  C_35
REMARK    3  A    between atoms: N_9  and  C_23
REMARK    4  A    between atoms: C_20  and  C_22
REMARK    5  A    between atoms: C_33  and  C_34
REMARK                            x       y       z     vdW  Elec       q    Type
REMARK                         _______ _______ _______ _____ _____    ______ ____
ROOT
ATOM      4  O   UNL     1      11.880   7.216   1.489  0.00  0.00    -0.267 OA
ATOM      5  O   UNL     1       9.883   3.606  -2.577  0.00  0.00    -0.252 OA
ATOM      7  N   UNL     1      12.016   4.490  -2.723  0.00  0.00    -0.284 N 
ATOM      8  N   UNL     1      12.727   5.437   0.243  0.00  0.00    -0.311 N 
ATOM      9  N   UNL     1      10.140   5.782  -3.337  0.00  0.00    -0.269 N 
ATOM     10  C   UNL     1      14.020   5.775  -1.939  0.00  0.00    +0.027 C 
ATOM     11  C   UNL     1      13.622   3.502  -1.098  0.00  0.00    +0.054 C 
ATOM     12  C   UNL     1      14.705   4.463  -1.581  0.00  0.00    +0.018 C 
ATOM     13  C   UNL     1      12.966   5.567  -3.046  0.00  0.00    +0.114 C 
ATOM     14  C   UNL     1      13.403   6.370  -0.667  0.00  0.00    +0.130 C 
ATOM     15  C   UNL     1      12.629   3.244  -2.244  0.00  0.00    +0.119 C 
ATOM     16  C   UNL     1      12.885   4.055   0.107  0.00  0.00    +0.027 A 
ATOM     17  C   UNL     1      12.360   3.224   1.021  0.00  0.00    +0.022 A 
ATOM     18  C   UNL     1      12.010   6.004   1.314  0.00  0.00    +0.259 A 
ATOM     19  C   UNL     1      10.612   4.562  -2.854  0.00  0.00    +0.306 C 
ATOM     20  C   UNL     1      11.396   5.045   2.300  0.00  0.00    +0.047 A 
ATOM     21  C   UNL     1      11.600   3.730   2.128  0.00  0.00    +0.015 A 
ATOM     36  H   UNL     1      10.749   6.328  -3.938  0.00  0.00    +0.156 HD
ENDROOT
BRANCH   9  23
ATOM     23  C   UNL     1       8.859   6.350  -3.128  0.00  0.00    +0.035 A 
ATOM     26  C   UNL     1       8.707   7.403  -2.232  0.00  0.00    +0.023 A 
ATOM     27  C   UNL     1       7.759   5.849  -3.820  0.00  0.00    +0.023 A 
ATOM     31  C   UNL     1       7.446   7.962  -2.025  0.00  0.00    +0.005 A 
ATOM     32  C   UNL     1       6.498   6.408  -3.613  0.00  0.00    +0.005 A 
ATOM     33  C   UNL     1       6.342   7.464  -2.716  0.00  0.00    -0.050 A 
ATOM     34  C   UNL     1       4.992   8.060  -2.495  0.00  0.00    +0.044 C 
ENDBRANCH   9  23
BRANCH  20  22
ATOM     22  C   UNL     1      10.580   5.527   3.426  0.00  0.00    -0.012 A 
ATOM     24  C   UNL     1       9.836   6.700   3.299  0.00  0.00    +0.012 A 
ATOM     25  C   UNL     1      10.549   4.810   4.624  0.00  0.00    +0.012 A 
ATOM     28  C   UNL     1       9.063   7.157   4.365  0.00  0.00    +0.046 A 
ATOM     29  C   UNL     1       9.776   5.267   5.691  0.00  0.00    +0.046 A 
ATOM     30  C   UNL     1       9.033   6.440   5.562  0.00  0.00    +0.130 A 
BRANCH  30   6
ATOM      6  O   UNL     1       8.279   6.887   6.604  0.00  0.00    -0.406 OA
BRANCH   6  35
ATOM      1  F   UNL     1      10.283   7.280   7.566  0.00  0.00    -0.133 F 
ATOM      2  F   UNL     1       8.611   8.579   8.107  0.00  0.00    -0.133 F 
ATOM      3  F   UNL     1       8.679   6.488   8.821  0.00  0.00    -0.133 F 
ATOM     35  C   UNL     1       8.949   7.312   7.785  0.00  0.00    +0.575 C 
ENDBRANCH   6  35
ENDBRANCH  30   6
ENDBRANCH  20  22
TORSDOF 4
ENDMDL
MODEL 9
REMARK VINA RESULT:      -7.1     24.630     26.753
REMARK  Name = 7674727
REMARK  5 active torsions:
REMARK  status: ('A' for Active; 'I' for Inactive)
REMARK    1  A    between atoms: O_6  and  C_30
REMARK    2  A    between atoms: O_6  and  C_35
REMARK    3  A    between atoms: N_9  and  C_23
REMARK    4  A    between atoms: C_20  and  C_22
REMARK    5  A    between atoms: C_33  and  C_34
REMARK                            x       y       z     vdW  Elec       q    Type
REMARK                         _______ _______ _______ _____ _____    ______ ____
ROOT
ATOM      4  O   UNL     1      -6.420 -12.552  11.195  0.00  0.00    -0.267 OA
ATOM      5  O   UNL     1      -3.433 -10.299  15.617  0.00  0.00    -0.252 OA
ATOM      7  N   UNL     1      -3.120 -12.500  14.976  0.00  0.00    -0.284 N 
ATOM      8  N   UNL     1      -4.230 -12.659  11.986  0.00  0.00    -0.311 N 
ATOM      9  N   UNL     1      -4.987 -11.887  16.282  0.00  0.00    -0.269 N 
ATOM     10  C   UNL     1      -3.414 -14.527  13.532  0.00  0.00    +0.027 C 
ATOM     11  C   UNL     1      -1.863 -12.752  12.842  0.00  0.00    +0.054 C 
ATOM     12  C   UNL     1      -2.049 -14.266  12.909  0.00  0.00    +0.018 C 
ATOM     13  C   UNL     1      -3.504 -13.921  14.947  0.00  0.00    +0.114 C 
ATOM     14  C   UNL     1      -4.495 -13.966  12.601  0.00  0.00    +0.130 C 
ATOM     15  C   UNL     1      -1.873 -12.179  14.270  0.00  0.00    +0.119 C 
ATOM     16  C   UNL     1      -2.952 -12.095  12.017  0.00  0.00    +0.027 A 
ATOM     17  C   UNL     1      -2.701 -10.960  11.345  0.00  0.00    +0.022 A 
ATOM     18  C   UNL     1      -5.292 -12.065  11.276  0.00  0.00    +0.259 A 
ATOM     19  C   UNL     1      -3.831 -11.467  15.625  0.00  0.00    +0.306 C 
ATOM     20  C   UNL     1      -4.990 -10.771  10.568  0.00  0.00    +0.047 A 
ATOM     21  C   UNL     1      -3.739 -10.289  10.616  0.00  0.00    +0.015 A 
ATOM     36  H   UNL     1      -5.024 -12.841  16.624  0.00  0.00    +0.156 HD
ENDROOT
BRANCH   9  23
ATOM     23  C   UNL     1      -6.132 -11.110  16.583  0.00  0.00    +0.035 A 
ATOM     26  C   UNL     1      -6.874 -10.542  15.551  0.00  0.00    +0.023 A 
ATOM     27  C   UNL     1      -6.510 -10.918  17.909  0.00  0.00    +0.023 A 
ATOM     31  C   UNL     1      -8.002  -9.777  15.847  0.00  0.00    +0.005 A 
ATOM     32  C   UNL     1      -7.638 -10.153  18.205  0.00  0.00    +0.005 A 
ATOM     33  C   UNL     1      -8.384  -9.582  17.174  0.00  0.00    -0.050 A 
ATOM     34  C   UNL     1      -9.589  -8.763  17.491  0.00  0.00    +0.044 C 
ENDBRANCH   9  23
BRANCH  20  22
ATOM     22  C   UNL     1      -6.040 -10.037   9.842  0.00  0.00    -0.012 A 
ATOM     24  C   UNL     1      -6.071 -10.057   8.447  0.00  0.00    +0.012 A 
ATOM     25  C   UNL     1      -7.006  -9.318  10.549  0.00  0.00    +0.012 A 
ATOM     28  C   UNL     1      -7.064  -9.361   7.760  0.00  0.00    +0.046 A 
ATOM     29  C   UNL     1      -8.000  -8.622   9.861  0.00  0.00    +0.046 A 
ATOM     30  C   UNL     1      -8.030  -8.643   8.467  0.00  0.00    +0.130 A 
BRANCH  30   6
ATOM      6  O   UNL     1      -8.998  -7.963   7.796  0.00  0.00    -0.406 OA
BRANCH   6  35
ATOM      1  F   UNL     1      -9.739  -5.901   7.254  0.00  0.00    -0.133 F 
ATOM      2  F   UNL     1      -7.659  -6.111   7.889  0.00  0.00    -0.133 F 
ATOM      3  F   UNL     1      -8.307  -6.863   5.914  0.00  0.00    -0.133 F 
ATOM     35  C   UNL     1      -8.658  -6.712   7.208  0.00  0.00    +0.575 C 
ENDBRANCH   6  35
ENDBRANCH  30   6
ENDBRANCH  20  22
TORSDOF 4
ENDMDL
MODEL 10
REMARK VINA RESULT:      -7.1     34.465     37.153
REMARK  Name = 7674727
REMARK  5 active torsions:
REMARK  status: ('A' for Active; 'I' for Inactive)
REMARK    1  A    between atoms: O_6  and  C_30
REMARK    2  A    between atoms: O_6  and  C_35
REMARK    3  A    between atoms: N_9  and  C_23
REMARK    4  A    between atoms: C_20  and  C_22
REMARK    5  A    between atoms: C_33  and  C_34
REMARK                            x       y       z     vdW  Elec       q    Type
REMARK                         _______ _______ _______ _____ _____    ______ ____
ROOT
ATOM      4  O   UNL     1      -2.395  12.143  38.101  0.00  0.00    -0.267 OA
ATOM      5  O   UNL     1      -4.031  12.374  32.548  0.00  0.00    -0.252 OA
ATOM      7  N   UNL     1      -3.257  14.265  33.634  0.00  0.00    -0.284 N 
ATOM      8  N   UNL     1      -1.627  13.167  36.152  0.00  0.00    -0.311 N 
ATOM      9  N   UNL     1      -5.467  13.512  33.970  0.00  0.00    -0.269 N 
ATOM     10  C   UNL     1      -2.247  15.568  35.522  0.00  0.00    +0.027 C 
ATOM     11  C   UNL     1      -0.800  14.253  34.035  0.00  0.00    +0.054 C 
ATOM     12  C   UNL     1      -0.915  15.578  34.785  0.00  0.00    +0.018 C 
ATOM     13  C   UNL     1      -3.424  15.415  34.538  0.00  0.00    +0.114 C 
ATOM     14  C   UNL     1      -2.224  14.444  36.564  0.00  0.00    +0.130 C 
ATOM     15  C   UNL     1      -1.936  14.159  33.001  0.00  0.00    +0.119 C 
ATOM     16  C   UNL     1      -0.868  13.071  34.983  0.00  0.00    +0.027 A 
ATOM     17  C   UNL     1      -0.229  11.928  34.687  0.00  0.00    +0.022 A 
ATOM     18  C   UNL     1      -1.766  12.086  37.043  0.00  0.00    +0.259 A 
ATOM     19  C   UNL     1      -4.246  13.303  33.332  0.00  0.00    +0.306 C 
ATOM     20  C   UNL     1      -1.073  10.804  36.663  0.00  0.00    +0.047 A 
ATOM     21  C   UNL     1      -0.341  10.778  35.539  0.00  0.00    +0.015 A 
ATOM     36  H   UNL     1      -5.722  14.462  34.219  0.00  0.00    +0.156 HD
ENDROOT
BRANCH   9  23
ATOM     23  C   UNL     1      -6.450  12.540  34.281  0.00  0.00    +0.035 A 
ATOM     26  C   UNL     1      -6.364  11.825  35.472  0.00  0.00    +0.023 A 
ATOM     27  C   UNL     1      -7.496  12.304  33.392  0.00  0.00    +0.023 A 
ATOM     31  C   UNL     1      -7.331  10.868  35.778  0.00  0.00    +0.005 A 
ATOM     32  C   UNL     1      -8.463  11.347  33.698  0.00  0.00    +0.005 A 
ATOM     33  C   UNL     1      -8.380  10.629  34.891  0.00  0.00    -0.050 A 
ATOM     34  C   UNL     1      -9.414   9.604  35.217  0.00  0.00    +0.044 C 
ENDBRANCH   9  23
BRANCH  20  22
ATOM     22  C   UNL     1      -1.197   9.594  37.494  0.00  0.00    -0.012 A 
ATOM     24  C   UNL     1      -0.451   9.473  38.667  0.00  0.00    +0.012 A 
ATOM     25  C   UNL     1      -2.060   8.568  37.109  0.00  0.00    +0.012 A 
ATOM     28  C   UNL     1      -0.567   8.328  39.453  0.00  0.00    +0.046 A 
ATOM     29  C   UNL     1      -2.176   7.422  37.896  0.00  0.00    +0.046 A 
ATOM     30  C   UNL     1      -1.431   7.302  39.068  0.00  0.00    +0.130 A 
BRANCH  30   6
ATOM      6  O   UNL     1      -1.543   6.183  39.835  0.00  0.00    -0.406 OA
BRANCH   6  35
ATOM      1  F   UNL     1      -1.045   3.988  39.667  0.00  0.00    -0.133 F 
ATOM      2  F   UNL     1       0.292   5.422  38.700  0.00  0.00    -0.133 F 
ATOM      3  F   UNL     1       0.248   5.244  40.903  0.00  0.00    -0.133 F 
ATOM     35  C   UNL     1      -0.498   5.220  39.778  0.00  0.00    +0.575 C 
ENDBRANCH   6  35
ENDBRANCH  30   6
ENDBRANCH  20  22
TORSDOF 4
ENDMDL
