MODEL 1
REMARK VINA RESULT:      -6.2      0.000      0.000
REMARK  Name = 40587841
REMARK  7 active torsions:
REMARK  status: ('A' for Active; 'I' for Inactive)
REMARK    1  A    between atoms: N_5  and  C_17
REMARK    2  A    between atoms: N_6  and  C_18
REMARK    3  A    between atoms: C_7  and  C_13
REMARK    4  A    between atoms: C_8  and  C_12
REMARK    5  A    between atoms: C_12  and  C_14
REMARK    6  A    between atoms: C_13  and  C_16
REMARK    7  A    between atoms: C_17  and  C_19
REMARK                            x       y       z     vdW  Elec       q    Type
REMARK                         _______ _______ _______ _____ _____    ______ ____
ROOT
ATOM      1  O   UNL     1      -2.460 -10.475  13.884  0.00  0.00    -0.252 OA
ATOM      4  N   UNL     1      -4.090 -11.437  15.211  0.00  0.00    -0.285 N 
ATOM      6  N   UNL     1      -4.508 -11.005  12.930  0.00  0.00    -0.269 N 
ATOM      7  C   UNL     1      -5.336 -11.163  17.809  0.00  0.00    +0.004 C 
ATOM      8  C   UNL     1      -6.190 -11.260  16.516  0.00  0.00    +0.010 C 
ATOM      9  C   UNL     1      -3.926 -10.618  17.523  0.00  0.00    +0.023 C 
ATOM     10  C   UNL     1      -5.411 -12.039  15.443  0.00  0.00    +0.113 C 
ATOM     11  C   UNL     1      -3.240 -11.397  16.402  0.00  0.00    +0.109 C 
ATOM     15  C   UNL     1      -3.597 -10.944  13.984  0.00  0.00    +0.306 C 
ATOM     29  H   UNL     1      -5.206 -11.740  12.938  0.00  0.00    +0.156 HD
ENDROOT
BRANCH   6  18
ATOM     18  C   UNL     1      -4.592 -10.135  11.816  0.00  0.00    +0.035 A 
ATOM     20  C   UNL     1      -5.655  -9.237  11.711  0.00  0.00    +0.023 A 
ATOM     21  C   UNL     1      -3.613 -10.175  10.823  0.00  0.00    +0.023 A 
ATOM     23  C   UNL     1      -5.737  -8.380  10.613  0.00  0.00    +0.002 A 
ATOM     24  C   UNL     1      -3.697  -9.318   9.726  0.00  0.00    +0.002 A 
ATOM     25  C   UNL     1      -4.758  -8.420   9.621  0.00  0.00    +0.000 A 
ENDBRANCH   6  18
BRANCH   8  12
ATOM     12  C   UNL     1      -6.648  -9.904  15.968  0.00  0.00    +0.002 C 
ATOM     14  C   UNL     1      -8.090  -9.959  15.507  0.00  0.00    +0.004 C 
ENDBRANCH   8  12
BRANCH   7  13
ATOM     13  C   UNL     1      -6.013 -10.356  18.916  0.00  0.00    +0.099 C 
BRANCH  13  16
ATOM      2  O   UNL     1      -7.217 -12.135  20.030  0.00  0.00    -0.276 OA
ATOM      5  N   UNL     1      -8.387 -10.297  19.222  0.00  0.00    -0.308 N 
ATOM     16  C   UNL     1      -7.245 -11.047  19.458  0.00  0.00    +0.214 C 
ATOM     28  H   UNL     1      -8.301  -9.398  18.753  0.00  0.00    +0.149 HD
BRANCH   5  17
ATOM     17  C   UNL     1      -9.707 -10.718  19.630  0.00  0.00    +0.178 C 
BRANCH  17  19
ATOM      3  O   UNL     1     -12.066 -10.305  19.208  0.00  0.00    -0.466 OA
ATOM     19  C   UNL     1     -10.785 -10.015  18.857  0.00  0.00    +0.122 A 
ATOM     22  C   UNL     1     -10.761  -9.102  17.827  0.00  0.00    +0.046 A 
ATOM     26  C   UNL     1     -12.114  -8.814  17.526  0.00  0.00    +0.041 A 
ATOM     27  C   UNL     1     -12.868  -9.570  18.394  0.00  0.00    +0.195 A 
ENDBRANCH  17  19
ENDBRANCH   5  17
ENDBRANCH  13  16
ENDBRANCH   7  13
TORSDOF 6
ENDMDL
MODEL 2
REMARK VINA RESULT:      -6.2      1.671      2.246
REMARK  Name = 40587841
REMARK  7 active torsions:
REMARK  status: ('A' for Active; 'I' for Inactive)
REMARK    1  A    between atoms: N_5  and  C_17
REMARK    2  A    between atoms: N_6  and  C_18
REMARK    3  A    between atoms: C_7  and  C_13
REMARK    4  A    between atoms: C_8  and  C_12
REMARK    5  A    between atoms: C_12  and  C_14
REMARK    6  A    between atoms: C_13  and  C_16
REMARK    7  A    between atoms: C_17  and  C_19
REMARK                            x       y       z     vdW  Elec       q    Type
REMARK                         _______ _______ _______ _____ _____    ______ ____
ROOT
ATOM      1  O   UNL     1      -1.460 -10.466  12.068  0.00  0.00    -0.252 OA
ATOM      4  N   UNL     1      -2.573 -11.613  13.738  0.00  0.00    -0.285 N 
ATOM      6  N   UNL     1      -3.378 -11.653  11.522  0.00  0.00    -0.269 N 
ATOM      7  C   UNL     1      -3.509 -11.291  16.458  0.00  0.00    +0.004 C 
ATOM      8  C   UNL     1      -4.456 -11.801  15.339  0.00  0.00    +0.010 C 
ATOM      9  C   UNL     1      -2.357 -10.443  15.889  0.00  0.00    +0.023 C 
ATOM     10  C   UNL     1      -3.631 -12.499  14.245  0.00  0.00    +0.113 C 
ATOM     11  C   UNL     1      -1.626 -11.173  14.764  0.00  0.00    +0.109 C 
ATOM     15  C   UNL     1      -2.397 -11.196  12.401  0.00  0.00    +0.306 C 
ATOM     29  H   UNL     1      -3.834 -12.535  11.722  0.00  0.00    +0.156 HD
ENDROOT
BRANCH   6  18
ATOM     18  C   UNL     1      -3.844 -11.012  10.347  0.00  0.00    +0.035 A 
ATOM     20  C   UNL     1      -3.890  -9.619  10.285  0.00  0.00    +0.023 A 
ATOM     21  C   UNL     1      -4.257 -11.773   9.254  0.00  0.00    +0.023 A 
ATOM     23  C   UNL     1      -4.348  -8.988   9.127  0.00  0.00    +0.002 A 
ATOM     24  C   UNL     1      -4.716 -11.141   8.098  0.00  0.00    +0.002 A 
ATOM     25  C   UNL     1      -4.761  -9.749   8.034  0.00  0.00    +0.000 A 
ENDBRANCH   6  18
BRANCH   8  12
ATOM     12  C   UNL     1      -5.343 -10.711  14.727  0.00  0.00    +0.002 C 
ATOM     14  C   UNL     1      -6.811 -11.009  14.954  0.00  0.00    +0.004 C 
ENDBRANCH   8  12
BRANCH   7  13
ATOM     13  C   UNL     1      -4.241 -10.534  17.565  0.00  0.00    +0.099 C 
BRANCH  13  16
ATOM      2  O   UNL     1      -4.757 -12.551  18.797  0.00  0.00    -0.276 OA
ATOM      5  N   UNL     1      -6.350 -10.865  18.650  0.00  0.00    -0.308 N 
ATOM     16  C   UNL     1      -5.114 -11.444  18.401  0.00  0.00    +0.214 C 
ATOM     28  H   UNL     1      -6.542  -9.933  18.290  0.00  0.00    +0.149 HD
BRANCH   5  17
ATOM     17  C   UNL     1      -7.384 -11.513  19.423  0.00  0.00    +0.178 C 
BRANCH  17  19
ATOM      3  O   UNL     1      -9.582 -10.921  20.277  0.00  0.00    -0.466 OA
ATOM     19  C   UNL     1      -8.723 -10.862  19.226  0.00  0.00    +0.122 A 
ATOM     22  C   UNL     1      -9.296 -10.189  18.171  0.00  0.00    +0.046 A 
ATOM     26  C   UNL     1     -10.590  -9.812  18.602  0.00  0.00    +0.041 A 
ATOM     27  C   UNL     1     -10.716 -10.280  19.889  0.00  0.00    +0.195 A 
ENDBRANCH  17  19
ENDBRANCH   5  17
ENDBRANCH  13  16
ENDBRANCH   7  13
TORSDOF 6
ENDMDL
MODEL 3
REMARK VINA RESULT:      -6.1      2.402      8.635
REMARK  Name = 40587841
REMARK  7 active torsions:
REMARK  status: ('A' for Active; 'I' for Inactive)
REMARK    1  A    between atoms: N_5  and  C_17
REMARK    2  A    between atoms: N_6  and  C_18
REMARK    3  A    between atoms: C_7  and  C_13
REMARK    4  A    between atoms: C_8  and  C_12
REMARK    5  A    between atoms: C_12  and  C_14
REMARK    6  A    between atoms: C_13  and  C_16
REMARK    7  A    between atoms: C_17  and  C_19
REMARK                            x       y       z     vdW  Elec       q    Type
REMARK                         _______ _______ _______ _____ _____    ______ ____
ROOT
ATOM      1  O   UNL     1      -8.228 -14.132  17.111  0.00  0.00    -0.252 OA
ATOM      4  N   UNL     1      -6.088 -13.409  17.603  0.00  0.00    -0.285 N 
ATOM      6  N   UNL     1      -7.787 -13.305  19.235  0.00  0.00    -0.269 N 
ATOM      7  C   UNL     1      -3.936 -11.816  16.503  0.00  0.00    +0.004 C 
ATOM      8  C   UNL     1      -4.456 -11.574  17.945  0.00  0.00    +0.010 C 
ATOM      9  C   UNL     1      -5.010 -12.460  15.608  0.00  0.00    +0.023 C 
ATOM     10  C   UNL     1      -5.053 -12.877  18.502  0.00  0.00    +0.113 C 
ATOM     11  C   UNL     1      -5.604 -13.710  16.254  0.00  0.00    +0.109 C 
ATOM     15  C   UNL     1      -7.436 -13.661  17.932  0.00  0.00    +0.306 C 
ATOM     29  H   UNL     1      -7.074 -13.340  19.954  0.00  0.00    +0.156 HD
ENDROOT
BRANCH   6  18
ATOM     18  C   UNL     1      -9.057 -12.874  19.695  0.00  0.00    +0.035 A 
ATOM     20  C   UNL     1      -9.465 -11.558  19.482  0.00  0.00    +0.023 A 
ATOM     21  C   UNL     1      -9.896 -13.767  20.361  0.00  0.00    +0.023 A 
ATOM     23  C   UNL     1     -10.716 -11.135  19.935  0.00  0.00    +0.002 A 
ATOM     24  C   UNL     1     -11.145 -13.343  20.814  0.00  0.00    +0.002 A 
ATOM     25  C   UNL     1     -11.555 -12.027  20.601  0.00  0.00    +0.000 A 
ENDBRANCH   6  18
BRANCH   8  12
ATOM     12  C   UNL     1      -5.469 -10.429  18.059  0.00  0.00    +0.002 C 
ATOM     14  C   UNL     1      -6.024 -10.328  19.464  0.00  0.00    +0.004 C 
ENDBRANCH   8  12
BRANCH   7  13
ATOM     13  C   UNL     1      -3.372 -10.556  15.848  0.00  0.00    +0.099 C 
BRANCH  13  16
ATOM      2  O   UNL     1      -1.287 -11.430  14.986  0.00  0.00    -0.276 OA
ATOM      5  N   UNL     1      -2.807 -10.455  13.524  0.00  0.00    -0.308 N 
ATOM     16  C   UNL     1      -2.361 -10.874  14.768  0.00  0.00    +0.214 C 
ATOM     28  H   UNL     1      -3.722 -10.017  13.447  0.00  0.00    +0.149 HD
BRANCH   5  17
ATOM     17  C   UNL     1      -2.042 -10.628  12.311  0.00  0.00    +0.178 C 
BRANCH  17  19
ATOM      3  O   UNL     1      -3.538 -11.399  10.556  0.00  0.00    -0.466 OA
ATOM     19  C   UNL     1      -2.861 -10.346  11.085  0.00  0.00    +0.122 A 
ATOM     22  C   UNL     1      -3.087  -9.207  10.347  0.00  0.00    +0.046 A 
ATOM     26  C   UNL     1      -3.959  -9.585   9.298  0.00  0.00    +0.041 A 
ATOM     27  C   UNL     1      -4.203 -10.928   9.469  0.00  0.00    +0.195 A 
ENDBRANCH  17  19
ENDBRANCH   5  17
ENDBRANCH  13  16
ENDBRANCH   7  13
TORSDOF 6
ENDMDL
MODEL 4
REMARK VINA RESULT:      -6.1     24.957     28.577
REMARK  Name = 40587841
REMARK  7 active torsions:
REMARK  status: ('A' for Active; 'I' for Inactive)
REMARK    1  A    between atoms: N_5  and  C_17
REMARK    2  A    between atoms: N_6  and  C_18
REMARK    3  A    between atoms: C_7  and  C_13
REMARK    4  A    between atoms: C_8  and  C_12
REMARK    5  A    between atoms: C_12  and  C_14
REMARK    6  A    between atoms: C_13  and  C_16
REMARK    7  A    between atoms: C_17  and  C_19
REMARK                            x       y       z     vdW  Elec       q    Type
REMARK                         _______ _______ _______ _____ _____    ______ ____
ROOT
ATOM      1  O   UNL     1       8.390   7.571   8.093  0.00  0.00    -0.252 OA
ATOM      4  N   UNL     1      10.237   6.790   6.943  0.00  0.00    -0.285 N 
ATOM      6  N   UNL     1      10.257   8.938   7.918  0.00  0.00    -0.269 N 
ATOM      7  C   UNL     1      10.961   5.435   4.491  0.00  0.00    +0.004 C 
ATOM      8  C   UNL     1      11.657   6.756   4.913  0.00  0.00    +0.010 C 
ATOM      9  C   UNL     1       9.555   5.309   5.105  0.00  0.00    +0.023 C 
ATOM     10  C   UNL     1      11.616   6.894   6.444  0.00  0.00    +0.113 C 
ATOM     11  C   UNL     1       9.581   5.522   6.617  0.00  0.00    +0.109 C 
ATOM     15  C   UNL     1       9.543   7.760   7.697  0.00  0.00    +0.306 C 
ATOM     29  H   UNL     1      11.268   8.887   7.964  0.00  0.00    +0.156 HD
ENDROOT
BRANCH   6  18
ATOM     18  C   UNL     1       9.732  10.243   8.082  0.00  0.00    +0.035 A 
ATOM     20  C   UNL     1       9.407  10.708   9.356  0.00  0.00    +0.023 A 
ATOM     21  C   UNL     1       9.540  11.063   6.970  0.00  0.00    +0.023 A 
ATOM     23  C   UNL     1       8.889  11.995   9.518  0.00  0.00    +0.002 A 
ATOM     24  C   UNL     1       9.022  12.348   7.132  0.00  0.00    +0.002 A 
ATOM     25  C   UNL     1       8.697  12.814   8.406  0.00  0.00    +0.000 A 
ENDBRANCH   6  18
BRANCH   8  12
ATOM     12  C   UNL     1      11.077   8.008   4.246  0.00  0.00    +0.002 C 
ATOM     14  C   UNL     1      11.867   9.244   4.620  0.00  0.00    +0.004 C 
ENDBRANCH   8  12
BRANCH   7  13
ATOM     13  C   UNL     1      10.909   5.241   2.977  0.00  0.00    +0.099 C 
BRANCH  13  16
ATOM      2  O   UNL     1      11.349   2.916   2.467  0.00  0.00    -0.276 OA
ATOM      5  N   UNL     1      13.035   4.488   2.174  0.00  0.00    -0.308 N 
ATOM     16  C   UNL     1      11.758   4.074   2.518  0.00  0.00    +0.214 C 
ATOM     28  H   UNL     1      13.270   5.476   2.236  0.00  0.00    +0.149 HD
BRANCH   5  17
ATOM     17  C   UNL     1      14.059   3.583   1.703  0.00  0.00    +0.178 C 
BRANCH  17  19
ATOM      3  O   UNL     1      15.836   4.046   0.110  0.00  0.00    -0.466 OA
ATOM     19  C   UNL     1      14.498   3.910   0.305  0.00  0.00    +0.122 A 
ATOM     22  C   UNL     1      13.815   4.110  -0.872  0.00  0.00    +0.046 A 
ATOM     26  C   UNL     1      14.797   4.387  -1.854  0.00  0.00    +0.041 A 
ATOM     27  C   UNL     1      16.009   4.336  -1.206  0.00  0.00    +0.195 A 
ENDBRANCH  17  19
ENDBRANCH   5  17
ENDBRANCH  13  16
ENDBRANCH   7  13
TORSDOF 6
ENDMDL
MODEL 5
REMARK VINA RESULT:      -6.0      2.026      7.628
REMARK  Name = 40587841
REMARK  7 active torsions:
REMARK  status: ('A' for Active; 'I' for Inactive)
REMARK    1  A    between atoms: N_5  and  C_17
REMARK    2  A    between atoms: N_6  and  C_18
REMARK    3  A    between atoms: C_7  and  C_13
REMARK    4  A    between atoms: C_8  and  C_12
REMARK    5  A    between atoms: C_12  and  C_14
REMARK    6  A    between atoms: C_13  and  C_16
REMARK    7  A    between atoms: C_17  and  C_19
REMARK                            x       y       z     vdW  Elec       q    Type
REMARK                         _______ _______ _______ _____ _____    ______ ____
ROOT
ATOM      1  O   UNL     1      -8.567 -10.598  18.317  0.00  0.00    -0.252 OA
ATOM      4  N   UNL     1      -6.443 -10.277  17.463  0.00  0.00    -0.285 N 
ATOM      6  N   UNL     1      -8.192  -8.797  16.902  0.00  0.00    -0.269 N 
ATOM      7  C   UNL     1      -4.259 -11.731  16.242  0.00  0.00    +0.004 C 
ATOM      8  C   UNL     1      -4.823 -10.439  15.594  0.00  0.00    +0.010 C 
ATOM      9  C   UNL     1      -5.305 -12.430  17.129  0.00  0.00    +0.023 C 
ATOM     10  C   UNL     1      -5.436  -9.543  16.683  0.00  0.00    +0.113 C 
ATOM     11  C   UNL     1      -5.918 -11.464  18.141  0.00  0.00    +0.109 C 
ATOM     15  C   UNL     1      -7.801  -9.928  17.620  0.00  0.00    +0.306 C 
ATOM     29  H   UNL     1      -7.501  -8.079  16.719  0.00  0.00    +0.156 HD
ENDROOT
BRANCH   6  18
ATOM     18  C   UNL     1      -9.474  -8.520  16.368  0.00  0.00    +0.035 A 
ATOM     20  C   UNL     1     -10.369  -7.723  17.082  0.00  0.00    +0.023 A 
ATOM     21  C   UNL     1      -9.842  -9.044  15.129  0.00  0.00    +0.023 A 
ATOM     23  C   UNL     1     -11.632  -7.450  16.555  0.00  0.00    +0.002 A 
ATOM     24  C   UNL     1     -11.105  -8.771  14.603  0.00  0.00    +0.002 A 
ATOM     25  C   UNL     1     -12.000  -7.973  15.316  0.00  0.00    +0.000 A 
ENDBRANCH   6  18
BRANCH   8  12
ATOM     12  C   UNL     1      -5.839 -10.694  14.475  0.00  0.00    +0.002 C 
ATOM     14  C   UNL     1      -5.660  -9.710  13.338  0.00  0.00    +0.004 C 
ENDBRANCH   8  12
BRANCH   7  13
ATOM     13  C   UNL     1      -3.676 -12.709  15.223  0.00  0.00    +0.099 C 
BRANCH  13  16
ATOM      2  O   UNL     1      -1.452 -11.810  14.901  0.00  0.00    -0.276 OA
ATOM      5  N   UNL     1      -2.916 -11.905  13.099  0.00  0.00    -0.308 N 
ATOM     16  C   UNL     1      -2.547 -12.096  14.422  0.00  0.00    +0.214 C 
ATOM     28  H   UNL     1      -3.844 -12.192  12.796  0.00  0.00    +0.149 HD
BRANCH   5  17
ATOM     17  C   UNL     1      -2.034 -11.334  12.107  0.00  0.00    +0.178 C 
BRANCH  17  19
ATOM      3  O   UNL     1      -3.725 -11.281  10.361  0.00  0.00    -0.466 OA
ATOM     19  C   UNL     1      -2.790 -10.578  11.053  0.00  0.00    +0.122 A 
ATOM     22  C   UNL     1      -2.743  -9.275  10.613  0.00  0.00    +0.046 A 
ATOM     26  C   UNL     1      -3.710  -9.171   9.586  0.00  0.00    +0.041 A 
ATOM     27  C   UNL     1      -4.280 -10.418   9.471  0.00  0.00    +0.195 A 
ENDBRANCH  17  19
ENDBRANCH   5  17
ENDBRANCH  13  16
ENDBRANCH   7  13
TORSDOF 6
ENDMDL
MODEL 6
REMARK VINA RESULT:      -6.0     21.573     24.878
REMARK  Name = 40587841
REMARK  7 active torsions:
REMARK  status: ('A' for Active; 'I' for Inactive)
REMARK    1  A    between atoms: N_5  and  C_17
REMARK    2  A    between atoms: N_6  and  C_18
REMARK    3  A    between atoms: C_7  and  C_13
REMARK    4  A    between atoms: C_8  and  C_12
REMARK    5  A    between atoms: C_12  and  C_14
REMARK    6  A    between atoms: C_13  and  C_16
REMARK    7  A    between atoms: C_17  and  C_19
REMARK                            x       y       z     vdW  Elec       q    Type
REMARK                         _______ _______ _______ _____ _____    ______ ____
ROOT
ATOM      1  O   UNL     1     -15.256   9.612  28.994  0.00  0.00    -0.252 OA
ATOM      4  N   UNL     1     -14.636   9.636  31.221  0.00  0.00    -0.285 N 
ATOM      6  N   UNL     1     -13.319  10.736  29.603  0.00  0.00    -0.269 N 
ATOM      7  C   UNL     1     -14.377   7.884  33.510  0.00  0.00    +0.004 C 
ATOM      8  C   UNL     1     -13.210   8.810  33.072  0.00  0.00    +0.010 C 
ATOM      9  C   UNL     1     -15.316   7.554  32.336  0.00  0.00    +0.023 C 
ATOM     10  C   UNL     1     -13.776  10.040  32.343  0.00  0.00    +0.113 C 
ATOM     11  C   UNL     1     -15.784   8.819  31.619  0.00  0.00    +0.109 C 
ATOM     15  C   UNL     1     -14.463   9.982  29.864  0.00  0.00    +0.306 C 
ATOM     29  H   UNL     1     -12.966  11.346  30.331  0.00  0.00    +0.156 HD
ENDROOT
BRANCH   6  18
ATOM     18  C   UNL     1     -12.552  10.750  28.412  0.00  0.00    +0.035 A 
ATOM     20  C   UNL     1     -11.426   9.935  28.298  0.00  0.00    +0.023 A 
ATOM     21  C   UNL     1     -12.924  11.578  27.353  0.00  0.00    +0.023 A 
ATOM     23  C   UNL     1     -10.671   9.948  27.124  0.00  0.00    +0.002 A 
ATOM     24  C   UNL     1     -12.169  11.591  26.180  0.00  0.00    +0.002 A 
ATOM     25  C   UNL     1     -11.043  10.777  26.066  0.00  0.00    +0.000 A 
ENDBRANCH   6  18
BRANCH   8  12
ATOM     12  C   UNL     1     -12.152   8.114  32.209  0.00  0.00    +0.002 C 
ATOM     14  C   UNL     1     -10.991   9.040  31.914  0.00  0.00    +0.004 C 
ENDBRANCH   8  12
BRANCH   7  13
ATOM     13  C   UNL     1     -13.902   6.605  34.198  0.00  0.00    +0.099 C 
BRANCH  13  16
ATOM      2  O   UNL     1     -16.069   5.584  34.543  0.00  0.00    -0.276 OA
ATOM      5  N   UNL     1     -14.395   4.376  33.476  0.00  0.00    -0.308 N 
ATOM     16  C   UNL     1     -14.924   5.492  34.107  0.00  0.00    +0.214 C 
ATOM     28  H   UNL     1     -13.437   4.406  33.135  0.00  0.00    +0.149 HD
BRANCH   5  17
ATOM     17  C   UNL     1     -15.148   3.163  33.255  0.00  0.00    +0.178 C 
BRANCH  17  19
ATOM      3  O   UNL     1     -14.980   1.078  32.015  0.00  0.00    -0.466 OA
ATOM     19  C   UNL     1     -14.636   2.392  32.072  0.00  0.00    +0.122 A 
ATOM     22  C   UNL     1     -13.864   2.737  30.988  0.00  0.00    +0.046 A 
ATOM     26  C   UNL     1     -13.723   1.560  30.214  0.00  0.00    +0.041 A 
ATOM     27  C   UNL     1     -14.420   0.580  30.881  0.00  0.00    +0.195 A 
ENDBRANCH  17  19
ENDBRANCH   5  17
ENDBRANCH  13  16
ENDBRANCH   7  13
TORSDOF 6
ENDMDL
MODEL 7
REMARK VINA RESULT:      -5.9      3.439      6.151
REMARK  Name = 40587841
REMARK  7 active torsions:
REMARK  status: ('A' for Active; 'I' for Inactive)
REMARK    1  A    between atoms: N_5  and  C_17
REMARK    2  A    between atoms: N_6  and  C_18
REMARK    3  A    between atoms: C_7  and  C_13
REMARK    4  A    between atoms: C_8  and  C_12
REMARK    5  A    between atoms: C_12  and  C_14
REMARK    6  A    between atoms: C_13  and  C_16
REMARK    7  A    between atoms: C_17  and  C_19
REMARK                            x       y       z     vdW  Elec       q    Type
REMARK                         _______ _______ _______ _____ _____    ______ ____
ROOT
ATOM      1  O   UNL     1      -4.140 -14.285   8.876  0.00  0.00    -0.252 OA
ATOM      4  N   UNL     1      -4.513 -12.661  10.478  0.00  0.00    -0.285 N 
ATOM      6  N   UNL     1      -5.332 -12.384   8.284  0.00  0.00    -0.269 N 
ATOM      7  C   UNL     1      -3.144 -11.191  12.562  0.00  0.00    +0.004 C 
ATOM      8  C   UNL     1      -3.980 -10.457  11.480  0.00  0.00    +0.010 C 
ATOM      9  C   UNL     1      -2.639 -12.557  12.064  0.00  0.00    +0.023 C 
ATOM     10  C   UNL     1      -5.083 -11.394  10.958  0.00  0.00    +0.113 C 
ATOM     11  C   UNL     1      -3.776 -13.406  11.501  0.00  0.00    +0.109 C 
ATOM     15  C   UNL     1      -4.637 -13.197   9.179  0.00  0.00    +0.306 C 
ATOM     29  H   UNL     1      -6.048 -11.766   8.648  0.00  0.00    +0.156 HD
ENDROOT
BRANCH   6  18
ATOM     18  C   UNL     1      -5.151 -12.300   6.881  0.00  0.00    +0.035 A 
ATOM     20  C   UNL     1      -6.260 -12.226   6.039  0.00  0.00    +0.023 A 
ATOM     21  C   UNL     1      -3.865 -12.291   6.343  0.00  0.00    +0.023 A 
ATOM     23  C   UNL     1      -6.082 -12.143   4.657  0.00  0.00    +0.002 A 
ATOM     24  C   UNL     1      -3.687 -12.209   4.961  0.00  0.00    +0.002 A 
ATOM     25  C   UNL     1      -4.796 -12.134   4.119  0.00  0.00    +0.000 A 
ENDBRANCH   6  18
BRANCH   8  12
ATOM     12  C   UNL     1      -3.149  -9.908  10.315  0.00  0.00    +0.002 C 
ATOM     14  C   UNL     1      -3.978  -9.001   9.430  0.00  0.00    +0.004 C 
ENDBRANCH   8  12
BRANCH   7  13
ATOM     13  C   UNL     1      -1.987 -10.350  13.099  0.00  0.00    +0.099 C 
BRANCH  13  16
ATOM      2  O   UNL     1      -0.977 -10.015  15.272  0.00  0.00    -0.276 OA
ATOM      5  N   UNL     1      -3.225 -10.589  15.135  0.00  0.00    -0.308 N 
ATOM     16  C   UNL     1      -1.976 -10.291  14.612  0.00  0.00    +0.214 C 
ATOM     28  H   UNL     1      -3.994 -10.788  14.501  0.00  0.00    +0.149 HD
BRANCH   5  17
ATOM     17  C   UNL     1      -3.503 -10.609  16.553  0.00  0.00    +0.178 C 
BRANCH  17  19
ATOM      3  O   UNL     1      -5.408 -10.655  18.062  0.00  0.00    -0.466 OA
ATOM     19  C   UNL     1      -4.933 -10.265  16.850  0.00  0.00    +0.122 A 
ATOM     22  C   UNL     1      -5.912  -9.613  16.135  0.00  0.00    +0.046 A 
ATOM     26  C   UNL     1      -7.061  -9.603  16.961  0.00  0.00    +0.041 A 
ATOM     27  C   UNL     1      -6.703 -10.249  18.122  0.00  0.00    +0.195 A 
ENDBRANCH  17  19
ENDBRANCH   5  17
ENDBRANCH  13  16
ENDBRANCH   7  13
TORSDOF 6
ENDMDL
MODEL 8
REMARK VINA RESULT:      -5.9      1.409      8.168
REMARK  Name = 40587841
REMARK  7 active torsions:
REMARK  status: ('A' for Active; 'I' for Inactive)
REMARK    1  A    between atoms: N_5  and  C_17
REMARK    2  A    between atoms: N_6  and  C_18
REMARK    3  A    between atoms: C_7  and  C_13
REMARK    4  A    between atoms: C_8  and  C_12
REMARK    5  A    between atoms: C_12  and  C_14
REMARK    6  A    between atoms: C_13  and  C_16
REMARK    7  A    between atoms: C_17  and  C_19
REMARK                            x       y       z     vdW  Elec       q    Type
REMARK                         _______ _______ _______ _____ _____    ______ ____
ROOT
ATOM      1  O   UNL     1      -9.292 -11.973  20.121  0.00  0.00    -0.252 OA
ATOM      4  N   UNL     1      -7.432 -11.005  19.148  0.00  0.00    -0.285 N 
ATOM      6  N   UNL     1      -9.524  -9.917  19.069  0.00  0.00    -0.269 N 
ATOM      7  C   UNL     1      -5.177 -11.652  17.454  0.00  0.00    +0.004 C 
ATOM      8  C   UNL     1      -6.096 -10.442  17.138  0.00  0.00    +0.010 C 
ATOM      9  C   UNL     1      -5.909 -12.726  18.278  0.00  0.00    +0.023 C 
ATOM     10  C   UNL     1      -6.731  -9.924  18.439  0.00  0.00    +0.113 C 
ATOM     11  C   UNL     1      -6.570 -12.128  19.518  0.00  0.00    +0.109 C 
ATOM     15  C   UNL     1      -8.798 -11.027  19.503  0.00  0.00    +0.306 C 
ATOM     29  H   UNL     1      -9.040  -9.033  18.969  0.00  0.00    +0.156 HD
ENDROOT
BRANCH   6  18
ATOM     18  C   UNL     1     -10.898  -9.870  18.728  0.00  0.00    +0.035 A 
ATOM     20  C   UNL     1     -11.866  -9.895  19.731  0.00  0.00    +0.023 A 
ATOM     21  C   UNL     1     -11.283  -9.799  17.389  0.00  0.00    +0.023 A 
ATOM     23  C   UNL     1     -13.220  -9.848  19.395  0.00  0.00    +0.002 A 
ATOM     24  C   UNL     1     -12.636  -9.753  17.054  0.00  0.00    +0.002 A 
ATOM     25  C   UNL     1     -13.605  -9.777  18.056  0.00  0.00    +0.000 A 
ENDBRANCH   6  18
BRANCH   8  12
ATOM     12  C   UNL     1      -7.179 -10.737  16.093  0.00  0.00    +0.002 C 
ATOM     14  C   UNL     1      -8.018  -9.508  15.813  0.00  0.00    +0.004 C 
ENDBRANCH   8  12
BRANCH   7  13
ATOM     13  C   UNL     1      -4.544 -12.267  16.207  0.00  0.00    +0.099 C 
BRANCH  13  16
ATOM      2  O   UNL     1      -2.566 -10.885  16.397  0.00  0.00    -0.276 OA
ATOM      5  N   UNL     1      -3.418 -11.375  14.291  0.00  0.00    -0.308 N 
ATOM     16  C   UNL     1      -3.397 -11.433  15.676  0.00  0.00    +0.214 C 
ATOM     28  H   UNL     1      -4.142 -11.879  13.784  0.00  0.00    +0.149 HD
BRANCH   5  17
ATOM     17  C   UNL     1      -2.441 -10.645  13.516  0.00  0.00    +0.178 C 
BRANCH  17  19
ATOM      3  O   UNL     1      -4.352 -10.041  12.140  0.00  0.00    -0.466 OA
ATOM     19  C   UNL     1      -3.001 -10.176  12.205  0.00  0.00    +0.122 A 
ATOM     22  C   UNL     1      -2.424  -9.837  11.003  0.00  0.00    +0.046 A 
ATOM     26  C   UNL     1      -3.489  -9.472  10.144  0.00  0.00    +0.041 A 
ATOM     27  C   UNL     1      -4.640  -9.613  10.883  0.00  0.00    +0.195 A 
ENDBRANCH  17  19
ENDBRANCH   5  17
ENDBRANCH  13  16
ENDBRANCH   7  13
TORSDOF 6
ENDMDL
MODEL 9
REMARK VINA RESULT:      -5.9      1.647      8.239
REMARK  Name = 40587841
REMARK  7 active torsions:
REMARK  status: ('A' for Active; 'I' for Inactive)
REMARK    1  A    between atoms: N_5  and  C_17
REMARK    2  A    between atoms: N_6  and  C_18
REMARK    3  A    between atoms: C_7  and  C_13
REMARK    4  A    between atoms: C_8  and  C_12
REMARK    5  A    between atoms: C_12  and  C_14
REMARK    6  A    between atoms: C_13  and  C_16
REMARK    7  A    between atoms: C_17  and  C_19
REMARK                            x       y       z     vdW  Elec       q    Type
REMARK                         _______ _______ _______ _____ _____    ______ ____
ROOT
ATOM      1  O   UNL     1      -7.719 -11.313  19.929  0.00  0.00    -0.252 OA
ATOM      4  N   UNL     1      -6.344 -10.386  18.318  0.00  0.00    -0.285 N 
ATOM      6  N   UNL     1      -8.662  -9.949  18.305  0.00  0.00    -0.269 N 
ATOM      7  C   UNL     1      -4.184 -11.083  16.523  0.00  0.00    +0.004 C 
ATOM      8  C   UNL     1      -5.451 -10.349  16.007  0.00  0.00    +0.010 C 
ATOM      9  C   UNL     1      -4.473 -11.892  17.800  0.00  0.00    +0.023 C 
ATOM     10  C   UNL     1      -6.075  -9.533  17.151  0.00  0.00    +0.113 C 
ATOM     11  C   UNL     1      -5.152 -11.035  18.866  0.00  0.00    +0.109 C 
ATOM     15  C   UNL     1      -7.597 -10.593  18.934  0.00  0.00    +0.306 C 
ATOM     29  H   UNL     1      -8.478  -9.085  17.808  0.00  0.00    +0.156 HD
ENDROOT
BRANCH   6  18
ATOM     18  C   UNL     1     -10.015 -10.367  18.262  0.00  0.00    +0.035 A 
ATOM     20  C   UNL     1     -10.344 -11.600  17.700  0.00  0.00    +0.023 A 
ATOM     21  C   UNL     1     -11.016  -9.547  18.781  0.00  0.00    +0.023 A 
ATOM     23  C   UNL     1     -11.677 -12.013  17.657  0.00  0.00    +0.002 A 
ATOM     24  C   UNL     1     -12.348  -9.960  18.738  0.00  0.00    +0.002 A 
ATOM     25  C   UNL     1     -12.678 -11.193  18.177  0.00  0.00    +0.000 A 
ENDBRANCH   6  18
BRANCH   8  12
ATOM     12  C   UNL     1      -6.496 -11.277  15.377  0.00  0.00    +0.002 C 
ATOM     14  C   UNL     1      -7.698 -10.495  14.890  0.00  0.00    +0.004 C 
ENDBRANCH   8  12
BRANCH   7  13
ATOM     13  C   UNL     1      -3.527 -11.964  15.462  0.00  0.00    +0.099 C 
BRANCH  13  16
ATOM      2  O   UNL     1      -1.820 -10.308  15.015  0.00  0.00    -0.276 OA
ATOM      5  N   UNL     1      -2.639 -11.602  13.267  0.00  0.00    -0.308 N 
ATOM     16  C   UNL     1      -2.563 -11.189  14.589  0.00  0.00    +0.214 C 
ATOM     28  H   UNL     1      -3.278 -12.353  13.019  0.00  0.00    +0.149 HD
BRANCH   5  17
ATOM     17  C   UNL     1      -1.832 -11.031  12.214  0.00  0.00    +0.178 C 
BRANCH  17  19
ATOM      3  O   UNL     1      -3.684 -11.162  10.643  0.00  0.00    -0.466 OA
ATOM     19  C   UNL     1      -2.673 -10.401  11.141  0.00  0.00    +0.122 A 
ATOM     22  C   UNL     1      -2.646  -9.172  10.525  0.00  0.00    +0.046 A 
ATOM     26  C   UNL     1      -3.708  -9.177   9.589  0.00  0.00    +0.041 A 
ATOM     27  C   UNL     1      -4.308 -10.410   9.699  0.00  0.00    +0.195 A 
ENDBRANCH  17  19
ENDBRANCH   5  17
ENDBRANCH  13  16
ENDBRANCH   7  13
TORSDOF 6
ENDMDL
MODEL 10
REMARK VINA RESULT:      -5.8      3.272      6.296
REMARK  Name = 40587841
REMARK  7 active torsions:
REMARK  status: ('A' for Active; 'I' for Inactive)
REMARK    1  A    between atoms: N_5  and  C_17
REMARK    2  A    between atoms: N_6  and  C_18
REMARK    3  A    between atoms: C_7  and  C_13
REMARK    4  A    between atoms: C_8  and  C_12
REMARK    5  A    between atoms: C_12  and  C_14
REMARK    6  A    between atoms: C_13  and  C_16
REMARK    7  A    between atoms: C_17  and  C_19
REMARK                            x       y       z     vdW  Elec       q    Type
REMARK                         _______ _______ _______ _____ _____    ______ ____
ROOT
ATOM      1  O   UNL     1      -8.731 -10.144   9.769  0.00  0.00    -0.252 OA
ATOM      4  N   UNL     1      -6.936  -9.574  11.109  0.00  0.00    -0.285 N 
ATOM      6  N   UNL     1      -7.347  -8.404   9.102  0.00  0.00    -0.269 N 
ATOM      7  C   UNL     1      -4.765 -10.771  12.601  0.00  0.00    +0.004 C 
ATOM      8  C   UNL     1      -4.506  -9.620  11.593  0.00  0.00    +0.010 C 
ATOM      9  C   UNL     1      -6.044 -11.555  12.258  0.00  0.00    +0.023 C 
ATOM     10  C   UNL     1      -5.770  -8.753  11.466  0.00  0.00    +0.113 C 
ATOM     11  C   UNL     1      -7.242 -10.624  12.081  0.00  0.00    +0.109 C 
ATOM     15  C   UNL     1      -7.756  -9.416   9.971  0.00  0.00    +0.306 C 
ATOM     29  H   UNL     1      -6.855  -7.607   9.487  0.00  0.00    +0.156 HD
ENDROOT
BRANCH   6  18
ATOM     18  C   UNL     1      -7.529  -8.352   7.698  0.00  0.00    +0.035 A 
ATOM     20  C   UNL     1      -6.826  -9.229   6.872  0.00  0.00    +0.023 A 
ATOM     21  C   UNL     1      -8.410  -7.425   7.142  0.00  0.00    +0.023 A 
ATOM     23  C   UNL     1      -7.006  -9.178   5.489  0.00  0.00    +0.002 A 
ATOM     24  C   UNL     1      -8.588  -7.374   5.760  0.00  0.00    +0.002 A 
ATOM     25  C   UNL     1      -7.886  -8.251   4.933  0.00  0.00    +0.000 A 
ENDBRANCH   6  18
BRANCH   8  12
ATOM     12  C   UNL     1      -4.039 -10.093  10.212  0.00  0.00    +0.002 C 
ATOM     14  C   UNL     1      -3.882  -8.927   9.258  0.00  0.00    +0.004 C 
ENDBRANCH   8  12
BRANCH   7  13
ATOM     13  C   UNL     1      -3.575 -11.717  12.750  0.00  0.00    +0.099 C 
BRANCH  13  16
ATOM      2  O   UNL     1      -2.685 -12.928  14.647  0.00  0.00    -0.276 OA
ATOM      5  N   UNL     1      -3.367 -10.722  14.919  0.00  0.00    -0.308 N 
ATOM     16  C   UNL     1      -3.153 -11.885  14.194  0.00  0.00    +0.214 C 
ATOM     28  H   UNL     1      -3.745  -9.906  14.445  0.00  0.00    +0.149 HD
BRANCH   5  17
ATOM     17  C   UNL     1      -3.057 -10.599  16.324  0.00  0.00    +0.178 C 
BRANCH  17  19
ATOM      3  O   UNL     1      -5.428 -10.189  16.670  0.00  0.00    -0.466 OA
ATOM     19  C   UNL     1      -4.284 -10.714  17.182  0.00  0.00    +0.122 A 
ATOM     22  C   UNL     1      -4.515 -11.257  18.424  0.00  0.00    +0.046 A 
ATOM     26  C   UNL     1      -5.889 -11.053  18.693  0.00  0.00    +0.041 A 
ATOM     27  C   UNL     1      -6.400 -10.399  17.596  0.00  0.00    +0.195 A 
ENDBRANCH  17  19
ENDBRANCH   5  17
ENDBRANCH  13  16
ENDBRANCH   7  13
TORSDOF 6
ENDMDL
