MODEL 1
REMARK VINA RESULT:      -7.7      0.000      0.000
REMARK  Name = 11941369
REMARK  4 active torsions:
REMARK  status: ('A' for Active; 'I' for Inactive)
REMARK    1  A    between atoms: N_3  and  C_11
REMARK    2  A    between atoms: C_20  and  C_23
REMARK    3  A    between atoms: C_22  and  C_24
REMARK    4  A    between atoms: C_25  and  C_28
REMARK                            x       y       z     vdW  Elec       q    Type
REMARK                         _______ _______ _______ _____ _____    ______ ____
ROOT
ATOM      1  O   UNL     1      -5.545 -12.471  10.292  0.00  0.00    -0.267 OA
ATOM      3  N   UNL     1      -3.951 -11.084  14.839  0.00  0.00    -0.298 NA
ATOM      4  N   UNL     1      -3.827 -11.875  11.752  0.00  0.00    -0.311 N 
ATOM      6  C   UNL     1      -3.231 -13.260  13.824  0.00  0.00    +0.024 C 
ATOM      7  C   UNL     1      -1.972 -11.221  13.322  0.00  0.00    +0.050 C 
ATOM      8  C   UNL     1      -1.825 -12.714  13.603  0.00  0.00    +0.017 C 
ATOM      9  C   UNL     1      -3.895 -12.540  15.017  0.00  0.00    +0.090 C 
ATOM     10  C   UNL     1      -2.623 -10.527  14.539  0.00  0.00    +0.094 C 
ATOM     12  C   UNL     1      -4.030 -13.110  12.523  0.00  0.00    +0.130 C 
ATOM     13  C   UNL     1      -2.798 -10.986  12.071  0.00  0.00    +0.026 A 
ATOM     18  C   UNL     1      -2.559  -9.923  11.288  0.00  0.00    +0.022 A 
ATOM     19  C   UNL     1      -4.650 -11.691  10.623  0.00  0.00    +0.259 A 
ATOM     20  C   UNL     1      -4.380 -10.473   9.783  0.00  0.00    +0.047 A 
ATOM     21  C   UNL     1      -3.368  -9.663  10.130  0.00  0.00    +0.015 A 
ENDROOT
BRANCH   3  11
ATOM      2  O   UNL     1      -7.082 -11.668  20.083  0.00  0.00    -0.276 OA
ATOM      5  N   UNL     1      -6.402 -10.453  18.224  0.00  0.00    -0.302 N 
ATOM     11  C   UNL     1      -4.538 -10.435  16.009  0.00  0.00    +0.060 C 
ATOM     14  C   UNL     1      -6.042 -10.223  15.794  0.00  0.00    +0.038 C 
ATOM     15  C   UNL     1      -4.290 -11.284  17.263  0.00  0.00    +0.038 C 
ATOM     16  C   UNL     1      -6.695  -9.631  17.043  0.00  0.00    +0.109 C 
ATOM     17  C   UNL     1      -4.978 -10.672  18.481  0.00  0.00    +0.109 C 
ATOM     22  C   UNL     1      -7.354 -10.979  19.096  0.00  0.00    +0.212 C 
ATOM     24  C   UNL     1      -8.797 -10.672  18.788  0.00  0.00    +0.109 C 
ENDBRANCH   3  11
BRANCH  20  23
ATOM     23  C   UNL     1      -5.208 -10.158   8.605  0.00  0.00    -0.010 A 
ATOM     25  C   UNL     1      -6.352  -9.363   8.710  0.00  0.00    -0.043 A 
ATOM     26  C   UNL     1      -4.832 -10.672   7.362  0.00  0.00    +0.009 A 
ATOM     27  C   UNL     1      -7.116  -9.083   7.576  0.00  0.00    +0.004 A 
ATOM     28  C   UNL     1      -6.787  -8.795  10.022  0.00  0.00    +0.044 C 
ATOM     29  C   UNL     1      -5.597 -10.391   6.229  0.00  0.00    +0.001 A 
ATOM     30  C   UNL     1      -6.738  -9.597   6.336  0.00  0.00    +0.000 A 
ENDBRANCH  20  23
TORSDOF 2
ENDMDL
MODEL 2
REMARK VINA RESULT:      -7.4      1.613      2.572
REMARK  Name = 11941369
REMARK  4 active torsions:
REMARK  status: ('A' for Active; 'I' for Inactive)
REMARK    1  A    between atoms: N_3  and  C_11
REMARK    2  A    between atoms: C_20  and  C_23
REMARK    3  A    between atoms: C_22  and  C_24
REMARK    4  A    between atoms: C_25  and  C_28
REMARK                            x       y       z     vdW  Elec       q    Type
REMARK                         _______ _______ _______ _____ _____    ______ ____
ROOT
ATOM      1  O   UNL     1      -7.488 -10.972   9.497  0.00  0.00    -0.267 OA
ATOM      3  N   UNL     1      -4.308 -11.110  13.371  0.00  0.00    -0.298 NA
ATOM      4  N   UNL     1      -5.337 -11.248  10.355  0.00  0.00    -0.311 N 
ATOM      6  C   UNL     1      -4.724 -13.145  11.965  0.00  0.00    +0.024 C 
ATOM      7  C   UNL     1      -3.013 -11.534  11.277  0.00  0.00    +0.050 C 
ATOM      8  C   UNL     1      -3.337 -13.023  11.345  0.00  0.00    +0.017 C 
ATOM      9  C   UNL     1      -4.728 -12.517  13.376  0.00  0.00    +0.090 C 
ATOM     10  C   UNL     1      -3.008 -10.940  12.704  0.00  0.00    +0.094 C 
ATOM     12  C   UNL     1      -5.745 -12.491  11.025  0.00  0.00    +0.130 C 
ATOM     13  C   UNL     1      -4.014 -10.804  10.401  0.00  0.00    +0.026 A 
ATOM     18  C   UNL     1      -3.640  -9.729   9.691  0.00  0.00    +0.022 A 
ATOM     19  C   UNL     1      -6.320 -10.591   9.588  0.00  0.00    +0.259 A 
ATOM     20  C   UNL     1      -5.878  -9.369   8.830  0.00  0.00    +0.047 A 
ATOM     21  C   UNL     1      -4.590  -9.000   8.899  0.00  0.00    +0.015 A 
ENDROOT
BRANCH   3  11
ATOM      2  O   UNL     1      -3.689 -12.176  19.381  0.00  0.00    -0.276 OA
ATOM      5  N   UNL     1      -4.498 -10.939  17.589  0.00  0.00    -0.302 N 
ATOM     11  C   UNL     1      -4.275 -10.568  14.727  0.00  0.00    +0.060 C 
ATOM     14  C   UNL     1      -5.635 -10.768  15.407  0.00  0.00    +0.038 C 
ATOM     15  C   UNL     1      -3.164 -11.248  15.539  0.00  0.00    +0.038 C 
ATOM     16  C   UNL     1      -5.596 -10.292  16.860  0.00  0.00    +0.109 C 
ATOM     17  C   UNL     1      -3.174 -10.764  16.988  0.00  0.00    +0.109 C 
ATOM     22  C   UNL     1      -4.628 -11.642  18.787  0.00  0.00    +0.212 C 
ATOM     24  C   UNL     1      -6.017 -11.739  19.365  0.00  0.00    +0.109 C 
ENDBRANCH   3  11
BRANCH  20  23
ATOM     23  C   UNL     1      -6.831  -8.579   8.030  0.00  0.00    -0.010 A 
ATOM     25  C   UNL     1      -7.074  -8.873   6.686  0.00  0.00    -0.043 A 
ATOM     26  C   UNL     1      -7.501  -7.515   8.639  0.00  0.00    +0.009 A 
ATOM     27  C   UNL     1      -7.983  -8.107   5.955  0.00  0.00    +0.004 A 
ATOM     28  C   UNL     1      -6.378 -10.003   5.999  0.00  0.00    +0.044 C 
ATOM     29  C   UNL     1      -8.409  -6.749   7.907  0.00  0.00    +0.001 A 
ATOM     30  C   UNL     1      -8.650  -7.045   6.566  0.00  0.00    +0.000 A 
ENDBRANCH  20  23
TORSDOF 2
ENDMDL
MODEL 3
REMARK VINA RESULT:      -7.4     24.286     27.438
REMARK  Name = 11941369
REMARK  4 active torsions:
REMARK  status: ('A' for Active; 'I' for Inactive)
REMARK    1  A    between atoms: N_3  and  C_11
REMARK    2  A    between atoms: C_20  and  C_23
REMARK    3  A    between atoms: C_22  and  C_24
REMARK    4  A    between atoms: C_25  and  C_28
REMARK                            x       y       z     vdW  Elec       q    Type
REMARK                         _______ _______ _______ _____ _____    ______ ____
ROOT
ATOM      1  O   UNL     1      12.426   7.289   3.652  0.00  0.00    -0.267 OA
ATOM      3  N   UNL     1      13.246   4.951  -0.707  0.00  0.00    -0.298 NA
ATOM      4  N   UNL     1      12.913   5.359   2.438  0.00  0.00    -0.311 N 
ATOM      6  C   UNL     1      15.043   5.108   1.035  0.00  0.00    +0.024 C 
ATOM      7  C   UNL     1      13.428   3.270   1.132  0.00  0.00    +0.050 C 
ATOM      8  C   UNL     1      14.897   3.624   1.347  0.00  0.00    +0.017 C 
ATOM      9  C   UNL     1      14.619   5.385  -0.424  0.00  0.00    +0.090 C 
ATOM     10  C   UNL     1      13.041   3.542  -0.340  0.00  0.00    +0.094 C 
ATOM     12  C   UNL     1      14.219   5.910   2.050  0.00  0.00    +0.130 C 
ATOM     13  C   UNL     1      12.539   4.065   2.070  0.00  0.00    +0.026 A 
ATOM     18  C   UNL     1      11.392   3.539   2.528  0.00  0.00    +0.022 A 
ATOM     19  C   UNL     1      12.113   6.158   3.279  0.00  0.00    +0.259 A 
ATOM     20  C   UNL     1      10.817   5.554   3.749  0.00  0.00    +0.047 A 
ATOM     21  C   UNL     1      10.518   4.301   3.375  0.00  0.00    +0.015 A 
ENDROOT
BRANCH   3  11
ATOM      2  O   UNL     1      10.649   2.818  -5.841  0.00  0.00    -0.276 OA
ATOM      5  N   UNL     1      12.174   4.165  -4.719  0.00  0.00    -0.302 N 
ATOM     11  C   UNL     1      12.902   5.182  -2.109  0.00  0.00    +0.060 C 
ATOM     14  C   UNL     1      13.931   4.505  -3.022  0.00  0.00    +0.038 C 
ATOM     15  C   UNL     1      11.493   4.647  -2.400  0.00  0.00    +0.038 C 
ATOM     16  C   UNL     1      13.540   4.654  -4.492  0.00  0.00    +0.109 C 
ATOM     17  C   UNL     1      11.150   4.792  -3.881  0.00  0.00    +0.109 C 
ATOM     22  C   UNL     1      11.805   3.213  -5.669  0.00  0.00    +0.212 C 
ATOM     24  C   UNL     1      12.911   2.648  -6.524  0.00  0.00    +0.109 C 
ENDBRANCH   3  11
BRANCH  20  23
ATOM     23  C   UNL     1       9.882   6.316   4.595  0.00  0.00    -0.010 A 
ATOM     25  C   UNL     1       9.014   7.265   4.050  0.00  0.00    -0.043 A 
ATOM     26  C   UNL     1       9.872   6.077   5.971  0.00  0.00    +0.009 A 
ATOM     27  C   UNL     1       8.140   7.972   4.877  0.00  0.00    +0.004 A 
ATOM     28  C   UNL     1       8.995   7.550   2.583  0.00  0.00    +0.044 C 
ATOM     29  C   UNL     1       8.998   6.784   6.798  0.00  0.00    +0.001 A 
ATOM     30  C   UNL     1       8.133   7.731   6.252  0.00  0.00    +0.000 A 
ENDBRANCH  20  23
TORSDOF 2
ENDMDL
MODEL 4
REMARK VINA RESULT:      -7.2      5.928      9.511
REMARK  Name = 11941369
REMARK  4 active torsions:
REMARK  status: ('A' for Active; 'I' for Inactive)
REMARK    1  A    between atoms: N_3  and  C_11
REMARK    2  A    between atoms: C_20  and  C_23
REMARK    3  A    between atoms: C_22  and  C_24
REMARK    4  A    between atoms: C_25  and  C_28
REMARK                            x       y       z     vdW  Elec       q    Type
REMARK                         _______ _______ _______ _____ _____    ______ ____
ROOT
ATOM      1  O   UNL     1     -13.175  -6.486   8.918  0.00  0.00    -0.267 OA
ATOM      3  N   UNL     1      -8.502  -8.293   9.101  0.00  0.00    -0.298 NA
ATOM      4  N   UNL     1     -10.950  -6.448   8.222  0.00  0.00    -0.311 N 
ATOM      6  C   UNL     1      -9.852  -8.409   6.991  0.00  0.00    +0.024 C 
ATOM      7  C   UNL     1      -8.546  -6.395   7.478  0.00  0.00    +0.050 C 
ATOM      8  C   UNL     1      -8.984  -7.330   6.354  0.00  0.00    +0.017 C 
ATOM      9  C   UNL     1      -9.042  -9.175   8.059  0.00  0.00    +0.090 C 
ATOM     10  C   UNL     1      -7.725  -7.188   8.520  0.00  0.00    +0.094 C 
ATOM     12  C   UNL     1     -11.114  -7.752   7.565  0.00  0.00    +0.130 C 
ATOM     13  C   UNL     1      -9.748  -5.742   8.134  0.00  0.00    +0.026 A 
ATOM     18  C   UNL     1      -9.655  -4.504   8.645  0.00  0.00    +0.022 A 
ATOM     19  C   UNL     1     -12.090  -5.907   8.850  0.00  0.00    +0.259 A 
ATOM     20  C   UNL     1     -11.945  -4.532   9.443  0.00  0.00    +0.047 A 
ATOM     21  C   UNL     1     -10.771  -3.896   9.313  0.00  0.00    +0.015 A 
ENDROOT
BRANCH   3  11
ATOM      2  O   UNL     1      -2.992 -10.466  10.703  0.00  0.00    -0.276 OA
ATOM      5  N   UNL     1      -5.314 -10.550  10.715  0.00  0.00    -0.302 N 
ATOM     11  C   UNL     1      -7.700  -9.047  10.062  0.00  0.00    +0.060 C 
ATOM     14  C   UNL     1      -7.494 -10.483   9.564  0.00  0.00    +0.038 C 
ATOM     15  C   UNL     1      -6.347  -8.355  10.278  0.00  0.00    +0.038 C 
ATOM     16  C   UNL     1      -6.579 -11.264  10.508  0.00  0.00    +0.109 C 
ATOM     17  C   UNL     1      -5.456  -9.178  11.206  0.00  0.00    +0.109 C 
ATOM     22  C   UNL     1      -4.042 -11.088  10.521  0.00  0.00    +0.212 C 
ATOM     24  C   UNL     1      -3.978 -12.521  10.058  0.00  0.00    +0.109 C 
ENDBRANCH   3  11
BRANCH  20  23
ATOM     23  C   UNL     1     -13.059  -3.888  10.161  0.00  0.00    -0.010 A 
ATOM     25  C   UNL     1     -13.182  -3.982  11.550  0.00  0.00    -0.043 A 
ATOM     26  C   UNL     1     -14.009  -3.172   9.428  0.00  0.00    +0.009 A 
ATOM     27  C   UNL     1     -14.249  -3.362  12.202  0.00  0.00    +0.004 A 
ATOM     28  C   UNL     1     -12.187  -4.739  12.369  0.00  0.00    +0.044 C 
ATOM     29  C   UNL     1     -15.075  -2.553  10.081  0.00  0.00    +0.001 A 
ATOM     30  C   UNL     1     -15.195  -2.648  11.467  0.00  0.00    +0.000 A 
ENDBRANCH  20  23
TORSDOF 2
ENDMDL
MODEL 5
REMARK VINA RESULT:      -7.2     24.040     26.700
REMARK  Name = 11941369
REMARK  4 active torsions:
REMARK  status: ('A' for Active; 'I' for Inactive)
REMARK    1  A    between atoms: N_3  and  C_11
REMARK    2  A    between atoms: C_20  and  C_23
REMARK    3  A    between atoms: C_22  and  C_24
REMARK    4  A    between atoms: C_25  and  C_28
REMARK                            x       y       z     vdW  Elec       q    Type
REMARK                         _______ _______ _______ _____ _____    ______ ____
ROOT
ATOM      1  O   UNL     1      12.171   7.420   4.248  0.00  0.00    -0.267 OA
ATOM      3  N   UNL     1      11.704   5.695  -0.437  0.00  0.00    -0.298 NA
ATOM      4  N   UNL     1      12.333   5.693   2.690  0.00  0.00    -0.311 N 
ATOM      6  C   UNL     1      13.940   5.776   0.695  0.00  0.00    +0.024 C 
ATOM      7  C   UNL     1      12.498   3.823   1.014  0.00  0.00    +0.050 C 
ATOM      8  C   UNL     1      13.949   4.257   0.828  0.00  0.00    +0.017 C 
ATOM      9  C   UNL     1      13.082   6.194  -0.518  0.00  0.00    +0.090 C 
ATOM     10  C   UNL     1      11.671   4.241  -0.224  0.00  0.00    +0.094 C 
ATOM     12  C   UNL     1      13.438   6.384   2.011  0.00  0.00    +0.130 C 
ATOM     13  C   UNL     1      11.910   4.428   2.274  0.00  0.00    +0.026 A 
ATOM     18  C   UNL     1      10.977   3.767   2.976  0.00  0.00    +0.022 A 
ATOM     19  C   UNL     1      11.800   6.322   3.832  0.00  0.00    +0.259 A 
ATOM     20  C   UNL     1      10.731   5.570   4.578  0.00  0.00    +0.047 A 
ATOM     21  C   UNL     1      10.377   4.352   4.141  0.00  0.00    +0.015 A 
ENDROOT
BRANCH   3  11
ATOM      2  O   UNL     1       7.070   8.918  -2.841  0.00  0.00    -0.276 OA
ATOM      5  N   UNL     1       8.530   7.111  -2.841  0.00  0.00    -0.302 N 
ATOM     11  C   UNL     1      10.941   6.067  -1.626  0.00  0.00    +0.060 C 
ATOM     14  C   UNL     1       9.658   5.232  -1.710  0.00  0.00    +0.038 C 
ATOM     15  C   UNL     1      10.605   7.564  -1.590  0.00  0.00    +0.038 C 
ATOM     16  C   UNL     1       8.796   5.668  -2.896  0.00  0.00    +0.109 C 
ATOM     17  C   UNL     1       9.725   7.954  -2.776  0.00  0.00    +0.109 C 
ATOM     22  C   UNL     1       7.267   7.701  -2.888  0.00  0.00    +0.212 C 
ATOM     24  C   UNL     1       6.089   6.768  -3.000  0.00  0.00    +0.109 C 
ENDBRANCH   3  11
BRANCH  20  23
ATOM     23  C   UNL     1      10.073   6.151   5.762  0.00  0.00    -0.010 A 
ATOM     25  C   UNL     1       8.957   6.983   5.640  0.00  0.00    -0.043 A 
ATOM     26  C   UNL     1      10.584   5.859   7.029  0.00  0.00    +0.009 A 
ATOM     27  C   UNL     1       8.355   7.519   6.779  0.00  0.00    +0.004 A 
ATOM     28  C   UNL     1       8.380   7.319   4.303  0.00  0.00    +0.044 C 
ATOM     29  C   UNL     1       9.982   6.396   8.167  0.00  0.00    +0.001 A 
ATOM     30  C   UNL     1       8.869   7.225   8.042  0.00  0.00    +0.000 A 
ENDBRANCH  20  23
TORSDOF 2
ENDMDL
MODEL 6
REMARK VINA RESULT:      -7.0      2.618      7.833
REMARK  Name = 11941369
REMARK  4 active torsions:
REMARK  status: ('A' for Active; 'I' for Inactive)
REMARK    1  A    between atoms: N_3  and  C_11
REMARK    2  A    between atoms: C_20  and  C_23
REMARK    3  A    between atoms: C_22  and  C_24
REMARK    4  A    between atoms: C_25  and  C_28
REMARK                            x       y       z     vdW  Elec       q    Type
REMARK                         _______ _______ _______ _____ _____    ______ ____
ROOT
ATOM      1  O   UNL     1      -7.818  -8.842  17.504  0.00  0.00    -0.267 OA
ATOM      3  N   UNL     1      -4.421 -11.795  15.294  0.00  0.00    -0.298 NA
ATOM      4  N   UNL     1      -6.683 -10.873  17.345  0.00  0.00    -0.311 N 
ATOM      6  C   UNL     1      -4.150 -11.071  17.679  0.00  0.00    +0.024 C 
ATOM      7  C   UNL     1      -5.469 -13.070  17.169  0.00  0.00    +0.050 C 
ATOM      8  C   UNL     1      -4.473 -12.480  18.163  0.00  0.00    +0.017 C 
ATOM      9  C   UNL     1      -3.542 -11.127  16.261  0.00  0.00    +0.090 C 
ATOM     10  C   UNL     1      -4.824 -13.128  15.765  0.00  0.00    +0.094 C 
ATOM     12  C   UNL     1      -5.426 -10.222  17.741  0.00  0.00    +0.130 C 
ATOM     13  C   UNL     1      -6.746 -12.252  17.134  0.00  0.00    +0.026 A 
ATOM     18  C   UNL     1      -7.925 -12.842  16.883  0.00  0.00    +0.022 A 
ATOM     19  C   UNL     1      -7.830 -10.055  17.291  0.00  0.00    +0.259 A 
ATOM     20  C   UNL     1      -9.131 -10.740  16.974  0.00  0.00    +0.047 A 
ATOM     21  C   UNL     1      -9.132 -12.070  16.797  0.00  0.00    +0.015 A 
ENDROOT
BRANCH   3  11
ATOM      2  O   UNL     1      -1.569  -8.873  10.714  0.00  0.00    -0.276 OA
ATOM      5  N   UNL     1      -2.888 -10.597  11.542  0.00  0.00    -0.302 N 
ATOM     11  C   UNL     1      -3.789 -11.873  13.978  0.00  0.00    +0.060 C 
ATOM     14  C   UNL     1      -4.777 -11.428  12.893  0.00  0.00    +0.038 C 
ATOM     15  C   UNL     1      -2.528 -11.001  13.947  0.00  0.00    +0.038 C 
ATOM     16  C   UNL     1      -4.109 -11.412  11.518  0.00  0.00    +0.109 C 
ATOM     17  C   UNL     1      -1.905 -10.993  12.552  0.00  0.00    +0.109 C 
ATOM     22  C   UNL     1      -2.604  -9.544  10.673  0.00  0.00    +0.212 C 
ATOM     24  C   UNL     1      -3.647  -9.227   9.632  0.00  0.00    +0.109 C 
ENDBRANCH   3  11
BRANCH  20  23
ATOM     23  C   UNL     1     -10.385  -9.977  16.849  0.00  0.00    -0.010 A 
ATOM     25  C   UNL     1     -10.738  -9.345  15.654  0.00  0.00    -0.043 A 
ATOM     26  C   UNL     1     -11.233  -9.888  17.956  0.00  0.00    +0.009 A 
ATOM     27  C   UNL     1     -11.932  -8.628  15.566  0.00  0.00    +0.004 A 
ATOM     28  C   UNL     1      -9.858  -9.416  14.448  0.00  0.00    +0.044 C 
ATOM     29  C   UNL     1     -12.427  -9.172  17.868  0.00  0.00    +0.001 A 
ATOM     30  C   UNL     1     -12.776  -8.542  16.674  0.00  0.00    +0.000 A 
ENDBRANCH  20  23
TORSDOF 2
ENDMDL
MODEL 7
REMARK VINA RESULT:      -7.0     24.687     27.282
REMARK  Name = 11941369
REMARK  4 active torsions:
REMARK  status: ('A' for Active; 'I' for Inactive)
REMARK    1  A    between atoms: N_3  and  C_11
REMARK    2  A    between atoms: C_20  and  C_23
REMARK    3  A    between atoms: C_22  and  C_24
REMARK    4  A    between atoms: C_25  and  C_28
REMARK                            x       y       z     vdW  Elec       q    Type
REMARK                         _______ _______ _______ _____ _____    ______ ____
ROOT
ATOM      1  O   UNL     1      12.309   7.606   3.087  0.00  0.00    -0.267 OA
ATOM      3  N   UNL     1      13.008   4.519  -0.803  0.00  0.00    -0.298 NA
ATOM      4  N   UNL     1      12.790   5.492   2.227  0.00  0.00    -0.311 N 
ATOM      6  C   UNL     1      14.867   5.018   0.803  0.00  0.00    +0.024 C 
ATOM      7  C   UNL     1      13.297   3.207   1.303  0.00  0.00    +0.050 C 
ATOM      8  C   UNL     1      14.765   3.614   1.387  0.00  0.00    +0.017 C 
ATOM      9  C   UNL     1      14.381   5.017  -0.662  0.00  0.00    +0.090 C 
ATOM     10  C   UNL     1      12.847   3.199  -0.176  0.00  0.00    +0.094 C 
ATOM     12  C   UNL     1      14.067   5.981   1.690  0.00  0.00    +0.130 C 
ATOM     13  C   UNL     1      12.428   4.148   2.117  0.00  0.00    +0.026 A 
ATOM     18  C   UNL     1      11.312   3.699   2.711  0.00  0.00    +0.022 A 
ATOM     19  C   UNL     1      12.006   6.421   2.941  0.00  0.00    +0.259 A 
ATOM     20  C   UNL     1      10.743   5.896   3.567  0.00  0.00    +0.047 A 
ATOM     21  C   UNL     1      10.456   4.591   3.442  0.00  0.00    +0.015 A 
ENDROOT
BRANCH   3  11
ATOM      2  O   UNL     1       9.641   6.977  -5.305  0.00  0.00    -0.276 OA
ATOM      5  N   UNL     1      10.738   5.190  -4.304  0.00  0.00    -0.302 N 
ATOM     11  C   UNL     1      12.604   4.485  -2.207  0.00  0.00    +0.060 C 
ATOM     14  C   UNL     1      11.250   3.779  -2.347  0.00  0.00    +0.038 C 
ATOM     15  C   UNL     1      12.526   5.911  -2.768  0.00  0.00    +0.038 C 
ATOM     16  C   UNL     1      10.762   3.813  -3.796  0.00  0.00    +0.109 C 
ATOM     17  C   UNL     1      12.013   5.903  -4.207  0.00  0.00    +0.109 C 
ATOM     22  C   UNL     1       9.636   5.817  -4.885  0.00  0.00    +0.212 C 
ATOM     24  C   UNL     1       8.373   5.001  -4.990  0.00  0.00    +0.109 C 
ENDBRANCH   3  11
BRANCH  20  23
ATOM     23  C   UNL     1       9.825   6.787   4.299  0.00  0.00    -0.010 A 
ATOM     25  C   UNL     1       9.948   6.988   5.675  0.00  0.00    -0.043 A 
ATOM     26  C   UNL     1       8.813   7.440   3.591  0.00  0.00    +0.009 A 
ATOM     27  C   UNL     1       9.064   7.839   6.341  0.00  0.00    +0.004 A 
ATOM     28  C   UNL     1      11.017   6.309   6.469  0.00  0.00    +0.044 C 
ATOM     29  C   UNL     1       7.929   8.290   4.256  0.00  0.00    +0.001 A 
ATOM     30  C   UNL     1       8.054   8.489   5.630  0.00  0.00    +0.000 A 
ENDBRANCH  20  23
TORSDOF 2
ENDMDL
MODEL 8
REMARK VINA RESULT:      -6.9      3.268      6.197
REMARK  Name = 11941369
REMARK  4 active torsions:
REMARK  status: ('A' for Active; 'I' for Inactive)
REMARK    1  A    between atoms: N_3  and  C_11
REMARK    2  A    between atoms: C_20  and  C_23
REMARK    3  A    between atoms: C_22  and  C_24
REMARK    4  A    between atoms: C_25  and  C_28
REMARK                            x       y       z     vdW  Elec       q    Type
REMARK                         _______ _______ _______ _____ _____    ______ ____
ROOT
ATOM      1  O   UNL     1      -6.008 -12.658  14.112  0.00  0.00    -0.267 OA
ATOM      3  N   UNL     1      -8.715 -10.595  17.795  0.00  0.00    -0.298 NA
ATOM      4  N   UNL     1      -6.264 -12.031  16.343  0.00  0.00    -0.311 N 
ATOM      6  C   UNL     1      -8.080 -13.020  17.858  0.00  0.00    +0.024 C 
ATOM      7  C   UNL     1      -6.532 -11.345  18.750  0.00  0.00    +0.050 C 
ATOM      8  C   UNL     1      -7.084 -12.749  18.979  0.00  0.00    +0.017 C 
ATOM      9  C   UNL     1      -9.213 -11.972  17.895  0.00  0.00    +0.090 C 
ATOM     10  C   UNL     1      -7.687 -10.319  18.810  0.00  0.00    +0.094 C 
ATOM     12  C   UNL     1      -7.328 -13.030  16.521  0.00  0.00    +0.130 C 
ATOM     13  C   UNL     1      -5.814 -11.258  17.416  0.00  0.00    +0.026 A 
ATOM     18  C   UNL     1      -4.767 -10.434  17.260  0.00  0.00    +0.022 A 
ATOM     19  C   UNL     1      -5.660 -11.968  15.072  0.00  0.00    +0.259 A 
ATOM     20  C   UNL     1      -4.511 -11.010  14.918  0.00  0.00    +0.047 A 
ATOM     21  C   UNL     1      -4.112 -10.306  15.988  0.00  0.00    +0.015 A 
ENDROOT
BRANCH   3  11
ATOM      2  O   UNL     1     -13.606  -8.021  15.130  0.00  0.00    -0.276 OA
ATOM      5  N   UNL     1     -11.817  -7.979  16.612  0.00  0.00    -0.302 N 
ATOM     11  C   UNL     1      -9.811  -9.633  17.885  0.00  0.00    +0.060 C 
ATOM     14  C   UNL     1      -9.437  -8.339  17.152  0.00  0.00    +0.038 C 
ATOM     15  C   UNL     1     -11.091 -10.235  17.291  0.00  0.00    +0.038 C 
ATOM     16  C   UNL     1     -10.605  -7.352  17.153  0.00  0.00    +0.109 C 
ATOM     17  C   UNL     1     -12.225  -9.212  17.289  0.00  0.00    +0.109 C 
ATOM     22  C   UNL     1     -12.590  -7.474  15.567  0.00  0.00    +0.212 C 
ATOM     24  C   UNL     1     -12.129  -6.177  14.952  0.00  0.00    +0.109 C 
ENDBRANCH   3  11
BRANCH  20  23
ATOM     23  C   UNL     1      -3.834 -10.831  13.621  0.00  0.00    -0.010 A 
ATOM     25  C   UNL     1      -2.569 -11.371  13.379  0.00  0.00    -0.043 A 
ATOM     26  C   UNL     1      -4.480 -10.102  12.619  0.00  0.00    +0.009 A 
ATOM     27  C   UNL     1      -1.953 -11.184  12.141  0.00  0.00    +0.004 A 
ATOM     28  C   UNL     1      -1.845 -12.156  14.425  0.00  0.00    +0.044 C 
ATOM     29  C   UNL     1      -3.863  -9.915  11.382  0.00  0.00    +0.001 A 
ATOM     30  C   UNL     1      -2.601 -10.456  11.143  0.00  0.00    +0.000 A 
ENDBRANCH  20  23
TORSDOF 2
ENDMDL
MODEL 9
REMARK VINA RESULT:      -6.8      2.606      8.890
REMARK  Name = 11941369
REMARK  4 active torsions:
REMARK  status: ('A' for Active; 'I' for Inactive)
REMARK    1  A    between atoms: N_3  and  C_11
REMARK    2  A    between atoms: C_20  and  C_23
REMARK    3  A    between atoms: C_22  and  C_24
REMARK    4  A    between atoms: C_25  and  C_28
REMARK                            x       y       z     vdW  Elec       q    Type
REMARK                         _______ _______ _______ _____ _____    ______ ____
ROOT
ATOM      1  O   UNL     1      -6.657 -10.288  14.348  0.00  0.00    -0.267 OA
ATOM      3  N   UNL     1      -5.416 -11.040   9.548  0.00  0.00    -0.298 NA
ATOM      4  N   UNL     1      -5.281  -9.870  12.513  0.00  0.00    -0.311 N 
ATOM      6  C   UNL     1      -6.141  -8.780  10.358  0.00  0.00    +0.024 C 
ATOM      7  C   UNL     1      -3.786  -9.426  10.537  0.00  0.00    +0.050 C 
ATOM      8  C   UNL     1      -4.716  -8.256  10.230  0.00  0.00    +0.017 C 
ATOM      9  C   UNL     1      -6.369  -9.939   9.364  0.00  0.00    +0.090 C 
ATOM     10  C   UNL     1      -4.026 -10.560   9.515  0.00  0.00    +0.094 C 
ATOM     12  C   UNL     1      -6.385  -9.197  11.815  0.00  0.00    +0.130 C 
ATOM     13  C   UNL     1      -4.003  -9.931  11.951  0.00  0.00    +0.026 A 
ATOM     18  C   UNL     1      -2.984 -10.450  12.652  0.00  0.00    +0.022 A 
ATOM     19  C   UNL     1      -5.552 -10.355  13.808  0.00  0.00    +0.259 A 
ATOM     20  C   UNL     1      -4.396 -10.962  14.556  0.00  0.00    +0.047 A 
ATOM     21  C   UNL     1      -3.189 -10.978  13.972  0.00  0.00    +0.015 A 
ENDROOT
BRANCH   3  11
ATOM      2  O   UNL     1      -3.351 -14.007   4.590  0.00  0.00    -0.276 OA
ATOM      5  N   UNL     1      -5.066 -13.259   5.968  0.00  0.00    -0.302 N 
ATOM     11  C   UNL     1      -5.630 -12.091   8.556  0.00  0.00    +0.060 C 
ATOM     14  C   UNL     1      -6.193 -11.488   7.264  0.00  0.00    +0.038 C 
ATOM     15  C   UNL     1      -4.313 -12.827   8.276  0.00  0.00    +0.038 C 
ATOM     16  C   UNL     1      -6.337 -12.556   6.179  0.00  0.00    +0.109 C 
ATOM     17  C   UNL     1      -4.494 -13.867   7.171  0.00  0.00    +0.109 C 
ATOM     22  C   UNL     1      -4.421 -13.410   4.741  0.00  0.00    +0.212 C 
ATOM     24  C   UNL     1      -5.096 -12.795   3.542  0.00  0.00    +0.109 C 
ENDBRANCH   3  11
BRANCH  20  23
ATOM     23  C   UNL     1      -4.575 -11.540  15.900  0.00  0.00    -0.010 A 
ATOM     25  C   UNL     1      -4.945 -12.875  16.076  0.00  0.00    -0.043 A 
ATOM     26  C   UNL     1      -4.369 -10.725  17.016  0.00  0.00    +0.009 A 
ATOM     27  C   UNL     1      -5.108 -13.393  17.361  0.00  0.00    +0.004 A 
ATOM     28  C   UNL     1      -5.176 -13.779  14.908  0.00  0.00    +0.044 C 
ATOM     29  C   UNL     1      -4.531 -11.243  18.300  0.00  0.00    +0.001 A 
ATOM     30  C   UNL     1      -4.900 -12.576  18.473  0.00  0.00    +0.000 A 
ENDBRANCH  20  23
TORSDOF 2
ENDMDL
MODEL 10
REMARK VINA RESULT:      -6.7     24.866     27.394
REMARK  Name = 11941369
REMARK  4 active torsions:
REMARK  status: ('A' for Active; 'I' for Inactive)
REMARK    1  A    between atoms: N_3  and  C_11
REMARK    2  A    between atoms: C_20  and  C_23
REMARK    3  A    between atoms: C_22  and  C_24
REMARK    4  A    between atoms: C_25  and  C_28
REMARK                            x       y       z     vdW  Elec       q    Type
REMARK                         _______ _______ _______ _____ _____    ______ ____
ROOT
ATOM      1  O   UNL     1       9.398   4.941  -1.746  0.00  0.00    -0.267 OA
ATOM      3  N   UNL     1      12.869   5.973   1.723  0.00  0.00    -0.298 NA
ATOM      4  N   UNL     1      10.979   4.246  -0.179  0.00  0.00    -0.311 N 
ATOM      6  C   UNL     1      10.763   4.752   2.323  0.00  0.00    +0.024 C 
ATOM      7  C   UNL     1      12.694   3.491   1.501  0.00  0.00    +0.050 C 
ATOM      8  C   UNL     1      11.543   3.456   2.503  0.00  0.00    +0.017 C 
ATOM      9  C   UNL     1      11.683   5.963   2.588  0.00  0.00    +0.090 C 
ATOM     10  C   UNL     1      13.605   4.703   1.804  0.00  0.00    +0.094 C 
ATOM     12  C   UNL     1      10.152   4.772   0.916  0.00  0.00    +0.130 C 
ATOM     13  C   UNL     1      12.170   3.563   0.079  0.00  0.00    +0.026 A 
ATOM     18  C   UNL     1      12.852   2.993  -0.926  0.00  0.00    +0.022 A 
ATOM     19  C   UNL     1      10.460   4.376  -1.483  0.00  0.00    +0.259 A 
ATOM     20  C   UNL     1      11.265   3.756  -2.593  0.00  0.00    +0.047 A 
ATOM     21  C   UNL     1      12.392   3.099  -2.282  0.00  0.00    +0.015 A 
ENDROOT
BRANCH   3  11
ATOM      2  O   UNL     1      18.180   7.942   4.080  0.00  0.00    -0.276 OA
ATOM      5  N   UNL     1      15.941   8.239   3.536  0.00  0.00    -0.302 N 
ATOM     11  C   UNL     1      13.740   7.103   2.039  0.00  0.00    +0.060 C 
ATOM     14  C   UNL     1      13.594   7.482   3.518  0.00  0.00    +0.038 C 
ATOM     15  C   UNL     1      15.198   6.751   1.717  0.00  0.00    +0.038 C 
ATOM     16  C   UNL     1      14.564   8.602   3.894  0.00  0.00    +0.109 C 
ATOM     17  C   UNL     1      16.136   7.883   2.129  0.00  0.00    +0.109 C 
ATOM     22  C   UNL     1      17.031   8.252   4.406  0.00  0.00    +0.212 C 
ATOM     24  C   UNL     1      16.757   8.673   5.827  0.00  0.00    +0.109 C 
ENDBRANCH   3  11
BRANCH  20  23
ATOM     23  C   UNL     1      10.839   3.869  -4.000  0.00  0.00    -0.010 A 
ATOM     25  C   UNL     1       9.937   2.964  -4.563  0.00  0.00    -0.043 A 
ATOM     26  C   UNL     1      11.356   4.908  -4.778  0.00  0.00    +0.009 A 
ATOM     27  C   UNL     1       9.553   3.096  -5.898  0.00  0.00    +0.004 A 
ATOM     28  C   UNL     1       9.362   1.839  -3.764  0.00  0.00    +0.044 C 
ATOM     29  C   UNL     1      10.972   5.040  -6.113  0.00  0.00    +0.001 A 
ATOM     30  C   UNL     1      10.071   4.135  -6.673  0.00  0.00    +0.000 A 
ENDBRANCH  20  23
TORSDOF 2
ENDMDL
