MODEL 1
REMARK VINA RESULT:      -6.5      0.000      0.000
REMARK  Name = 28963042
REMARK  13 active torsions:
REMARK  status: ('A' for Active; 'I' for Inactive)
REMARK    1  A    between atoms: O_1  and  C_11
REMARK    2  A    between atoms: O_4  and  C_26
REMARK    3  A    between atoms: O_4  and  C_30
REMARK    4  A    between atoms: N_5  and  C_15
REMARK    5  A    between atoms: N_6  and  C_25
REMARK    6  A    between atoms: C_8  and  C_18
REMARK    7  A    between atoms: C_10  and  C_20
REMARK    8  A    between atoms: C_14  and  C_19
REMARK    9  A    between atoms: C_19  and  C_21
REMARK   10  A    between atoms: C_19  and  C_22
REMARK   11  A    between atoms: C_23  and  C_24
REMARK   12  A    between atoms: C_24  and  C_26
REMARK   13  A    between atoms: C_25  and  C_27
REMARK                            x       y       z     vdW  Elec       q    Type
REMARK                         _______ _______ _______ _____ _____    ______ ____
ROOT
ATOM      8  C   UNL     1      -4.694 -11.044  16.920  0.00  0.00    -0.027 C 
ATOM      9  C   UNL     1      -5.489 -10.456  15.706  0.00  0.00    +0.028 C 
ATOM     10  C   UNL     1      -7.037 -10.608  15.925  0.00  0.00    +0.012 C 
ATOM     11  C   UNL     1      -4.947 -11.009  14.357  0.00  0.00    +0.122 C 
ATOM     12  C   UNL     1      -3.184 -10.776  16.725  0.00  0.00    +0.007 C 
ATOM     13  C   UNL     1      -5.138 -10.318  18.211  0.00  0.00    +0.009 C 
ATOM     14  C   UNL     1      -3.418 -10.832  14.213  0.00  0.00    +0.029 C 
ATOM     15  C   UNL     1      -7.460  -9.940  17.264  0.00  0.00    +0.076 C 
ATOM     16  C   UNL     1      -2.641 -11.351  15.424  0.00  0.00    +0.007 C 
ATOM     17  C   UNL     1      -6.637 -10.408  18.463  0.00  0.00    +0.023 C 
ATOM     18  C   UNL     1      -4.912 -12.569  17.090  0.00  0.00    +0.011 C 
ATOM     20  C   UNL     1      -7.882 -10.024  14.781  0.00  0.00    +0.010 C 
ENDROOT
BRANCH  15   5
ATOM      3  O   UNL     1      -9.517  -7.935  17.540  0.00  0.00    -0.276 OA
ATOM      5  N   UNL     1      -8.861 -10.162  17.555  0.00  0.00    -0.312 N 
ATOM     23  C   UNL     1      -9.776  -9.129  17.669  0.00  0.00    +0.215 C 
ATOM     33  H   UNL     1      -9.164 -11.114  17.743  0.00  0.00    +0.149 HD
BRANCH  23  24
ATOM     24  C   UNL     1     -11.170  -9.653  17.976  0.00  0.00    +0.124 C 
BRANCH  24  26
ATOM     26  C   UNL     1     -11.355 -10.026  19.439  0.00  0.00    +0.168 C 
BRANCH  26   4
ATOM      4  O   UNL     1     -10.300 -10.886  19.845  0.00  0.00    -0.382 OA
ATOM     30  C   UNL     1     -10.797 -12.117  20.353  0.00  0.00    +0.194 C 
ENDBRANCH  26   4
ENDBRANCH  24  26
ENDBRANCH  23  24
ENDBRANCH  15   5
BRANCH  11   1
ATOM      1  O   UNL     1      -5.544 -10.294  13.274  0.00  0.00    -0.391 OA
ATOM     34  H   UNL     1      -5.747 -10.930  12.566  0.00  0.00    +0.210 HD
ENDBRANCH  11   1
BRANCH  14  19
ATOM     19  C   UNL     1      -2.885 -11.499  12.938  0.00  0.00    +0.077 C 
ATOM     21  C   UNL     1      -1.687 -12.382  13.269  0.00  0.00    +0.017 C 
BRANCH  19  22
ATOM      2  O   UNL     1      -1.418  -9.899  11.866  0.00  0.00    -0.276 OA
ATOM      6  N   UNL     1      -3.572 -10.152  11.044  0.00  0.00    -0.311 N 
ATOM     22  C   UNL     1      -2.523 -10.435  11.907  0.00  0.00    +0.216 C 
ATOM     35  H   UNL     1      -4.438 -10.676  11.111  0.00  0.00    +0.149 HD
BRANCH   6  25
ATOM     25  C   UNL     1      -3.470  -9.177   9.983  0.00  0.00    +0.141 C 
BRANCH  25  27
ATOM      7  N   UNL     1      -6.931  -8.100   8.902  0.00  0.00    -0.263 NA
ATOM     27  C   UNL     1      -4.739  -9.079   9.185  0.00  0.00    -0.012 A 
ATOM     28  C   UNL     1      -4.920  -9.837   8.033  0.00  0.00    +0.008 A 
ATOM     29  C   UNL     1      -5.765  -8.234   9.574  0.00  0.00    +0.115 A 
ATOM     31  C   UNL     1      -6.106  -9.727   7.315  0.00  0.00    +0.020 A 
ATOM     32  C   UNL     1      -7.071  -8.852   7.789  0.00  0.00    +0.111 A 
ENDBRANCH  25  27
ENDBRANCH   6  25
ENDBRANCH  19  22
ENDBRANCH  14  19
TORSDOF 9
ENDMDL
MODEL 2
REMARK VINA RESULT:      -6.3     24.505     26.827
REMARK  Name = 28963042
REMARK  13 active torsions:
REMARK  status: ('A' for Active; 'I' for Inactive)
REMARK    1  A    between atoms: O_1  and  C_11
REMARK    2  A    between atoms: O_4  and  C_26
REMARK    3  A    between atoms: O_4  and  C_30
REMARK    4  A    between atoms: N_5  and  C_15
REMARK    5  A    between atoms: N_6  and  C_25
REMARK    6  A    between atoms: C_8  and  C_18
REMARK    7  A    between atoms: C_10  and  C_20
REMARK    8  A    between atoms: C_14  and  C_19
REMARK    9  A    between atoms: C_19  and  C_21
REMARK   10  A    between atoms: C_19  and  C_22
REMARK   11  A    between atoms: C_23  and  C_24
REMARK   12  A    between atoms: C_24  and  C_26
REMARK   13  A    between atoms: C_25  and  C_27
REMARK                            x       y       z     vdW  Elec       q    Type
REMARK                         _______ _______ _______ _____ _____    ______ ____
ROOT
ATOM      8  C   UNL     1       9.423   6.326   6.325  0.00  0.00    -0.027 C 
ATOM      9  C   UNL     1      10.503   7.349   5.837  0.00  0.00    +0.028 C 
ATOM     10  C   UNL     1      10.114   8.813   6.251  0.00  0.00    +0.012 C 
ATOM     11  C   UNL     1      10.833   7.145   4.330  0.00  0.00    +0.122 C 
ATOM     12  C   UNL     1       9.893   4.888   6.002  0.00  0.00    +0.007 C 
ATOM     13  C   UNL     1       9.278   6.441   7.860  0.00  0.00    +0.009 C 
ATOM     14  C   UNL     1      11.201   5.681   3.995  0.00  0.00    +0.029 C 
ATOM     15  C   UNL     1       9.896   8.899   7.788  0.00  0.00    +0.076 C 
ATOM     16  C   UNL     1      10.178   4.674   4.522  0.00  0.00    +0.007 C 
ATOM     17  C   UNL     1       8.926   7.847   8.324  0.00  0.00    +0.023 C 
ATOM     18  C   UNL     1       8.042   6.560   5.662  0.00  0.00    +0.011 C 
ATOM     20  C   UNL     1      11.148   9.869   5.828  0.00  0.00    +0.010 C 
ENDROOT
BRANCH  15   5
ATOM      3  O   UNL     1      11.332  10.869   9.333  0.00  0.00    -0.276 OA
ATOM      5  N   UNL     1       9.422  10.206   8.191  0.00  0.00    -0.312 N 
ATOM     23  C   UNL     1      10.190  11.086   8.936  0.00  0.00    +0.215 C 
ATOM     33  H   UNL     1       8.464  10.457   7.965  0.00  0.00    +0.149 HD
BRANCH  23  24
ATOM     24  C   UNL     1       9.443  12.381   9.210  0.00  0.00    +0.124 C 
BRANCH  24  26
ATOM     26  C   UNL     1       8.242  12.191  10.126  0.00  0.00    +0.168 C 
BRANCH  26   4
ATOM      4  O   UNL     1       8.672  12.217  11.480  0.00  0.00    -0.382 OA
ATOM     30  C   UNL     1       9.424  13.389  11.766  0.00  0.00    +0.194 C 
ENDBRANCH  26   4
ENDBRANCH  24  26
ENDBRANCH  23  24
ENDBRANCH  15   5
BRANCH  11   1
ATOM      1  O   UNL     1      11.965   7.941   3.978  0.00  0.00    -0.391 OA
ATOM     34  H   UNL     1      12.708   7.682   4.551  0.00  0.00    +0.210 HD
ENDBRANCH  11   1
BRANCH  14  19
ATOM     19  C   UNL     1      11.394   5.474   2.487  0.00  0.00    +0.077 C 
ATOM     21  C   UNL     1      10.566   4.286   2.010  0.00  0.00    +0.017 C 
BRANCH  19  22
ATOM      2  O   UNL     1      13.685   6.205   2.201  0.00  0.00    -0.276 OA
ATOM      6  N   UNL     1      13.185   3.965   1.862  0.00  0.00    -0.311 N 
ATOM     22  C   UNL     1      12.874   5.281   2.175  0.00  0.00    +0.216 C 
ATOM     35  H   UNL     1      12.467   3.250   1.912  0.00  0.00    +0.149 HD
BRANCH   6  25
ATOM     25  C   UNL     1      14.523   3.537   1.528  0.00  0.00    +0.141 C 
BRANCH  25  27
ATOM      7  N   UNL     1      16.611   4.687  -1.409  0.00  0.00    -0.263 NA
ATOM     27  C   UNL     1      14.907   3.929   0.130  0.00  0.00    -0.012 A 
ATOM     28  C   UNL     1      13.974   3.914  -0.900  0.00  0.00    +0.008 A 
ATOM     29  C   UNL     1      16.201   4.321  -0.173  0.00  0.00    +0.115 A 
ATOM     31  C   UNL     1      14.357   4.284  -2.185  0.00  0.00    +0.020 A 
ATOM     32  C   UNL     1      15.676   4.660  -2.384  0.00  0.00    +0.111 A 
ENDBRANCH  25  27
ENDBRANCH   6  25
ENDBRANCH  19  22
ENDBRANCH  14  19
TORSDOF 9
ENDMDL
MODEL 3
REMARK VINA RESULT:      -6.2      2.342      8.073
REMARK  Name = 28963042
REMARK  13 active torsions:
REMARK  status: ('A' for Active; 'I' for Inactive)
REMARK    1  A    between atoms: O_1  and  C_11
REMARK    2  A    between atoms: O_4  and  C_26
REMARK    3  A    between atoms: O_4  and  C_30
REMARK    4  A    between atoms: N_5  and  C_15
REMARK    5  A    between atoms: N_6  and  C_25
REMARK    6  A    between atoms: C_8  and  C_18
REMARK    7  A    between atoms: C_10  and  C_20
REMARK    8  A    between atoms: C_14  and  C_19
REMARK    9  A    between atoms: C_19  and  C_21
REMARK   10  A    between atoms: C_19  and  C_22
REMARK   11  A    between atoms: C_23  and  C_24
REMARK   12  A    between atoms: C_24  and  C_26
REMARK   13  A    between atoms: C_25  and  C_27
REMARK                            x       y       z     vdW  Elec       q    Type
REMARK                         _______ _______ _______ _____ _____    ______ ____
ROOT
ATOM      8  C   UNL     1      -3.364 -10.728  11.005  0.00  0.00    -0.027 C 
ATOM      9  C   UNL     1      -4.688 -10.318  11.732  0.00  0.00    +0.028 C 
ATOM     10  C   UNL     1      -5.462  -9.226  10.911  0.00  0.00    +0.012 C 
ATOM     11  C   UNL     1      -4.426  -9.971  13.226  0.00  0.00    +0.122 C 
ATOM     12  C   UNL     1      -2.686 -11.882  11.779  0.00  0.00    +0.007 C 
ATOM     13  C   UNL     1      -3.707 -11.248   9.590  0.00  0.00    +0.009 C 
ATOM     14  C   UNL     1      -3.655 -11.087  13.970  0.00  0.00    +0.029 C 
ATOM     15  C   UNL     1      -5.735  -9.730   9.467  0.00  0.00    +0.076 C 
ATOM     16  C   UNL     1      -2.392 -11.532  13.231  0.00  0.00    +0.007 C 
ATOM     17  C   UNL     1      -4.483 -10.240   8.754  0.00  0.00    +0.023 C 
ATOM     18  C   UNL     1      -2.362  -9.551  10.887  0.00  0.00    +0.011 C 
ATOM     20  C   UNL     1      -6.790  -8.797  11.556  0.00  0.00    +0.010 C 
ENDROOT
BRANCH  15   5
ATOM      3  O   UNL     1      -7.920 -10.059   7.610  0.00  0.00    -0.276 OA
ATOM      5  N   UNL     1      -6.344  -8.705   8.646  0.00  0.00    -0.312 N 
ATOM     23  C   UNL     1      -7.395  -8.962   7.780  0.00  0.00    +0.215 C 
ATOM     33  H   UNL     1      -5.938  -7.773   8.667  0.00  0.00    +0.149 HD
BRANCH  23  24
ATOM     24  C   UNL     1      -7.834  -7.702   7.051  0.00  0.00    +0.124 C 
BRANCH  24  26
ATOM     26  C   UNL     1      -8.428  -6.655   7.982  0.00  0.00    +0.168 C 
BRANCH  26   4
ATOM      4  O   UNL     1      -9.046  -7.301   9.087  0.00  0.00    -0.382 OA
ATOM     30  C   UNL     1     -10.412  -6.927   9.213  0.00  0.00    +0.194 C 
ENDBRANCH  26   4
ENDBRANCH  24  26
ENDBRANCH  23  24
ENDBRANCH  15   5
BRANCH  11   1
ATOM      1  O   UNL     1      -5.672  -9.815  13.906  0.00  0.00    -0.391 OA
ATOM     34  H   UNL     1      -6.113  -9.023  13.552  0.00  0.00    +0.210 HD
ENDBRANCH  11   1
BRANCH  14  19
ATOM     19  C   UNL     1      -3.292 -10.672  15.401  0.00  0.00    +0.077 C 
ATOM     21  C   UNL     1      -1.822 -10.966  15.676  0.00  0.00    +0.017 C 
BRANCH  19  22
ATOM      2  O   UNL     1      -4.449 -12.591  16.319  0.00  0.00    -0.276 OA
ATOM      6  N   UNL     1      -4.695 -10.539  17.373  0.00  0.00    -0.311 N 
ATOM     22  C   UNL     1      -4.199 -11.390  16.396  0.00  0.00    +0.216 C 
ATOM     35  H   UNL     1      -4.400  -9.569  17.397  0.00  0.00    +0.149 HD
BRANCH   6  25
ATOM     25  C   UNL     1      -5.578 -10.988  18.425  0.00  0.00    +0.141 C 
BRANCH  25  27
ATOM      7  N   UNL     1      -9.326 -10.671  18.811  0.00  0.00    -0.263 NA
ATOM     27  C   UNL     1      -6.989 -10.522  18.212  0.00  0.00    -0.012 A 
ATOM     28  C   UNL     1      -7.287  -9.550  17.264  0.00  0.00    +0.008 A 
ATOM     29  C   UNL     1      -8.036 -11.046  18.953  0.00  0.00    +0.115 A 
ATOM     31  C   UNL     1      -8.603  -9.138  17.088  0.00  0.00    +0.020 A 
ATOM     32  C   UNL     1      -9.577  -9.725  17.879  0.00  0.00    +0.111 A 
ENDBRANCH  25  27
ENDBRANCH   6  25
ENDBRANCH  19  22
ENDBRANCH  14  19
TORSDOF 9
ENDMDL
MODEL 4
REMARK VINA RESULT:      -6.2      1.110      1.701
REMARK  Name = 28963042
REMARK  13 active torsions:
REMARK  status: ('A' for Active; 'I' for Inactive)
REMARK    1  A    between atoms: O_1  and  C_11
REMARK    2  A    between atoms: O_4  and  C_26
REMARK    3  A    between atoms: O_4  and  C_30
REMARK    4  A    between atoms: N_5  and  C_15
REMARK    5  A    between atoms: N_6  and  C_25
REMARK    6  A    between atoms: C_8  and  C_18
REMARK    7  A    between atoms: C_10  and  C_20
REMARK    8  A    between atoms: C_14  and  C_19
REMARK    9  A    between atoms: C_19  and  C_21
REMARK   10  A    between atoms: C_19  and  C_22
REMARK   11  A    between atoms: C_23  and  C_24
REMARK   12  A    between atoms: C_24  and  C_26
REMARK   13  A    between atoms: C_25  and  C_27
REMARK                            x       y       z     vdW  Elec       q    Type
REMARK                         _______ _______ _______ _____ _____    ______ ____
ROOT
ATOM      8  C   UNL     1      -4.821 -11.043  16.808  0.00  0.00    -0.027 C 
ATOM      9  C   UNL     1      -5.595 -10.448  15.584  0.00  0.00    +0.028 C 
ATOM     10  C   UNL     1      -7.147 -10.574  15.789  0.00  0.00    +0.012 C 
ATOM     11  C   UNL     1      -5.050 -11.015  14.242  0.00  0.00    +0.122 C 
ATOM     12  C   UNL     1      -3.305 -10.800  16.626  0.00  0.00    +0.007 C 
ATOM     13  C   UNL     1      -5.266 -10.305  18.092  0.00  0.00    +0.009 C 
ATOM     14  C   UNL     1      -3.516 -10.864  14.112  0.00  0.00    +0.029 C 
ATOM     15  C   UNL     1      -7.572  -9.894  17.120  0.00  0.00    +0.076 C 
ATOM     16  C   UNL     1      -2.759 -11.389  15.333  0.00  0.00    +0.007 C 
ATOM     17  C   UNL     1      -6.768 -10.370  18.330  0.00  0.00    +0.023 C 
ATOM     18  C   UNL     1      -5.065 -12.564  16.983  0.00  0.00    +0.011 C 
ATOM     20  C   UNL     1      -7.972  -9.982  14.634  0.00  0.00    +0.010 C 
ENDROOT
BRANCH  15   5
ATOM      3  O   UNL     1      -9.574  -7.851  17.500  0.00  0.00    -0.276 OA
ATOM      5  N   UNL     1      -8.979 -10.092  17.399  0.00  0.00    -0.312 N 
ATOM     23  C   UNL     1      -9.866  -9.041  17.567  0.00  0.00    +0.215 C 
ATOM     33  H   UNL     1      -9.309 -11.044  17.537  0.00  0.00    +0.149 HD
BRANCH  23  24
ATOM     24  C   UNL     1     -11.274  -9.543  17.845  0.00  0.00    +0.124 C 
BRANCH  24  26
ATOM     26  C   UNL     1     -12.091  -9.751  16.578  0.00  0.00    +0.168 C 
BRANCH  26   4
ATOM      4  O   UNL     1     -11.241  -9.644  15.444  0.00  0.00    -0.382 OA
ATOM     30  C   UNL     1     -11.617 -10.556  14.422  0.00  0.00    +0.194 C 
ENDBRANCH  26   4
ENDBRANCH  24  26
ENDBRANCH  23  24
ENDBRANCH  15   5
BRANCH  11   1
ATOM      1  O   UNL     1      -5.624 -10.296  13.151  0.00  0.00    -0.391 OA
ATOM     34  H   UNL     1      -6.027  -9.483  13.502  0.00  0.00    +0.210 HD
ENDBRANCH  11   1
BRANCH  14  19
ATOM     19  C   UNL     1      -2.982 -11.545  12.846  0.00  0.00    +0.077 C 
ATOM     21  C   UNL     1      -1.790 -12.431  13.189  0.00  0.00    +0.017 C 
BRANCH  19  22
ATOM      2  O   UNL     1      -1.518  -9.928  11.793  0.00  0.00    -0.276 OA
ATOM      6  N   UNL     1      -3.635 -10.252  10.902  0.00  0.00    -0.311 N 
ATOM     22  C   UNL     1      -2.611 -10.492  11.807  0.00  0.00    +0.216 C 
ATOM     35  H   UNL     1      -4.489 -10.797  10.949  0.00  0.00    +0.149 HD
BRANCH   6  25
ATOM     25  C   UNL     1      -3.519  -9.295   9.826  0.00  0.00    +0.141 C 
BRANCH  25  27
ATOM      7  N   UNL     1      -6.178  -9.670   7.163  0.00  0.00    -0.263 NA
ATOM     27  C   UNL     1      -4.813  -9.127   9.083  0.00  0.00    -0.012 A 
ATOM     28  C   UNL     1      -5.823  -8.309   9.578  0.00  0.00    +0.008 A 
ATOM     29  C   UNL     1      -5.038  -9.779   7.881  0.00  0.00    +0.115 A 
ATOM     31  C   UNL     1      -7.010  -8.171   8.867  0.00  0.00    +0.020 A 
ATOM     32  C   UNL     1      -7.136  -8.866   7.675  0.00  0.00    +0.111 A 
ENDBRANCH  25  27
ENDBRANCH   6  25
ENDBRANCH  19  22
ENDBRANCH  14  19
TORSDOF 9
ENDMDL
MODEL 5
REMARK VINA RESULT:      -6.1      2.036      8.115
REMARK  Name = 28963042
REMARK  13 active torsions:
REMARK  status: ('A' for Active; 'I' for Inactive)
REMARK    1  A    between atoms: O_1  and  C_11
REMARK    2  A    between atoms: O_4  and  C_26
REMARK    3  A    between atoms: O_4  and  C_30
REMARK    4  A    between atoms: N_5  and  C_15
REMARK    5  A    between atoms: N_6  and  C_25
REMARK    6  A    between atoms: C_8  and  C_18
REMARK    7  A    between atoms: C_10  and  C_20
REMARK    8  A    between atoms: C_14  and  C_19
REMARK    9  A    between atoms: C_19  and  C_21
REMARK   10  A    between atoms: C_19  and  C_22
REMARK   11  A    between atoms: C_23  and  C_24
REMARK   12  A    between atoms: C_24  and  C_26
REMARK   13  A    between atoms: C_25  and  C_27
REMARK                            x       y       z     vdW  Elec       q    Type
REMARK                         _______ _______ _______ _____ _____    ______ ____
ROOT
ATOM      8  C   UNL     1      -4.149 -11.896  15.704  0.00  0.00    -0.027 C 
ATOM      9  C   UNL     1      -5.423 -11.132  15.212  0.00  0.00    +0.028 C 
ATOM     10  C   UNL     1      -5.124 -10.339  13.889  0.00  0.00    +0.012 C 
ATOM     11  C   UNL     1      -6.060 -10.299  16.361  0.00  0.00    +0.122 C 
ATOM     12  C   UNL     1      -4.507 -12.755  16.939  0.00  0.00    +0.007 C 
ATOM     13  C   UNL     1      -3.673 -12.853  14.587  0.00  0.00    +0.009 C 
ATOM     14  C   UNL     1      -6.320 -11.141  17.632  0.00  0.00    +0.029 C 
ATOM     15  C   UNL     1      -4.575 -11.299  12.797  0.00  0.00    +0.076 C 
ATOM     16  C   UNL     1      -5.094 -11.937  18.081  0.00  0.00    +0.007 C 
ATOM     17  C   UNL     1      -3.392 -12.144  13.269  0.00  0.00    +0.023 C 
ATOM     18  C   UNL     1      -2.991 -10.938  16.082  0.00  0.00    +0.011 C 
ATOM     20  C   UNL     1      -6.343  -9.585  13.333  0.00  0.00    +0.010 C 
ENDROOT
BRANCH  15   5
ATOM      3  O   UNL     1      -5.332 -11.899  10.078  0.00  0.00    -0.276 OA
ATOM      5  N   UNL     1      -4.178 -10.583  11.603  0.00  0.00    -0.312 N 
ATOM     23  C   UNL     1      -4.596 -10.950  10.334  0.00  0.00    +0.215 C 
ATOM     33  H   UNL     1      -3.517  -9.818  11.703  0.00  0.00    +0.149 HD
BRANCH  23  24
ATOM     24  C   UNL     1      -4.030 -10.021   9.273  0.00  0.00    +0.124 C 
BRANCH  24  26
ATOM     26  C   UNL     1      -4.705  -8.657   9.256  0.00  0.00    +0.168 C 
BRANCH  26   4
ATOM      4  O   UNL     1      -5.870  -8.697  10.069  0.00  0.00    -0.382 OA
ATOM     30  C   UNL     1      -7.032  -8.335   9.335  0.00  0.00    +0.194 C 
ENDBRANCH  26   4
ENDBRANCH  24  26
ENDBRANCH  23  24
ENDBRANCH  15   5
BRANCH  11   1
ATOM      1  O   UNL     1      -7.327  -9.795  15.940  0.00  0.00    -0.391 OA
ATOM     34  H   UNL     1      -7.171  -9.068  15.312  0.00  0.00    +0.210 HD
ENDBRANCH  11   1
BRANCH  14  19
ATOM     19  C   UNL     1      -6.825 -10.277  18.794  0.00  0.00    +0.077 C 
ATOM     21  C   UNL     1      -6.015 -10.566  20.053  0.00  0.00    +0.017 C 
BRANCH  19  22
ATOM      2  O   UNL     1      -8.731 -11.378  19.804  0.00  0.00    -0.276 OA
ATOM      6  N   UNL     1      -9.115  -9.699  18.250  0.00  0.00    -0.311 N 
ATOM     22  C   UNL     1      -8.312 -10.528  19.021  0.00  0.00    +0.216 C 
ATOM     35  H   UNL     1      -8.692  -8.986  17.666  0.00  0.00    +0.149 HD
BRANCH   6  25
ATOM     25  C   UNL     1     -10.558  -9.750  18.291  0.00  0.00    +0.141 C 
BRANCH  25  27
ATOM      7  N   UNL     1     -13.115  -7.848  16.256  0.00  0.00    -0.263 NA
ATOM     27  C   UNL     1     -11.183  -8.675  17.449  0.00  0.00    -0.012 A 
ATOM     28  C   UNL     1     -10.461  -7.546  17.078  0.00  0.00    +0.008 A 
ATOM     29  C   UNL     1     -12.495  -8.778  17.015  0.00  0.00    +0.115 A 
ATOM     31  C   UNL     1     -11.065  -6.567  16.296  0.00  0.00    +0.020 A 
ATOM     32  C   UNL     1     -12.382  -6.765  15.914  0.00  0.00    +0.111 A 
ENDBRANCH  25  27
ENDBRANCH   6  25
ENDBRANCH  19  22
ENDBRANCH  14  19
TORSDOF 9
ENDMDL
MODEL 6
REMARK VINA RESULT:      -6.0     12.100     18.522
REMARK  Name = 28963042
REMARK  13 active torsions:
REMARK  status: ('A' for Active; 'I' for Inactive)
REMARK    1  A    between atoms: O_1  and  C_11
REMARK    2  A    between atoms: O_4  and  C_26
REMARK    3  A    between atoms: O_4  and  C_30
REMARK    4  A    between atoms: N_5  and  C_15
REMARK    5  A    between atoms: N_6  and  C_25
REMARK    6  A    between atoms: C_8  and  C_18
REMARK    7  A    between atoms: C_10  and  C_20
REMARK    8  A    between atoms: C_14  and  C_19
REMARK    9  A    between atoms: C_19  and  C_21
REMARK   10  A    between atoms: C_19  and  C_22
REMARK   11  A    between atoms: C_23  and  C_24
REMARK   12  A    between atoms: C_24  and  C_26
REMARK   13  A    between atoms: C_25  and  C_27
REMARK                            x       y       z     vdW  Elec       q    Type
REMARK                         _______ _______ _______ _____ _____    ______ ____
ROOT
ATOM      8  C   UNL     1       3.037 -14.951  -0.604  0.00  0.00    -0.027 C 
ATOM      9  C   UNL     1       1.591 -14.577  -1.071  0.00  0.00    +0.028 C 
ATOM     10  C   UNL     1       1.634 -13.692  -2.368  0.00  0.00    +0.012 C 
ATOM     11  C   UNL     1       0.749 -14.002   0.104  0.00  0.00    +0.122 C 
ATOM     12  C   UNL     1       2.956 -15.915   0.604  0.00  0.00    +0.007 C 
ATOM     13  C   UNL     1       3.761 -15.694  -1.750  0.00  0.00    +0.009 C 
ATOM     14  C   UNL     1       0.758 -14.922   1.347  0.00  0.00    +0.029 C 
ATOM     15  C   UNL     1       2.429 -14.416  -3.489  0.00  0.00    +0.076 C 
ATOM     16  C   UNL     1       2.167 -15.339   1.771  0.00  0.00    +0.007 C 
ATOM     17  C   UNL     1       3.811 -14.894  -3.044  0.00  0.00    +0.023 C 
ATOM     18  C   UNL     1       3.869 -13.709  -0.195  0.00  0.00    +0.011 C 
ATOM     20  C   UNL     1       0.243 -13.310  -2.900  0.00  0.00    +0.010 C 
ENDROOT
BRANCH  15   5
ATOM      3  O   UNL     1       1.882 -15.138  -6.230  0.00  0.00    -0.276 OA
ATOM      5  N   UNL     1       2.588 -13.580  -4.660  0.00  0.00    -0.312 N 
ATOM     23  C   UNL     1       2.298 -14.019  -5.942  0.00  0.00    +0.215 C 
ATOM     33  H   UNL     1       2.989 -12.654  -4.534  0.00  0.00    +0.149 HD
BRANCH  23  24
ATOM     24  C   UNL     1       2.555 -12.932  -6.973  0.00  0.00    +0.124 C 
BRANCH  24  26
ATOM     26  C   UNL     1       1.759 -11.663  -6.709  0.00  0.00    +0.168 C 
BRANCH  26   4
ATOM      4  O   UNL     1       2.513 -10.798  -5.870  0.00  0.00    -0.382 OA
ATOM     30  C   UNL     1       1.749 -10.353  -4.757  0.00  0.00    +0.194 C 
ENDBRANCH  26   4
ENDBRANCH  24  26
ENDBRANCH  23  24
ENDBRANCH  15   5
BRANCH  11   1
ATOM      1  O   UNL     1      -0.614 -13.877  -0.301  0.00  0.00    -0.391 OA
ATOM     34  H   UNL     1      -0.937 -13.005  -0.013  0.00  0.00    +0.210 HD
ENDBRANCH  11   1
BRANCH  14  19
ATOM     19  C   UNL     1       0.034 -14.278   2.537  0.00  0.00    +0.077 C 
ATOM     21  C   UNL     1       0.435 -14.972   3.833  0.00  0.00    +0.017 C 
BRANCH  19  22
ATOM      2  O   UNL     1      -2.076 -15.386   2.106  0.00  0.00    -0.276 OA
ATOM      6  N   UNL     1      -2.069 -13.083   2.389  0.00  0.00    -0.311 N 
ATOM     22  C   UNL     1      -1.474 -14.335   2.320  0.00  0.00    +0.216 C 
ATOM     35  H   UNL     1      -1.510 -12.269   2.621  0.00  0.00    +0.149 HD
BRANCH   6  25
ATOM     25  C   UNL     1      -3.489 -12.882   2.214  0.00  0.00    +0.141 C 
BRANCH  25  27
ATOM      7  N   UNL     1      -6.168 -11.750   4.632  0.00  0.00    -0.263 NA
ATOM     27  C   UNL     1      -4.158 -12.456   3.489  0.00  0.00    -0.012 A 
ATOM     28  C   UNL     1      -3.442 -12.364   4.678  0.00  0.00    +0.008 A 
ATOM     29  C   UNL     1      -5.507 -12.140   3.519  0.00  0.00    +0.115 A 
ATOM     31  C   UNL     1      -4.087 -11.966   5.843  0.00  0.00    +0.020 A 
ATOM     32  C   UNL     1      -5.439 -11.672   5.767  0.00  0.00    +0.111 A 
ENDBRANCH  25  27
ENDBRANCH   6  25
ENDBRANCH  19  22
ENDBRANCH  14  19
TORSDOF 9
ENDMDL
MODEL 7
REMARK VINA RESULT:      -5.9     24.285     27.099
REMARK  Name = 28963042
REMARK  13 active torsions:
REMARK  status: ('A' for Active; 'I' for Inactive)
REMARK    1  A    between atoms: O_1  and  C_11
REMARK    2  A    between atoms: O_4  and  C_26
REMARK    3  A    between atoms: O_4  and  C_30
REMARK    4  A    between atoms: N_5  and  C_15
REMARK    5  A    between atoms: N_6  and  C_25
REMARK    6  A    between atoms: C_8  and  C_18
REMARK    7  A    between atoms: C_10  and  C_20
REMARK    8  A    between atoms: C_14  and  C_19
REMARK    9  A    between atoms: C_19  and  C_21
REMARK   10  A    between atoms: C_19  and  C_22
REMARK   11  A    between atoms: C_23  and  C_24
REMARK   12  A    between atoms: C_24  and  C_26
REMARK   13  A    between atoms: C_25  and  C_27
REMARK                            x       y       z     vdW  Elec       q    Type
REMARK                         _______ _______ _______ _____ _____    ______ ____
ROOT
ATOM      8  C   UNL     1       9.785   6.545   6.541  0.00  0.00    -0.027 C 
ATOM      9  C   UNL     1      10.308   7.481   5.401  0.00  0.00    +0.028 C 
ATOM     10  C   UNL     1      11.380   6.745   4.520  0.00  0.00    +0.012 C 
ATOM     11  C   UNL     1      10.740   8.867   5.961  0.00  0.00    +0.122 C 
ATOM     12  C   UNL     1       8.652   7.259   7.315  0.00  0.00    +0.007 C 
ATOM     13  C   UNL     1       9.190   5.266   5.909  0.00  0.00    +0.009 C 
ATOM     14  C   UNL     1       9.639   9.529   6.823  0.00  0.00    +0.029 C 
ATOM     15  C   UNL     1      10.794   5.423   3.952  0.00  0.00    +0.076 C 
ATOM     16  C   UNL     1       9.083   8.597   7.900  0.00  0.00    +0.007 C 
ATOM     17  C   UNL     1      10.177   4.522   5.021  0.00  0.00    +0.023 C 
ATOM     18  C   UNL     1      10.900   6.149   7.542  0.00  0.00    +0.011 C 
ATOM     20  C   UNL     1      11.917   7.600   3.360  0.00  0.00    +0.010 C 
ENDROOT
BRANCH  15   5
ATOM      3  O   UNL     1      10.421   3.953   1.496  0.00  0.00    -0.276 OA
ATOM      5  N   UNL     1      11.792   4.660   3.231  0.00  0.00    -0.312 N 
ATOM     23  C   UNL     1      11.514   3.984   2.054  0.00  0.00    +0.215 C 
ATOM     33  H   UNL     1      12.716   4.571   3.645  0.00  0.00    +0.149 HD
BRANCH  23  24
ATOM     24  C   UNL     1      12.747   3.274   1.517  0.00  0.00    +0.124 C 
BRANCH  24  26
ATOM     26  C   UNL     1      13.494   4.090   0.472  0.00  0.00    +0.168 C 
BRANCH  26   4
ATOM      4  O   UNL     1      13.551   5.449   0.885  0.00  0.00    -0.382 OA
ATOM     30  C   UNL     1      14.801   5.759   1.485  0.00  0.00    +0.194 C 
ENDBRANCH  26   4
ENDBRANCH  24  26
ENDBRANCH  23  24
ENDBRANCH  15   5
BRANCH  11   1
ATOM      1  O   UNL     1      11.002   9.760   4.879  0.00  0.00    -0.391 OA
ATOM     34  H   UNL     1      11.275   9.231   4.109  0.00  0.00    +0.210 HD
ENDBRANCH  11   1
BRANCH  14  19
ATOM     19  C   UNL     1      10.130  10.828   7.473  0.00  0.00    +0.077 C 
ATOM     21  C   UNL     1      10.177  10.672   8.989  0.00  0.00    +0.017 C 
BRANCH  19  22
ATOM      2  O   UNL     1       9.161  13.036   7.701  0.00  0.00    -0.276 OA
ATOM      6  N   UNL     1       8.512  11.720   5.904  0.00  0.00    -0.311 N 
ATOM     22  C   UNL     1       9.230  11.988   7.061  0.00  0.00    +0.216 C 
ATOM     35  H   UNL     1       8.664  10.850   5.405  0.00  0.00    +0.149 HD
BRANCH   6  25
ATOM     25  C   UNL     1       7.591  12.667   5.319  0.00  0.00    +0.141 C 
BRANCH  25  27
ATOM      7  N   UNL     1       4.409  12.107   3.353  0.00  0.00    -0.263 NA
ATOM     27  C   UNL     1       6.540  11.988   4.488  0.00  0.00    -0.012 A 
ATOM     28  C   UNL     1       6.687  10.664   4.089  0.00  0.00    +0.008 A 
ATOM     29  C   UNL     1       5.392  12.659   4.098  0.00  0.00    +0.115 A 
ATOM     31  C   UNL     1       5.697  10.061   3.321  0.00  0.00    +0.020 A 
ATOM     32  C   UNL     1       4.587  10.819   2.984  0.00  0.00    +0.111 A 
ENDBRANCH  25  27
ENDBRANCH   6  25
ENDBRANCH  19  22
ENDBRANCH  14  19
TORSDOF 9
ENDMDL
MODEL 8
REMARK VINA RESULT:      -5.9     22.706     26.492
REMARK  Name = 28963042
REMARK  13 active torsions:
REMARK  status: ('A' for Active; 'I' for Inactive)
REMARK    1  A    between atoms: O_1  and  C_11
REMARK    2  A    between atoms: O_4  and  C_26
REMARK    3  A    between atoms: O_4  and  C_30
REMARK    4  A    between atoms: N_5  and  C_15
REMARK    5  A    between atoms: N_6  and  C_25
REMARK    6  A    between atoms: C_8  and  C_18
REMARK    7  A    between atoms: C_10  and  C_20
REMARK    8  A    between atoms: C_14  and  C_19
REMARK    9  A    between atoms: C_19  and  C_21
REMARK   10  A    between atoms: C_19  and  C_22
REMARK   11  A    between atoms: C_23  and  C_24
REMARK   12  A    between atoms: C_24  and  C_26
REMARK   13  A    between atoms: C_25  and  C_27
REMARK                            x       y       z     vdW  Elec       q    Type
REMARK                         _______ _______ _______ _____ _____    ______ ____
ROOT
ATOM      8  C   UNL     1      12.565   7.137   2.457  0.00  0.00    -0.027 C 
ATOM      9  C   UNL     1      11.653   5.874   2.606  0.00  0.00    +0.028 C 
ATOM     10  C   UNL     1      11.256   5.645   4.108  0.00  0.00    +0.012 C 
ATOM     11  C   UNL     1      12.271   4.643   1.882  0.00  0.00    +0.122 C 
ATOM     12  C   UNL     1      12.841   7.399   0.958  0.00  0.00    +0.007 C 
ATOM     13  C   UNL     1      11.817   8.368   3.020  0.00  0.00    +0.009 C 
ATOM     14  C   UNL     1      12.642   4.943   0.411  0.00  0.00    +0.029 C 
ATOM     15  C   UNL     1      10.573   6.916   4.686  0.00  0.00    +0.076 C 
ATOM     16  C   UNL     1      13.483   6.211   0.255  0.00  0.00    +0.007 C 
ATOM     17  C   UNL     1      11.383   8.193   4.468  0.00  0.00    +0.023 C 
ATOM     18  C   UNL     1      13.920   6.982   3.194  0.00  0.00    +0.011 C 
ATOM     20  C   UNL     1      10.335   4.433   4.325  0.00  0.00    +0.010 C 
ENDROOT
BRANCH  15   5
ATOM      3  O   UNL     1       8.028   7.253   6.004  0.00  0.00    -0.276 OA
ATOM      5  N   UNL     1      10.300   6.782   6.101  0.00  0.00    -0.312 N 
ATOM     23  C   UNL     1       9.037   6.965   6.642  0.00  0.00    +0.215 C 
ATOM     33  H   UNL     1      11.083   6.608   6.724  0.00  0.00    +0.149 HD
BRANCH  23  24
ATOM     24  C   UNL     1       9.043   6.760   8.148  0.00  0.00    +0.124 C 
BRANCH  24  26
ATOM     26  C   UNL     1      10.300   6.061   8.647  0.00  0.00    +0.168 C 
BRANCH  26   4
ATOM      4  O   UNL     1      10.072   4.660   8.703  0.00  0.00    -0.382 OA
ATOM     30  C   UNL     1       9.246   4.310   9.806  0.00  0.00    +0.194 C 
ENDBRANCH  26   4
ENDBRANCH  24  26
ENDBRANCH  23  24
ENDBRANCH  15   5
BRANCH  11   1
ATOM      1  O   UNL     1      11.320   3.579   1.853  0.00  0.00    -0.391 OA
ATOM     34  H   UNL     1      10.436   3.958   2.002  0.00  0.00    +0.210 HD
ENDBRANCH  11   1
BRANCH  14  19
ATOM     19  C   UNL     1      13.369   3.762  -0.245  0.00  0.00    +0.077 C 
ATOM     21  C   UNL     1      14.873   4.009  -0.251  0.00  0.00    +0.017 C 
BRANCH  19  22
ATOM      2  O   UNL     1      13.543   3.641  -2.657  0.00  0.00    -0.276 OA
ATOM      6  N   UNL     1      11.483   3.231  -1.672  0.00  0.00    -0.311 N 
ATOM     22  C   UNL     1      12.835   3.543  -1.657  0.00  0.00    +0.216 C 
ATOM     35  H   UNL     1      10.980   3.119  -0.799  0.00  0.00    +0.149 HD
BRANCH   6  25
ATOM     25  C   UNL     1      10.752   2.981  -2.893  0.00  0.00    +0.141 C 
BRANCH  25  27
ATOM      7  N   UNL     1       8.067   4.985  -4.646  0.00  0.00    -0.263 NA
ATOM     27  C   UNL     1       9.729   4.046  -3.163  0.00  0.00    -0.012 A 
ATOM     28  C   UNL     1       9.483   5.055  -2.238  0.00  0.00    +0.008 A 
ATOM     29  C   UNL     1       9.001   4.056  -4.342  0.00  0.00    +0.115 A 
ATOM     31  C   UNL     1       8.530   6.029  -2.516  0.00  0.00    +0.020 A 
ATOM     32  C   UNL     1       7.856   5.950  -3.724  0.00  0.00    +0.111 A 
ENDBRANCH  25  27
ENDBRANCH   6  25
ENDBRANCH  19  22
ENDBRANCH  14  19
TORSDOF 9
ENDMDL
MODEL 9
REMARK VINA RESULT:      -5.8     24.669     27.287
REMARK  Name = 28963042
REMARK  13 active torsions:
REMARK  status: ('A' for Active; 'I' for Inactive)
REMARK    1  A    between atoms: O_1  and  C_11
REMARK    2  A    between atoms: O_4  and  C_26
REMARK    3  A    between atoms: O_4  and  C_30
REMARK    4  A    between atoms: N_5  and  C_15
REMARK    5  A    between atoms: N_6  and  C_25
REMARK    6  A    between atoms: C_8  and  C_18
REMARK    7  A    between atoms: C_10  and  C_20
REMARK    8  A    between atoms: C_14  and  C_19
REMARK    9  A    between atoms: C_19  and  C_21
REMARK   10  A    between atoms: C_19  and  C_22
REMARK   11  A    between atoms: C_23  and  C_24
REMARK   12  A    between atoms: C_24  and  C_26
REMARK   13  A    between atoms: C_25  and  C_27
REMARK                            x       y       z     vdW  Elec       q    Type
REMARK                         _______ _______ _______ _____ _____    ______ ____
ROOT
ATOM      8  C   UNL     1      13.788   5.188   0.792  0.00  0.00    -0.027 C 
ATOM      9  C   UNL     1      12.240   5.246   1.015  0.00  0.00    +0.028 C 
ATOM     10  C   UNL     1      11.897   5.305   2.547  0.00  0.00    +0.012 C 
ATOM     11  C   UNL     1      11.512   4.132   0.209  0.00  0.00    +0.122 C 
ATOM     12  C   UNL     1      14.093   5.247  -0.723  0.00  0.00    +0.007 C 
ATOM     13  C   UNL     1      14.438   6.427   1.451  0.00  0.00    +0.009 C 
ATOM     14  C   UNL     1      11.902   4.129  -1.287  0.00  0.00    +0.029 C 
ATOM     15  C   UNL     1      12.617   6.510   3.214  0.00  0.00    +0.076 C 
ATOM     16  C   UNL     1      13.415   4.134  -1.510  0.00  0.00    +0.007 C 
ATOM     17  C   UNL     1      14.119   6.552   2.934  0.00  0.00    +0.023 C 
ATOM     18  C   UNL     1      14.425   3.904   1.379  0.00  0.00    +0.011 C 
ATOM     20  C   UNL     1      10.390   5.392   2.838  0.00  0.00    +0.010 C 
ENDROOT
BRANCH  15   5
ATOM      3  O   UNL     1      11.756   8.746   4.823  0.00  0.00    -0.276 OA
ATOM      5  N   UNL     1      12.418   6.527   4.648  0.00  0.00    -0.312 N 
ATOM     23  C   UNL     1      12.000   7.656   5.334  0.00  0.00    +0.215 C 
ATOM     33  H   UNL     1      12.655   5.690   5.173  0.00  0.00    +0.149 HD
BRANCH  23  24
ATOM     24  C   UNL     1      11.873   7.385   6.825  0.00  0.00    +0.124 C 
BRANCH  24  26
ATOM     26  C   UNL     1      10.880   6.276   7.143  0.00  0.00    +0.168 C 
BRANCH  26   4
ATOM      4  O   UNL     1       9.743   6.403   6.299  0.00  0.00    -0.382 OA
ATOM     30  C   UNL     1       8.690   7.105   6.945  0.00  0.00    +0.194 C 
ENDBRANCH  26   4
ENDBRANCH  24  26
ENDBRANCH  23  24
ENDBRANCH  15   5
BRANCH  11   1
ATOM      1  O   UNL     1      10.102   4.347   0.263  0.00  0.00    -0.391 OA
ATOM     34  H   UNL     1       9.941   5.307   0.255  0.00  0.00    +0.210 HD
ENDBRANCH  11   1
BRANCH  14  19
ATOM     19  C   UNL     1      11.277   2.945  -2.036  0.00  0.00    +0.077 C 
ATOM     21  C   UNL     1      12.369   2.009  -2.542  0.00  0.00    +0.017 C 
BRANCH  19  22
ATOM      2  O   UNL     1      10.581   3.115  -4.349  0.00  0.00    -0.276 OA
ATOM      6  N   UNL     1       9.420   4.328  -2.749  0.00  0.00    -0.311 N 
ATOM     22  C   UNL     1      10.407   3.454  -3.180  0.00  0.00    +0.216 C 
ATOM     35  H   UNL     1       9.309   4.518  -1.759  0.00  0.00    +0.149 HD
BRANCH   6  25
ATOM     25  C   UNL     1       8.473   4.943  -3.651  0.00  0.00    +0.141 C 
BRANCH  25  27
ATOM      7  N   UNL     1       8.246   8.230  -1.793  0.00  0.00    -0.263 NA
ATOM     27  C   UNL     1       7.910   6.218  -3.090  0.00  0.00    -0.012 A 
ATOM     28  C   UNL     1       6.586   6.578  -3.320  0.00  0.00    +0.008 A 
ATOM     29  C   UNL     1       8.691   7.070  -2.327  0.00  0.00    +0.115 A 
ATOM     31  C   UNL     1       6.092   7.764  -2.787  0.00  0.00    +0.020 A 
ATOM     32  C   UNL     1       6.955   8.547  -2.037  0.00  0.00    +0.111 A 
ENDBRANCH  25  27
ENDBRANCH   6  25
ENDBRANCH  19  22
ENDBRANCH  14  19
TORSDOF 9
ENDMDL
MODEL 10
REMARK VINA RESULT:      -5.7     24.229     27.386
REMARK  Name = 28963042
REMARK  13 active torsions:
REMARK  status: ('A' for Active; 'I' for Inactive)
REMARK    1  A    between atoms: O_1  and  C_11
REMARK    2  A    between atoms: O_4  and  C_26
REMARK    3  A    between atoms: O_4  and  C_30
REMARK    4  A    between atoms: N_5  and  C_15
REMARK    5  A    between atoms: N_6  and  C_25
REMARK    6  A    between atoms: C_8  and  C_18
REMARK    7  A    between atoms: C_10  and  C_20
REMARK    8  A    between atoms: C_14  and  C_19
REMARK    9  A    between atoms: C_19  and  C_21
REMARK   10  A    between atoms: C_19  and  C_22
REMARK   11  A    between atoms: C_23  and  C_24
REMARK   12  A    between atoms: C_24  and  C_26
REMARK   13  A    between atoms: C_25  and  C_27
REMARK                            x       y       z     vdW  Elec       q    Type
REMARK                         _______ _______ _______ _____ _____    ______ ____
ROOT
ATOM      8  C   UNL     1       9.779   6.510   6.593  0.00  0.00    -0.027 C 
ATOM      9  C   UNL     1      10.223   7.466   5.436  0.00  0.00    +0.028 C 
ATOM     10  C   UNL     1      11.286   6.771   4.512  0.00  0.00    +0.012 C 
ATOM     11  C   UNL     1      10.628   8.865   5.986  0.00  0.00    +0.122 C 
ATOM     12  C   UNL     1       8.652   7.181   7.413  0.00  0.00    +0.007 C 
ATOM     13  C   UNL     1       9.204   5.212   5.979  0.00  0.00    +0.009 C 
ATOM     14  C   UNL     1       9.539   9.486   6.891  0.00  0.00    +0.029 C 
ATOM     15  C   UNL     1      10.725   5.430   3.962  0.00  0.00    +0.076 C 
ATOM     16  C   UNL     1       9.058   8.532   7.986  0.00  0.00    +0.007 C 
ATOM     17  C   UNL     1      10.182   4.505   5.051  0.00  0.00    +0.023 C 
ATOM     18  C   UNL     1      10.945   6.151   7.548  0.00  0.00    +0.011 C 
ATOM     20  C   UNL     1      11.747   7.646   3.335  0.00  0.00    +0.010 C 
ENDROOT
BRANCH  15   5
ATOM      3  O   UNL     1      10.302   3.925   1.536  0.00  0.00    -0.276 OA
ATOM      5  N   UNL     1      11.721   4.704   3.200  0.00  0.00    -0.312 N 
ATOM     23  C   UNL     1      11.418   4.008   2.041  0.00  0.00    +0.215 C 
ATOM     33  H   UNL     1      12.666   4.658   3.571  0.00  0.00    +0.149 HD
BRANCH  23  24
ATOM     24  C   UNL     1      12.654   3.347   1.452  0.00  0.00    +0.124 C 
BRANCH  24  26
ATOM     26  C   UNL     1      13.899   4.214   1.560  0.00  0.00    +0.168 C 
BRANCH  26   4
ATOM      4  O   UNL     1      13.605   5.524   1.093  0.00  0.00    -0.382 OA
ATOM     30  C   UNL     1      13.822   5.640  -0.306  0.00  0.00    +0.194 C 
ENDBRANCH  26   4
ENDBRANCH  24  26
ENDBRANCH  23  24
ENDBRANCH  15   5
BRANCH  11   1
ATOM      1  O   UNL     1      10.817   9.769   4.897  0.00  0.00    -0.391 OA
ATOM     34  H   UNL     1      10.083  10.408   4.903  0.00  0.00    +0.210 HD
ENDBRANCH  11   1
BRANCH  14  19
ATOM     19  C   UNL     1      10.009  10.800   7.527  0.00  0.00    +0.077 C 
ATOM     21  C   UNL     1       9.966  10.693   9.047  0.00  0.00    +0.017 C 
BRANCH  19  22
ATOM      2  O   UNL     1       8.711  12.009   5.879  0.00  0.00    -0.276 OA
ATOM      6  N   UNL     1       8.932  12.919   8.002  0.00  0.00    -0.311 N 
ATOM     22  C   UNL     1       9.150  11.956   7.026  0.00  0.00    +0.216 C 
ATOM     35  H   UNL     1       9.286  12.776   8.942  0.00  0.00    +0.149 HD
BRANCH   6  25
ATOM     25  C   UNL     1       8.148  14.109   7.764  0.00  0.00    +0.141 C 
BRANCH  25  27
ATOM      7  N   UNL     1       4.371  13.920   7.771  0.00  0.00    -0.263 NA
ATOM     27  C   UNL     1       6.738  13.962   8.260  0.00  0.00    -0.012 A 
ATOM     28  C   UNL     1       6.472  13.742   9.606  0.00  0.00    +0.008 A 
ATOM     29  C   UNL     1       5.662  14.043   7.390  0.00  0.00    +0.115 A 
ATOM     31  C   UNL     1       5.156  13.611  10.037  0.00  0.00    +0.020 A 
ATOM     32  C   UNL     1       4.151  13.708   9.087  0.00  0.00    +0.111 A 
ENDBRANCH  25  27
ENDBRANCH   6  25
ENDBRANCH  19  22
ENDBRANCH  14  19
TORSDOF 9
ENDMDL
