MODEL 1
REMARK VINA RESULT:      -7.6      0.000      0.000
REMARK  Name = 40780142
REMARK  8 active torsions:
REMARK  status: ('A' for Active; 'I' for Inactive)
REMARK    1  A    between atoms: O_2  and  C_31
REMARK    2  A    between atoms: O_2  and  C_32
REMARK    3  A    between atoms: N_4  and  C_24
REMARK    4  A    between atoms: N_5  and  C_16
REMARK    5  A    between atoms: N_7  and  C_26
REMARK    6  A    between atoms: C_9  and  C_15
REMARK    7  A    between atoms: C_10  and  C_16
REMARK    8  A    between atoms: C_18  and  C_19
REMARK                            x       y       z     vdW  Elec       q    Type
REMARK                         _______ _______ _______ _____ _____    ______ ____
ROOT
ATOM      3  N   UNL     1      -6.310 -10.587  17.599  0.00  0.00    -0.297 NA
ATOM      8  C   UNL     1      -4.122 -11.963  17.276  0.00  0.00    +0.002 C 
ATOM      9  C   UNL     1      -4.031 -10.609  16.518  0.00  0.00    +0.055 C 
ATOM     10  C   UNL     1      -6.640 -11.974  17.177  0.00  0.00    +0.074 C 
ATOM     11  C   UNL     1      -5.360 -12.742  16.781  0.00  0.00    +0.024 C 
ATOM     12  C   UNL     1      -5.435  -9.942  16.589  0.00  0.00    +0.094 C 
ATOM     13  C   UNL     1      -4.363 -11.626  18.762  0.00  0.00    +0.019 C 
ATOM     14  C   UNL     1      -5.562 -10.668  18.876  0.00  0.00    +0.085 C 
ENDROOT
BRANCH   9  15
ATOM      4  N   UNL     1      -2.135 -10.466  14.836  0.00  0.00    -0.271 N 
ATOM      6  N   UNL     1      -1.841 -10.498  13.525  0.00  0.00    -0.176 NA
ATOM     15  C   UNL     1      -3.465 -10.614  15.105  0.00  0.00    +0.044 A 
ATOM     17  C   UNL     1      -4.082 -10.751  13.885  0.00  0.00    +0.048 A 
ATOM     19  C   UNL     1      -3.033 -10.672  12.950  0.00  0.00    +0.066 A 
ATOM     24  C   UNL     1      -1.071 -10.285  15.795  0.00  0.00    +0.172 C 
BRANCH  19  18
ATOM     18  C   UNL     1      -3.134 -10.763  11.444  0.00  0.00    +0.040 C 
ATOM     20  C   UNL     1      -4.588 -10.898  10.957  0.00  0.00    +0.010 C 
ATOM     21  C   UNL     1      -2.553  -9.550  10.688  0.00  0.00    +0.010 C 
ATOM     22  C   UNL     1      -4.633 -10.119   9.652  0.00  0.00    +0.001 C 
ATOM     23  C   UNL     1      -3.722  -8.936   9.928  0.00  0.00    +0.001 C 
ENDBRANCH  19  18
ENDBRANCH   9  15
BRANCH  10  16
ATOM     16  C   UNL     1      -7.693 -12.010  16.068  0.00  0.00    +0.124 C 
BRANCH  16   5
ATOM      1  O   UNL     1      -8.602  -9.772  14.529  0.00  0.00    -0.253 OA
ATOM      5  N   UNL     1      -8.792 -11.148  16.379  0.00  0.00    -0.298 N 
ATOM      7  N   UNL     1     -10.282  -9.405  16.126  0.00  0.00    -0.269 N 
ATOM     25  C   UNL     1      -9.180 -10.064  15.572  0.00  0.00    +0.304 C 
ATOM     33  H   UNL     1      -9.287 -11.300  17.251  0.00  0.00    +0.150 HD
ATOM     34  H   UNL     1     -10.644  -9.777  17.001  0.00  0.00    +0.156 HD
BRANCH   7  26
ATOM     26  C   UNL     1     -10.963  -8.274  15.617  0.00  0.00    +0.035 A 
ATOM     27  C   UNL     1     -11.897  -8.425  14.593  0.00  0.00    +0.027 A 
ATOM     28  C   UNL     1     -10.700  -7.008  16.139  0.00  0.00    +0.027 A 
ATOM     29  C   UNL     1     -12.568  -7.311  14.090  0.00  0.00    +0.047 A 
ATOM     30  C   UNL     1     -11.371  -5.893  15.637  0.00  0.00    +0.047 A 
ATOM     31  C   UNL     1     -12.305  -6.045  14.612  0.00  0.00    +0.120 A 
BRANCH  31   2
ATOM      2  O   UNL     1     -12.960  -4.956  14.123  0.00  0.00    -0.495 OA
ATOM     32  C   UNL     1     -12.367  -4.286  13.012  0.00  0.00    +0.277 C 
ENDBRANCH  31   2
ENDBRANCH   7  26
ENDBRANCH  16   5
ENDBRANCH  10  16
TORSDOF 6
ENDMDL
MODEL 2
REMARK VINA RESULT:      -7.5     26.303     30.130
REMARK  Name = 40780142
REMARK  8 active torsions:
REMARK  status: ('A' for Active; 'I' for Inactive)
REMARK    1  A    between atoms: O_2  and  C_31
REMARK    2  A    between atoms: O_2  and  C_32
REMARK    3  A    between atoms: N_4  and  C_24
REMARK    4  A    between atoms: N_5  and  C_16
REMARK    5  A    between atoms: N_7  and  C_26
REMARK    6  A    between atoms: C_9  and  C_15
REMARK    7  A    between atoms: C_10  and  C_16
REMARK    8  A    between atoms: C_18  and  C_19
REMARK                            x       y       z     vdW  Elec       q    Type
REMARK                         _______ _______ _______ _____ _____    ______ ____
ROOT
ATOM      3  N   UNL     1      13.194   7.434  21.084  0.00  0.00    -0.297 NA
ATOM      8  C   UNL     1      11.406   8.929  19.920  0.00  0.00    +0.002 C 
ATOM      9  C   UNL     1      12.237   8.150  18.862  0.00  0.00    +0.055 C 
ATOM     10  C   UNL     1      13.264   8.820  21.618  0.00  0.00    +0.074 C 
ATOM     11  C   UNL     1      12.359   9.767  20.799  0.00  0.00    +0.024 C 
ATOM     12  C   UNL     1      13.402   7.446  19.614  0.00  0.00    +0.094 C 
ATOM     13  C   UNL     1      10.751   7.875  20.837  0.00  0.00    +0.019 C 
ATOM     14  C   UNL     1      11.834   6.912  21.355  0.00  0.00    +0.085 C 
ENDROOT
BRANCH   9  15
ATOM      4  N   UNL     1      11.948   9.067  16.513  0.00  0.00    -0.271 N 
ATOM      6  N   UNL     1      12.555   9.760  15.535  0.00  0.00    -0.176 NA
ATOM     15  C   UNL     1      12.716   8.901  17.629  0.00  0.00    +0.044 A 
ATOM     17  C   UNL     1      13.909   9.529  17.361  0.00  0.00    +0.048 A 
ATOM     19  C   UNL     1      13.752  10.040  16.058  0.00  0.00    +0.066 A 
ATOM     24  C   UNL     1      10.604   8.583  16.305  0.00  0.00    +0.172 C 
BRANCH  19  18
ATOM     18  C   UNL     1      14.759  10.829  15.252  0.00  0.00    +0.040 C 
ATOM     20  C   UNL     1      14.093  11.838  14.300  0.00  0.00    +0.010 C 
ATOM     21  C   UNL     1      15.755  11.649  16.097  0.00  0.00    +0.010 C 
ATOM     22  C   UNL     1      15.031  13.035  14.287  0.00  0.00    +0.001 C 
ATOM     23  C   UNL     1      15.514  13.106  15.724  0.00  0.00    +0.001 C 
ENDBRANCH  19  18
ENDBRANCH   9  15
BRANCH  10  16
ATOM     16  C   UNL     1      14.700   9.339  21.706  0.00  0.00    +0.124 C 
BRANCH  16   5
ATOM      1  O   UNL     1      17.258   8.843  20.514  0.00  0.00    -0.253 OA
ATOM      5  N   UNL     1      15.606   8.281  22.033  0.00  0.00    -0.298 N 
ATOM      7  N   UNL     1      17.514   6.987  21.928  0.00  0.00    -0.269 N 
ATOM     25  C   UNL     1      16.849   8.099  21.402  0.00  0.00    +0.304 C 
ATOM     33  H   UNL     1      15.315   7.598  22.726  0.00  0.00    +0.150 HD
ATOM     34  H   UNL     1      17.034   6.475  22.664  0.00  0.00    +0.156 HD
BRANCH   7  26
ATOM     26  C   UNL     1      18.781   6.479  21.560  0.00  0.00    +0.035 A 
ATOM     27  C   UNL     1      18.916   5.715  20.401  0.00  0.00    +0.027 A 
ATOM     28  C   UNL     1      19.896   6.740  22.355  0.00  0.00    +0.027 A 
ATOM     29  C   UNL     1      20.165   5.213  20.037  0.00  0.00    +0.047 A 
ATOM     30  C   UNL     1      21.146   6.238  21.992  0.00  0.00    +0.047 A 
ATOM     31  C   UNL     1      21.280   5.474  20.833  0.00  0.00    +0.120 A 
BRANCH  31   2
ATOM      2  O   UNL     1      22.500   4.985  20.478  0.00  0.00    -0.495 OA
ATOM     32  C   UNL     1      23.601   5.309  21.326  0.00  0.00    +0.277 C 
ENDBRANCH  31   2
ENDBRANCH   7  26
ENDBRANCH  16   5
ENDBRANCH  10  16
TORSDOF 6
ENDMDL
MODEL 3
REMARK VINA RESULT:      -7.1      2.936      4.313
REMARK  Name = 40780142
REMARK  8 active torsions:
REMARK  status: ('A' for Active; 'I' for Inactive)
REMARK    1  A    between atoms: O_2  and  C_31
REMARK    2  A    between atoms: O_2  and  C_32
REMARK    3  A    between atoms: N_4  and  C_24
REMARK    4  A    between atoms: N_5  and  C_16
REMARK    5  A    between atoms: N_7  and  C_26
REMARK    6  A    between atoms: C_9  and  C_15
REMARK    7  A    between atoms: C_10  and  C_16
REMARK    8  A    between atoms: C_18  and  C_19
REMARK                            x       y       z     vdW  Elec       q    Type
REMARK                         _______ _______ _______ _____ _____    ______ ____
ROOT
ATOM      3  N   UNL     1      -5.984 -10.297  17.496  0.00  0.00    -0.297 NA
ATOM      8  C   UNL     1      -4.909 -12.394  16.386  0.00  0.00    +0.002 C 
ATOM      9  C   UNL     1      -3.965 -11.166  16.258  0.00  0.00    +0.055 C 
ATOM     10  C   UNL     1      -6.957 -10.939  16.573  0.00  0.00    +0.074 C 
ATOM     11  C   UNL     1      -6.275 -12.055  15.752  0.00  0.00    +0.024 C 
ATOM     12  C   UNL     1      -4.753  -9.921  16.756  0.00  0.00    +0.094 C 
ATOM     13  C   UNL     1      -5.151 -12.614  17.894  0.00  0.00    +0.019 C 
ATOM     14  C   UNL     1      -5.616 -11.293  18.531  0.00  0.00    +0.085 C 
ENDROOT
BRANCH   9  15
ATOM      4  N   UNL     1      -1.997 -10.483  14.808  0.00  0.00    -0.271 N 
ATOM      6  N   UNL     1      -1.584 -10.328  13.539  0.00  0.00    -0.176 NA
ATOM     15  C   UNL     1      -3.285 -10.920  14.919  0.00  0.00    +0.044 A 
ATOM     17  C   UNL     1      -3.746 -11.060  13.632  0.00  0.00    +0.048 A 
ATOM     19  C   UNL     1      -2.655 -10.683  12.825  0.00  0.00    +0.066 A 
ATOM     24  C   UNL     1      -1.085 -10.185  15.888  0.00  0.00    +0.172 C 
BRANCH  19  18
ATOM     18  C   UNL     1      -2.598 -10.647  11.314  0.00  0.00    +0.040 C 
ATOM     20  C   UNL     1      -3.865 -11.228  10.661  0.00  0.00    +0.010 C 
ATOM     21  C   UNL     1      -2.430  -9.236  10.713  0.00  0.00    +0.010 C 
ATOM     22  C   UNL     1      -4.081 -10.383   9.416  0.00  0.00    +0.001 C 
ATOM     23  C   UNL     1      -3.677  -8.992   9.873  0.00  0.00    +0.001 C 
ENDBRANCH  19  18
ENDBRANCH   9  15
BRANCH  10  16
ATOM     16  C   UNL     1      -7.665  -9.922  15.674  0.00  0.00    +0.124 C 
BRANCH  16   5
ATOM      1  O   UNL     1      -9.022  -9.703  13.161  0.00  0.00    -0.253 OA
ATOM      5  N   UNL     1      -7.062  -9.881  14.377  0.00  0.00    -0.298 N 
ATOM      7  N   UNL     1      -6.941  -9.756  12.077  0.00  0.00    -0.269 N 
ATOM     25  C   UNL     1      -7.796  -9.773  13.183  0.00  0.00    +0.304 C 
ATOM     33  H   UNL     1      -6.054  -9.982  14.314  0.00  0.00    +0.150 HD
ATOM     34  H   UNL     1      -5.945  -9.822  12.268  0.00  0.00    +0.156 HD
BRANCH   7  26
ATOM     26  C   UNL     1      -7.293  -9.658  10.710  0.00  0.00    +0.035 A 
ATOM     27  C   UNL     1      -7.679 -10.799  10.006  0.00  0.00    +0.027 A 
ATOM     28  C   UNL     1      -7.251  -8.423  10.065  0.00  0.00    +0.027 A 
ATOM     29  C   UNL     1      -8.024 -10.704   8.659  0.00  0.00    +0.047 A 
ATOM     30  C   UNL     1      -7.597  -8.327   8.717  0.00  0.00    +0.047 A 
ATOM     31  C   UNL     1      -7.983  -9.468   8.014  0.00  0.00    +0.120 A 
BRANCH  31   2
ATOM      2  O   UNL     1      -8.321  -9.374   6.698  0.00  0.00    -0.495 OA
ATOM     32  C   UNL     1      -7.323  -8.883   5.805  0.00  0.00    +0.277 C 
ENDBRANCH  31   2
ENDBRANCH   7  26
ENDBRANCH  16   5
ENDBRANCH  10  16
TORSDOF 6
ENDMDL
MODEL 4
REMARK VINA RESULT:      -7.1     26.620     30.661
REMARK  Name = 40780142
REMARK  8 active torsions:
REMARK  status: ('A' for Active; 'I' for Inactive)
REMARK    1  A    between atoms: O_2  and  C_31
REMARK    2  A    between atoms: O_2  and  C_32
REMARK    3  A    between atoms: N_4  and  C_24
REMARK    4  A    between atoms: N_5  and  C_16
REMARK    5  A    between atoms: N_7  and  C_26
REMARK    6  A    between atoms: C_9  and  C_15
REMARK    7  A    between atoms: C_10  and  C_16
REMARK    8  A    between atoms: C_18  and  C_19
REMARK                            x       y       z     vdW  Elec       q    Type
REMARK                         _______ _______ _______ _____ _____    ______ ____
ROOT
ATOM      3  N   UNL     1      13.407   6.712  20.149  0.00  0.00    -0.297 NA
ATOM      8  C   UNL     1      13.193   9.308  20.102  0.00  0.00    +0.002 C 
ATOM      9  C   UNL     1      12.527   8.683  18.844  0.00  0.00    +0.055 C 
ATOM     10  C   UNL     1      14.734   7.336  20.399  0.00  0.00    +0.074 C 
ATOM     11  C   UNL     1      14.670   8.862  20.170  0.00  0.00    +0.024 C 
ATOM     12  C   UNL     1      12.870   7.166  18.842  0.00  0.00    +0.094 C 
ATOM     13  C   UNL     1      12.480   8.704  21.329  0.00  0.00    +0.019 C 
ATOM     14  C   UNL     1      12.483   7.169  21.213  0.00  0.00    +0.085 C 
ENDROOT
BRANCH   9  15
ATOM      4  N   UNL     1      11.933   9.229  16.437  0.00  0.00    -0.271 N 
ATOM      6  N   UNL     1      12.346   9.878  15.336  0.00  0.00    -0.176 NA
ATOM     15  C   UNL     1      12.789   9.336  17.494  0.00  0.00    +0.044 A 
ATOM     17  C   UNL     1      13.835  10.110  17.052  0.00  0.00    +0.048 A 
ATOM     19  C   UNL     1      13.508  10.415  15.717  0.00  0.00    +0.066 A 
ATOM     24  C   UNL     1      10.681   8.508  16.404  0.00  0.00    +0.172 C 
BRANCH  19  18
ATOM     18  C   UNL     1      14.309  11.245  14.740  0.00  0.00    +0.040 C 
ATOM     20  C   UNL     1      14.387  12.727  15.150  0.00  0.00    +0.010 C 
ATOM     21  C   UNL     1      15.770  10.786  14.557  0.00  0.00    +0.010 C 
ATOM     22  C   UNL     1      15.777  13.173  14.726  0.00  0.00    +0.001 C 
ATOM     23  C   UNL     1      16.633  11.953  15.021  0.00  0.00    +0.001 C 
ENDBRANCH  19  18
ENDBRANCH   9  15
BRANCH  10  16
ATOM     16  C   UNL     1      15.848   6.683  19.580  0.00  0.00    +0.124 C 
BRANCH  16   5
ATOM      1  O   UNL     1      18.221   5.158  19.078  0.00  0.00    -0.253 OA
ATOM      5  N   UNL     1      17.114   6.831  20.230  0.00  0.00    -0.298 N 
ATOM      7  N   UNL     1      19.329   6.413  20.723  0.00  0.00    -0.269 N 
ATOM     25  C   UNL     1      18.239   6.042  19.931  0.00  0.00    +0.304 C 
ATOM     33  H   UNL     1      17.190   7.511  20.980  0.00  0.00    +0.150 HD
ATOM     34  H   UNL     1      19.176   7.170  21.385  0.00  0.00    +0.156 HD
BRANCH   7  26
ATOM     26  C   UNL     1      20.631   5.861  20.721  0.00  0.00    +0.035 A 
ATOM     27  C   UNL     1      21.734   6.676  20.465  0.00  0.00    +0.027 A 
ATOM     28  C   UNL     1      20.814   4.502  20.974  0.00  0.00    +0.027 A 
ATOM     29  C   UNL     1      23.018   6.132  20.462  0.00  0.00    +0.047 A 
ATOM     30  C   UNL     1      22.098   3.957  20.971  0.00  0.00    +0.047 A 
ATOM     31  C   UNL     1      23.200   4.773  20.715  0.00  0.00    +0.120 A 
BRANCH  31   2
ATOM      2  O   UNL     1      24.453   4.242  20.713  0.00  0.00    -0.495 OA
ATOM     32  C   UNL     1      25.305   4.590  19.623  0.00  0.00    +0.277 C 
ENDBRANCH  31   2
ENDBRANCH   7  26
ENDBRANCH  16   5
ENDBRANCH  10  16
TORSDOF 6
ENDMDL
MODEL 5
REMARK VINA RESULT:      -7.0      3.321      6.967
REMARK  Name = 40780142
REMARK  8 active torsions:
REMARK  status: ('A' for Active; 'I' for Inactive)
REMARK    1  A    between atoms: O_2  and  C_31
REMARK    2  A    between atoms: O_2  and  C_32
REMARK    3  A    between atoms: N_4  and  C_24
REMARK    4  A    between atoms: N_5  and  C_16
REMARK    5  A    between atoms: N_7  and  C_26
REMARK    6  A    between atoms: C_9  and  C_15
REMARK    7  A    between atoms: C_10  and  C_16
REMARK    8  A    between atoms: C_18  and  C_19
REMARK                            x       y       z     vdW  Elec       q    Type
REMARK                         _______ _______ _______ _____ _____    ______ ____
ROOT
ATOM      3  N   UNL     1      -5.750 -12.241  17.188  0.00  0.00    -0.297 NA
ATOM      8  C   UNL     1      -6.225 -11.237  19.544  0.00  0.00    +0.002 C 
ATOM      9  C   UNL     1      -7.337 -12.248  19.149  0.00  0.00    +0.055 C 
ATOM     10  C   UNL     1      -5.653 -10.758  17.138  0.00  0.00    +0.074 C 
ATOM     11  C   UNL     1      -6.132 -10.135  18.467  0.00  0.00    +0.024 C 
ATOM     12  C   UNL     1      -7.096 -12.646  17.665  0.00  0.00    +0.094 C 
ATOM     13  C   UNL     1      -4.890 -12.010  19.518  0.00  0.00    +0.019 C 
ATOM     14  C   UNL     1      -4.746 -12.728  18.165  0.00  0.00    +0.085 C 
ENDROOT
BRANCH   9  15
ATOM      4  N   UNL     1      -9.642 -12.644  20.137  0.00  0.00    -0.271 N 
ATOM      6  N   UNL     1     -10.875 -12.127  20.257  0.00  0.00    -0.176 NA
ATOM     15  C   UNL     1      -8.785 -11.864  19.415  0.00  0.00    +0.044 A 
ATOM     17  C   UNL     1      -9.511 -10.760  19.038  0.00  0.00    +0.048 A 
ATOM     19  C   UNL     1     -10.790 -10.977  19.585  0.00  0.00    +0.066 A 
ATOM     24  C   UNL     1      -9.347 -13.918  20.750  0.00  0.00    +0.172 C 
BRANCH  19  18
ATOM     18  C   UNL     1     -11.999 -10.074  19.482  0.00  0.00    +0.040 C 
ATOM     20  C   UNL     1     -13.146 -10.713  18.679  0.00  0.00    +0.010 C 
ATOM     21  C   UNL     1     -12.614  -9.671  20.839  0.00  0.00    +0.010 C 
ATOM     22  C   UNL     1     -14.414 -10.230  19.365  0.00  0.00    +0.001 C 
ATOM     23  C   UNL     1     -14.031 -10.232  20.834  0.00  0.00    +0.001 C 
ENDBRANCH  19  18
ENDBRANCH   9  15
BRANCH  10  16
ATOM     16  C   UNL     1      -6.388 -10.167  15.933  0.00  0.00    +0.124 C 
BRANCH  16   5
ATOM      1  O   UNL     1      -8.996  -9.732  14.829  0.00  0.00    -0.253 OA
ATOM      5  N   UNL     1      -7.340  -9.183  16.349  0.00  0.00    -0.298 N 
ATOM      7  N   UNL     1      -9.315  -7.990  16.369  0.00  0.00    -0.269 N 
ATOM     25  C   UNL     1      -8.606  -9.027  15.757  0.00  0.00    +0.304 C 
ATOM     33  H   UNL     1      -7.068  -8.532  17.079  0.00  0.00    +0.150 HD
ATOM     34  H   UNL     1      -8.845  -7.502  17.128  0.00  0.00    +0.156 HD
BRANCH   7  26
ATOM     26  C   UNL     1     -10.616  -7.527  16.061  0.00  0.00    +0.035 A 
ATOM     27  C   UNL     1     -10.791  -6.265  15.495  0.00  0.00    +0.027 A 
ATOM     28  C   UNL     1     -11.723  -8.332  16.324  0.00  0.00    +0.027 A 
ATOM     29  C   UNL     1     -12.073  -5.808  15.191  0.00  0.00    +0.047 A 
ATOM     30  C   UNL     1     -13.006  -7.876  16.021  0.00  0.00    +0.047 A 
ATOM     31  C   UNL     1     -13.180  -6.613  15.455  0.00  0.00    +0.120 A 
BRANCH  31   2
ATOM      2  O   UNL     1     -14.432  -6.168  15.158  0.00  0.00    -0.495 OA
ATOM     32  C   UNL     1     -15.076  -6.747  14.024  0.00  0.00    +0.277 C 
ENDBRANCH  31   2
ENDBRANCH   7  26
ENDBRANCH  16   5
ENDBRANCH  10  16
TORSDOF 6
ENDMDL
MODEL 6
REMARK VINA RESULT:      -6.9      2.512      5.827
REMARK  Name = 40780142
REMARK  8 active torsions:
REMARK  status: ('A' for Active; 'I' for Inactive)
REMARK    1  A    between atoms: O_2  and  C_31
REMARK    2  A    between atoms: O_2  and  C_32
REMARK    3  A    between atoms: N_4  and  C_24
REMARK    4  A    between atoms: N_5  and  C_16
REMARK    5  A    between atoms: N_7  and  C_26
REMARK    6  A    between atoms: C_9  and  C_15
REMARK    7  A    between atoms: C_10  and  C_16
REMARK    8  A    between atoms: C_18  and  C_19
REMARK                            x       y       z     vdW  Elec       q    Type
REMARK                         _______ _______ _______ _____ _____    ______ ____
ROOT
ATOM      3  N   UNL     1      -5.903 -10.666   9.439  0.00  0.00    -0.297 NA
ATOM      8  C   UNL     1      -4.304  -8.877  10.453  0.00  0.00    +0.002 C 
ATOM      9  C   UNL     1      -3.947 -10.292  10.988  0.00  0.00    +0.055 C 
ATOM     10  C   UNL     1      -6.692  -9.534   9.993  0.00  0.00    +0.074 C 
ATOM     11  C   UNL     1      -5.781  -8.567  10.779  0.00  0.00    +0.024 C 
ATOM     12  C   UNL     1      -5.059 -11.265  10.503  0.00  0.00    +0.094 C 
ATOM     13  C   UNL     1      -4.182  -8.938   8.916  0.00  0.00    +0.019 C 
ATOM     14  C   UNL     1      -5.008 -10.124   8.389  0.00  0.00    +0.085 C 
ENDROOT
BRANCH   9  15
ATOM      4  N   UNL     1      -2.399 -10.326  13.000  0.00  0.00    -0.271 N 
ATOM      6  N   UNL     1      -2.352 -10.496  14.332  0.00  0.00    -0.176 NA
ATOM     15  C   UNL     1      -3.653 -10.446  12.473  0.00  0.00    +0.044 A 
ATOM     17  C   UNL     1      -4.482 -10.714  13.535  0.00  0.00    +0.048 A 
ATOM     19  C   UNL     1      -3.626 -10.733  14.653  0.00  0.00    +0.066 A 
ATOM     24  C   UNL     1      -1.179 -10.046  12.280  0.00  0.00    +0.172 C 
BRANCH  19  18
ATOM     18  C   UNL     1      -4.004 -10.982  16.096  0.00  0.00    +0.040 C 
ATOM     20  C   UNL     1      -5.077 -10.003  16.604  0.00  0.00    +0.010 C 
ATOM     21  C   UNL     1      -4.561 -12.393  16.378  0.00  0.00    +0.010 C 
ATOM     22  C   UNL     1      -5.933 -10.825  17.554  0.00  0.00    +0.001 C 
ATOM     23  C   UNL     1      -5.985 -12.184  16.879  0.00  0.00    +0.001 C 
ENDBRANCH  19  18
ENDBRANCH   9  15
BRANCH  10  16
ATOM     16  C   UNL     1      -7.880 -10.008  10.833  0.00  0.00    +0.124 C 
BRANCH  16   5
ATOM      1  O   UNL     1      -9.766 -10.399  12.953  0.00  0.00    -0.253 OA
ATOM      5  N   UNL     1      -7.708  -9.651  12.207  0.00  0.00    -0.298 N 
ATOM      7  N   UNL     1      -8.236  -9.423  14.442  0.00  0.00    -0.269 N 
ATOM     25  C   UNL     1      -8.682  -9.874  13.196  0.00  0.00    +0.304 C 
ATOM     33  H   UNL     1      -6.855  -9.168  12.474  0.00  0.00    +0.150 HD
ATOM     34  H   UNL     1      -7.307  -9.010  14.472  0.00  0.00    +0.156 HD
BRANCH   7  26
ATOM     26  C   UNL     1      -8.922  -9.469  15.678  0.00  0.00    +0.035 A 
ATOM     27  C   UNL     1      -9.229 -10.699  16.260  0.00  0.00    +0.027 A 
ATOM     28  C   UNL     1      -9.292  -8.285  16.315  0.00  0.00    +0.027 A 
ATOM     29  C   UNL     1      -9.906 -10.744  17.478  0.00  0.00    +0.047 A 
ATOM     30  C   UNL     1      -9.969  -8.330  17.534  0.00  0.00    +0.047 A 
ATOM     31  C   UNL     1     -10.276  -9.560  18.115  0.00  0.00    +0.120 A 
BRANCH  31   2
ATOM      2  O   UNL     1     -10.936  -9.604  19.305  0.00  0.00    -0.495 OA
ATOM     32  C   UNL     1     -10.695 -10.736  20.140  0.00  0.00    +0.277 C 
ENDBRANCH  31   2
ENDBRANCH   7  26
ENDBRANCH  16   5
ENDBRANCH  10  16
TORSDOF 6
ENDMDL
MODEL 7
REMARK VINA RESULT:      -6.8     18.482     20.604
REMARK  Name = 40780142
REMARK  8 active torsions:
REMARK  status: ('A' for Active; 'I' for Inactive)
REMARK    1  A    between atoms: O_2  and  C_31
REMARK    2  A    between atoms: O_2  and  C_32
REMARK    3  A    between atoms: N_4  and  C_24
REMARK    4  A    between atoms: N_5  and  C_16
REMARK    5  A    between atoms: N_7  and  C_26
REMARK    6  A    between atoms: C_9  and  C_15
REMARK    7  A    between atoms: C_10  and  C_16
REMARK    8  A    between atoms: C_18  and  C_19
REMARK                            x       y       z     vdW  Elec       q    Type
REMARK                         _______ _______ _______ _____ _____    ______ ____
ROOT
ATOM      3  N   UNL     1     -17.477   4.886  24.491  0.00  0.00    -0.297 NA
ATOM      8  C   UNL     1     -17.886   2.315  24.572  0.00  0.00    +0.002 C 
ATOM      9  C   UNL     1     -18.000   2.929  25.995  0.00  0.00    +0.055 C 
ATOM     10  C   UNL     1     -16.388   4.175  23.770  0.00  0.00    +0.074 C 
ATOM     11  C   UNL     1     -16.499   2.650  23.983  0.00  0.00    +0.024 C 
ATOM     12  C   UNL     1     -17.548   4.414  25.897  0.00  0.00    +0.094 C 
ATOM     13  C   UNL     1     -18.936   3.026  23.693  0.00  0.00    +0.019 C 
ATOM     14  C   UNL     1     -18.757   4.549  23.824  0.00  0.00    +0.085 C 
ENDROOT
BRANCH   9  15
ATOM      4  N   UNL     1     -17.847   1.066  27.711  0.00  0.00    -0.271 N 
ATOM      6  N   UNL     1     -17.105   0.574  28.718  0.00  0.00    -0.176 NA
ATOM     15  C   UNL     1     -17.332   2.197  27.149  0.00  0.00    +0.044 A 
ATOM     17  C   UNL     1     -16.173   2.464  27.838  0.00  0.00    +0.048 A 
ATOM     19  C   UNL     1     -16.084   1.432  28.791  0.00  0.00    +0.066 A 
ATOM     24  C   UNL     1     -19.064   0.386  27.334  0.00  0.00    +0.172 C 
BRANCH  19  18
ATOM     18  C   UNL     1     -15.000   1.224  29.824  0.00  0.00    +0.040 C 
ATOM     20  C   UNL     1     -15.319   1.916  31.162  0.00  0.00    +0.010 C 
ATOM     21  C   UNL     1     -14.724  -0.253  30.175  0.00  0.00    +0.010 C 
ATOM     22  C   UNL     1     -14.758   0.984  32.223  0.00  0.00    +0.001 C 
ATOM     23  C   UNL     1     -15.050  -0.395  31.657  0.00  0.00    +0.001 C 
ENDBRANCH  19  18
ENDBRANCH   9  15
BRANCH  10  16
ATOM     16  C   UNL     1     -15.001   4.703  24.143  0.00  0.00    +0.124 C 
BRANCH  16   5
ATOM      1  O   UNL     1     -13.941   4.719  21.482  0.00  0.00    -0.253 OA
ATOM      5  N   UNL     1     -14.667   5.855  23.362  0.00  0.00    -0.298 N 
ATOM      7  N   UNL     1     -13.918   7.065  21.546  0.00  0.00    -0.269 N 
ATOM     25  C   UNL     1     -14.147   5.785  22.057  0.00  0.00    +0.304 C 
ATOM     33  H   UNL     1     -14.767   6.770  23.791  0.00  0.00    +0.150 HD
ATOM     34  H   UNL     1     -14.145   7.847  22.155  0.00  0.00    +0.156 HD
BRANCH   7  26
ATOM     26  C   UNL     1     -13.404   7.414  20.275  0.00  0.00    +0.035 A 
ATOM     27  C   UNL     1     -14.262   7.883  19.281  0.00  0.00    +0.027 A 
ATOM     28  C   UNL     1     -12.040   7.286  20.015  0.00  0.00    +0.027 A 
ATOM     29  C   UNL     1     -13.756   8.226  18.027  0.00  0.00    +0.047 A 
ATOM     30  C   UNL     1     -11.533   7.628  18.761  0.00  0.00    +0.047 A 
ATOM     31  C   UNL     1     -12.392   8.098  17.767  0.00  0.00    +0.120 A 
BRANCH  31   2
ATOM      2  O   UNL     1     -11.897   8.433  16.544  0.00  0.00    -0.495 OA
ATOM     32  C   UNL     1     -10.481   8.568  16.431  0.00  0.00    +0.277 C 
ENDBRANCH  31   2
ENDBRANCH   7  26
ENDBRANCH  16   5
ENDBRANCH  10  16
TORSDOF 6
ENDMDL
MODEL 8
REMARK VINA RESULT:      -6.8      3.909      7.358
REMARK  Name = 40780142
REMARK  8 active torsions:
REMARK  status: ('A' for Active; 'I' for Inactive)
REMARK    1  A    between atoms: O_2  and  C_31
REMARK    2  A    between atoms: O_2  and  C_32
REMARK    3  A    between atoms: N_4  and  C_24
REMARK    4  A    between atoms: N_5  and  C_16
REMARK    5  A    between atoms: N_7  and  C_26
REMARK    6  A    between atoms: C_9  and  C_15
REMARK    7  A    between atoms: C_10  and  C_16
REMARK    8  A    between atoms: C_18  and  C_19
REMARK                            x       y       z     vdW  Elec       q    Type
REMARK                         _______ _______ _______ _____ _____    ______ ____
ROOT
ATOM      3  N   UNL     1      -7.298 -10.604   8.579  0.00  0.00    -0.297 NA
ATOM      8  C   UNL     1      -4.747 -10.348   8.113  0.00  0.00    +0.002 C 
ATOM      9  C   UNL     1      -5.025 -11.638   8.935  0.00  0.00    +0.055 C 
ATOM     10  C   UNL     1      -6.848  -9.235   8.947  0.00  0.00    +0.074 C 
ATOM     11  C   UNL     1      -5.309  -9.129   8.875  0.00  0.00    +0.024 C 
ATOM     12  C   UNL     1      -6.525 -11.615   9.343  0.00  0.00    +0.094 C 
ATOM     13  C   UNL     1      -5.551 -10.474   6.802  0.00  0.00    +0.019 C 
ATOM     14  C   UNL     1      -7.018 -10.800   7.137  0.00  0.00    +0.085 C 
ENDROOT
BRANCH   9  15
ATOM      4  N   UNL     1      -3.923 -13.214  10.593  0.00  0.00    -0.271 N 
ATOM      6  N   UNL     1      -3.078 -13.276  11.636  0.00  0.00    -0.176 NA
ATOM     15  C   UNL     1      -4.111 -11.951  10.111  0.00  0.00    +0.044 A 
ATOM     17  C   UNL     1      -3.336 -11.131  10.895  0.00  0.00    +0.048 A 
ATOM     19  C   UNL     1      -2.722 -12.002  11.816  0.00  0.00    +0.066 A 
ATOM     24  C   UNL     1      -4.528 -14.429  10.100  0.00  0.00    +0.172 C 
BRANCH  19  18
ATOM     18  C   UNL     1      -1.756 -11.640  12.921  0.00  0.00    +0.040 C 
ATOM     20  C   UNL     1      -1.992 -10.222  13.471  0.00  0.00    +0.010 C 
ATOM     21  C   UNL     1      -1.806 -12.576  14.147  0.00  0.00    +0.010 C 
ATOM     22  C   UNL     1      -1.687 -10.327  14.957  0.00  0.00    +0.001 C 
ATOM     23  C   UNL     1      -2.227 -11.699  15.321  0.00  0.00    +0.001 C 
ENDBRANCH  19  18
ENDBRANCH   9  15
BRANCH  10  16
ATOM     16  C   UNL     1      -7.387  -8.791  10.309  0.00  0.00    +0.124 C 
BRANCH  16   5
ATOM      1  O   UNL     1      -7.956 -10.168  12.756  0.00  0.00    -0.253 OA
ATOM      5  N   UNL     1      -6.458  -9.102  11.351  0.00  0.00    -0.298 N 
ATOM      7  N   UNL     1      -5.700  -9.945  13.361  0.00  0.00    -0.269 N 
ATOM     25  C   UNL     1      -6.812  -9.783  12.530  0.00  0.00    +0.304 C 
ATOM     33  H   UNL     1      -5.503  -8.773  11.255  0.00  0.00    +0.150 HD
ATOM     34  H   UNL     1      -4.819  -9.565  13.023  0.00  0.00    +0.156 HD
BRANCH   7  26
ATOM     26  C   UNL     1      -5.646 -10.574  14.627  0.00  0.00    +0.035 A 
ATOM     27  C   UNL     1      -5.472  -9.808  15.779  0.00  0.00    +0.027 A 
ATOM     28  C   UNL     1      -5.765 -11.960  14.723  0.00  0.00    +0.027 A 
ATOM     29  C   UNL     1      -5.419 -10.428  17.027  0.00  0.00    +0.047 A 
ATOM     30  C   UNL     1      -5.711 -12.581  15.971  0.00  0.00    +0.047 A 
ATOM     31  C   UNL     1      -5.538 -11.814  17.123  0.00  0.00    +0.120 A 
BRANCH  31   2
ATOM      2  O   UNL     1      -5.486 -12.420  18.341  0.00  0.00    -0.495 OA
ATOM     32  C   UNL     1      -6.475 -12.041  19.297  0.00  0.00    +0.277 C 
ENDBRANCH  31   2
ENDBRANCH   7  26
ENDBRANCH  16   5
ENDBRANCH  10  16
TORSDOF 6
ENDMDL
MODEL 9
REMARK VINA RESULT:      -6.8     24.825     27.932
REMARK  Name = 40780142
REMARK  8 active torsions:
REMARK  status: ('A' for Active; 'I' for Inactive)
REMARK    1  A    between atoms: O_2  and  C_31
REMARK    2  A    between atoms: O_2  and  C_32
REMARK    3  A    between atoms: N_4  and  C_24
REMARK    4  A    between atoms: N_5  and  C_16
REMARK    5  A    between atoms: N_7  and  C_26
REMARK    6  A    between atoms: C_9  and  C_15
REMARK    7  A    between atoms: C_10  and  C_16
REMARK    8  A    between atoms: C_18  and  C_19
REMARK                            x       y       z     vdW  Elec       q    Type
REMARK                         _______ _______ _______ _____ _____    ______ ____
ROOT
ATOM      3  N   UNL     1      13.871   5.406  -0.292  0.00  0.00    -0.297 NA
ATOM      8  C   UNL     1      12.409   3.531   0.772  0.00  0.00    +0.002 C 
ATOM      9  C   UNL     1      11.629   4.875   0.733  0.00  0.00    +0.055 C 
ATOM     10  C   UNL     1      14.640   4.701   0.768  0.00  0.00    +0.074 C 
ATOM     11  C   UNL     1      13.728   3.731   1.549  0.00  0.00    +0.024 C 
ATOM     12  C   UNL     1      12.626   5.978   0.278  0.00  0.00    +0.094 C 
ATOM     13  C   UNL     1      12.788   3.194  -0.685  0.00  0.00    +0.019 C 
ATOM     14  C   UNL     1      13.493   4.406  -1.319  0.00  0.00    +0.085 C 
ENDROOT
BRANCH   9  15
ATOM      4  N   UNL     1      10.046   6.392   2.013  0.00  0.00    -0.271 N 
ATOM      6  N   UNL     1       9.436   6.576   3.196  0.00  0.00    -0.176 NA
ATOM     15  C   UNL     1      10.840   5.283   1.969  0.00  0.00    +0.044 A 
ATOM     17  C   UNL     1      10.744   4.703   3.211  0.00  0.00    +0.048 A 
ATOM     19  C   UNL     1       9.865   5.542   3.924  0.00  0.00    +0.066 A 
ATOM     24  C   UNL     1       9.817   7.338   0.946  0.00  0.00    +0.172 C 
BRANCH  19  18
ATOM     18  C   UNL     1       9.396   5.382   5.352  0.00  0.00    +0.040 C 
ATOM     20  C   UNL     1      10.535   5.564   6.372  0.00  0.00    +0.010 C 
ATOM     21  C   UNL     1       8.293   6.372   5.779  0.00  0.00    +0.010 C 
ATOM     22  C   UNL     1       9.882   6.247   7.563  0.00  0.00    +0.001 C 
ATOM     23  C   UNL     1       8.891   7.196   6.913  0.00  0.00    +0.001 C 
ENDBRANCH  19  18
ENDBRANCH   9  15
BRANCH  10  16
ATOM     16  C   UNL     1      15.371   5.671   1.699  0.00  0.00    +0.124 C 
BRANCH  16   5
ATOM      1  O   UNL     1      14.214   8.108   2.661  0.00  0.00    -0.253 OA
ATOM      5  N   UNL     1      14.646   5.850   2.919  0.00  0.00    -0.298 N 
ATOM      7  N   UNL     1      13.453   6.953   4.558  0.00  0.00    -0.269 N 
ATOM     25  C   UNL     1      14.105   7.082   3.328  0.00  0.00    +0.304 C 
ATOM     33  H   UNL     1      14.558   5.056   3.545  0.00  0.00    +0.150 HD
ATOM     34  H   UNL     1      13.455   6.029   4.980  0.00  0.00    +0.156 HD
BRANCH   7  26
ATOM     26  C   UNL     1      12.787   7.959   5.296  0.00  0.00    +0.035 A 
ATOM     27  C   UNL     1      13.171   8.230   6.609  0.00  0.00    +0.027 A 
ATOM     28  C   UNL     1      11.744   8.678   4.713  0.00  0.00    +0.027 A 
ATOM     29  C   UNL     1      12.514   9.220   7.338  0.00  0.00    +0.047 A 
ATOM     30  C   UNL     1      11.086   9.669   5.442  0.00  0.00    +0.047 A 
ATOM     31  C   UNL     1      11.471   9.940   6.755  0.00  0.00    +0.120 A 
BRANCH  31   2
ATOM      2  O   UNL     1      10.829  10.907   7.465  0.00  0.00    -0.495 OA
ATOM     32  C   UNL     1      10.511  10.612   8.824  0.00  0.00    +0.277 C 
ENDBRANCH  31   2
ENDBRANCH   7  26
ENDBRANCH  16   5
ENDBRANCH  10  16
TORSDOF 6
ENDMDL
MODEL 10
REMARK VINA RESULT:      -6.8     26.768     29.797
REMARK  Name = 40780142
REMARK  8 active torsions:
REMARK  status: ('A' for Active; 'I' for Inactive)
REMARK    1  A    between atoms: O_2  and  C_31
REMARK    2  A    between atoms: O_2  and  C_32
REMARK    3  A    between atoms: N_4  and  C_24
REMARK    4  A    between atoms: N_5  and  C_16
REMARK    5  A    between atoms: N_7  and  C_26
REMARK    6  A    between atoms: C_9  and  C_15
REMARK    7  A    between atoms: C_10  and  C_16
REMARK    8  A    between atoms: C_18  and  C_19
REMARK                            x       y       z     vdW  Elec       q    Type
REMARK                         _______ _______ _______ _____ _____    ______ ____
ROOT
ATOM      3  N   UNL     1      11.478   7.592  19.924  0.00  0.00    -0.297 NA
ATOM      8  C   UNL     1      13.681   8.685  20.781  0.00  0.00    +0.002 C 
ATOM      9  C   UNL     1      12.490   9.672  20.930  0.00  0.00    +0.055 C 
ATOM     10  C   UNL     1      12.552   7.434  18.909  0.00  0.00    +0.074 C 
ATOM     11  C   UNL     1      13.802   8.250  19.305  0.00  0.00    +0.024 C 
ATOM     12  C   UNL     1      11.265   9.031  20.218  0.00  0.00    +0.094 C 
ATOM     13  C   UNL     1      13.321   7.426  21.597  0.00  0.00    +0.019 C 
ATOM     14  C   UNL     1      11.929   6.927  21.169  0.00  0.00    +0.085 C 
ENDROOT
BRANCH   9  15
ATOM      4  N   UNL     1      12.048  12.166  21.106  0.00  0.00    -0.271 N 
ATOM      6  N   UNL     1      12.378  13.366  20.600  0.00  0.00    -0.176 NA
ATOM     15  C   UNL     1      12.704  11.122  20.520  0.00  0.00    +0.044 A 
ATOM     17  C   UNL     1      13.517  11.679  19.563  0.00  0.00    +0.048 A 
ATOM     19  C   UNL     1      13.275  13.063  19.658  0.00  0.00    +0.066 A 
ATOM     24  C   UNL     1      11.077  12.092  22.172  0.00  0.00    +0.172 C 
BRANCH  19  18
ATOM     18  C   UNL     1      13.904  14.166  18.837  0.00  0.00    +0.040 C 
ATOM     20  C   UNL     1      14.942  13.635  17.832  0.00  0.00    +0.010 C 
ATOM     21  C   UNL     1      12.904  14.995  18.005  0.00  0.00    +0.010 C 
ATOM     22  C   UNL     1      14.796  14.534  16.615  0.00  0.00    +0.001 C 
ATOM     23  C   UNL     1      13.299  14.781  16.549  0.00  0.00    +0.001 C 
ENDBRANCH  19  18
ENDBRANCH   9  15
BRANCH  10  16
ATOM     16  C   UNL     1      12.074   7.774  17.496  0.00  0.00    +0.124 C 
BRANCH  16   5
ATOM      1  O   UNL     1      13.575   8.517  15.172  0.00  0.00    -0.253 OA
ATOM      5  N   UNL     1      12.477   9.095  17.125  0.00  0.00    -0.298 N 
ATOM      7  N   UNL     1      13.463  10.757  15.864  0.00  0.00    -0.269 N 
ATOM     25  C   UNL     1      13.217   9.385  15.964  0.00  0.00    +0.304 C 
ATOM     33  H   UNL     1      12.257   9.859  17.757  0.00  0.00    +0.150 HD
ATOM     34  H   UNL     1      13.094  11.343  16.609  0.00  0.00    +0.156 HD
BRANCH   7  26
ATOM     26  C   UNL     1      14.170  11.440  14.846  0.00  0.00    +0.035 A 
ATOM     27  C   UNL     1      13.476  12.190  13.898  0.00  0.00    +0.027 A 
ATOM     28  C   UNL     1      15.561  11.362  14.791  0.00  0.00    +0.027 A 
ATOM     29  C   UNL     1      14.172  12.862  12.894  0.00  0.00    +0.047 A 
ATOM     30  C   UNL     1      16.258  12.035  13.787  0.00  0.00    +0.047 A 
ATOM     31  C   UNL     1      15.563  12.785  12.838  0.00  0.00    +0.120 A 
BRANCH  31   2
ATOM      2  O   UNL     1      16.243  13.442  11.859  0.00  0.00    -0.495 OA
ATOM     32  C   UNL     1      17.434  14.128  12.244  0.00  0.00    +0.277 C 
ENDBRANCH  31   2
ENDBRANCH   7  26
ENDBRANCH  16   5
ENDBRANCH  10  16
TORSDOF 6
ENDMDL
