MODEL 1
REMARK VINA RESULT:      -7.3      0.000      0.000
REMARK  Name = 51136818
REMARK  7 active torsions:
REMARK  status: ('A' for Active; 'I' for Inactive)
REMARK    1  A    between atoms: N_3  and  C_13
REMARK    2  A    between atoms: C_9  and  C_15
REMARK    3  A    between atoms: C_13  and  C_14
REMARK    4  A    between atoms: C_14  and  C_16
REMARK    5  A    between atoms: C_14  and  C_17
REMARK    6  A    between atoms: C_22  and  C_24
REMARK    7  A    between atoms: C_26  and  C_29
REMARK                            x       y       z     vdW  Elec       q    Type
REMARK                         _______ _______ _______ _____ _____    ______ ____
ROOT
ATOM      2  O   UNL     1     -15.325  -0.960  30.515  0.00  0.00    -0.276 OA
ATOM      4  N   UNL     1     -14.296   3.471  32.264  0.00  0.00    -0.312 N 
ATOM      6  N   UNL     1     -14.605   1.246  30.557  0.00  0.00    -0.299 N 
ATOM      8  N   UNL     1     -14.346   4.291  34.484  0.00  0.00    -0.240 NA
ATOM     18  C   UNL     1     -15.288   2.436  32.597  0.00  0.00    +0.125 C 
ATOM     19  C   UNL     1     -13.162   3.035  31.439  0.00  0.00    +0.125 C 
ATOM     20  C   UNL     1     -15.750   1.718  31.331  0.00  0.00    +0.126 C 
ATOM     21  C   UNL     1     -13.659   2.302  30.192  0.00  0.00    +0.126 C 
ATOM     23  C   UNL     1     -14.127   4.524  33.171  0.00  0.00    +0.122 A 
ATOM     24  C   UNL     1     -13.571   6.807  33.542  0.00  0.00    +0.027 A 
ATOM     25  C   UNL     1     -13.741   5.751  32.654  0.00  0.00    +0.055 A 
ATOM     26  C   UNL     1     -14.497  -0.098  30.209  0.00  0.00    +0.213 C 
ATOM     27  C   UNL     1     -13.788   6.606  34.902  0.00  0.00    +0.031 A 
ATOM     28  C   UNL     1     -14.171   5.342  35.317  0.00  0.00    +0.113 A 
ATOM     29  C   UNL     1     -13.281  -0.492  29.411  0.00  0.00    +0.109 C 
ENDROOT
BRANCH  24  22
ATOM      1  O   UNL     1     -13.093  10.203  32.700  0.00  0.00    -0.336 OA
ATOM      5  N   UNL     1     -12.096   8.252  32.232  0.00  0.00    -0.190 NA
ATOM      7  N   UNL     1     -13.820   9.220  33.385  0.00  0.00    -0.056 NA
ATOM     15  C   UNL     1     -12.097   9.548  32.047  0.00  0.00    +0.245 A 
ATOM     22  C   UNL     1     -13.171   8.098  33.059  0.00  0.00    +0.202 A 
BRANCH  15   9
ATOM      3  N   UNL     1     -11.775  10.874  29.966  0.00  0.00    -0.291 NA
ATOM      9  C   UNL     1     -11.157  10.401  31.221  0.00  0.00    +0.146 C 
ATOM     10  C   UNL     1     -10.723  11.685  31.952  0.00  0.00    +0.030 C 
ATOM     11  C   UNL     1     -11.136  12.151  29.648  0.00  0.00    +0.085 C 
ATOM     12  C   UNL     1     -11.081  12.822  31.005  0.00  0.00    +0.017 C 
BRANCH   3  13
ATOM     13  C   UNL     1     -11.661   9.917  28.874  0.00  0.00    +0.088 C 
BRANCH  13  14
ATOM     14  C   UNL     1     -11.392  10.598  27.522  0.00  0.00    -0.003 C 
ATOM     16  C   UNL     1     -10.139   9.996  26.880  0.00  0.00    +0.008 C 
ATOM     17  C   UNL     1     -12.573  10.475  26.556  0.00  0.00    +0.008 C 
ENDBRANCH  13  14
ENDBRANCH   3  13
ENDBRANCH  15   9
ENDBRANCH  24  22
TORSDOF 4
ENDMDL
MODEL 2
REMARK VINA RESULT:      -7.0     21.803     26.517
REMARK  Name = 51136818
REMARK  7 active torsions:
REMARK  status: ('A' for Active; 'I' for Inactive)
REMARK    1  A    between atoms: N_3  and  C_13
REMARK    2  A    between atoms: C_9  and  C_15
REMARK    3  A    between atoms: C_13  and  C_14
REMARK    4  A    between atoms: C_14  and  C_16
REMARK    5  A    between atoms: C_14  and  C_17
REMARK    6  A    between atoms: C_22  and  C_24
REMARK    7  A    between atoms: C_26  and  C_29
REMARK                            x       y       z     vdW  Elec       q    Type
REMARK                         _______ _______ _______ _____ _____    ______ ____
ROOT
ATOM      2  O   UNL     1      -7.169  -8.817   6.116  0.00  0.00    -0.276 OA
ATOM      4  N   UNL     1      -5.094  -9.845  10.404  0.00  0.00    -0.312 N 
ATOM      6  N   UNL     1      -6.966  -9.190   8.398  0.00  0.00    -0.299 N 
ATOM      8  N   UNL     1      -2.815 -10.145  10.970  0.00  0.00    -0.240 NA
ATOM     18  C   UNL     1      -4.824 -10.231   9.010  0.00  0.00    +0.125 C 
ATOM     19  C   UNL     1      -5.974  -8.684  10.593  0.00  0.00    +0.125 C 
ATOM     20  C   UNL     1      -6.134 -10.380   8.239  0.00  0.00    +0.126 C 
ATOM     21  C   UNL     1      -7.264  -8.856   9.792  0.00  0.00    +0.126 C 
ATOM     23  C   UNL     1      -4.110 -10.129  11.358  0.00  0.00    +0.122 A 
ATOM     24  C   UNL     1      -3.569 -10.665  13.612  0.00  0.00    +0.027 A 
ATOM     25  C   UNL     1      -4.535 -10.379  12.654  0.00  0.00    +0.055 A 
ATOM     26  C   UNL     1      -7.422  -8.496   7.280  0.00  0.00    +0.213 C 
ATOM     27  C   UNL     1      -2.226 -10.691  13.251  0.00  0.00    +0.031 A 
ATOM     28  C   UNL     1      -1.905 -10.427  11.929  0.00  0.00    +0.113 A 
ATOM     29  C   UNL     1      -8.273  -7.280   7.542  0.00  0.00    +0.109 C 
ENDROOT
BRANCH  24  22
ATOM      1  O   UNL     1      -4.105 -11.815  16.907  0.00  0.00    -0.336 OA
ATOM      5  N   UNL     1      -4.867 -10.149  15.620  0.00  0.00    -0.190 NA
ATOM      7  N   UNL     1      -3.454 -11.948  15.673  0.00  0.00    -0.056 NA
ATOM     15  C   UNL     1      -4.918 -10.733  16.790  0.00  0.00    +0.245 A 
ATOM     22  C   UNL     1      -3.956 -10.929  14.969  0.00  0.00    +0.202 A 
BRANCH  15   9
ATOM      3  N   UNL     1      -7.192 -10.532  17.778  0.00  0.00    -0.291 NA
ATOM      9  C   UNL     1      -5.743 -10.373  18.008  0.00  0.00    +0.146 C 
ATOM     10  C   UNL     1      -5.437 -11.273  19.219  0.00  0.00    +0.030 C 
ATOM     11  C   UNL     1      -7.783 -10.856  19.077  0.00  0.00    +0.085 C 
ATOM     12  C   UNL     1      -6.783 -11.846  19.639  0.00  0.00    +0.017 C 
BRANCH   3  13
ATOM     13  C   UNL     1      -7.810  -9.361  17.171  0.00  0.00    +0.088 C 
BRANCH  13  14
ATOM     14  C   UNL     1      -9.339  -9.349  17.341  0.00  0.00    -0.003 C 
ATOM     16  C   UNL     1      -9.853  -7.908  17.287  0.00  0.00    +0.008 C 
ATOM     17  C   UNL     1     -10.054 -10.190  16.281  0.00  0.00    +0.008 C 
ENDBRANCH  13  14
ENDBRANCH   3  13
ENDBRANCH  15   9
ENDBRANCH  24  22
TORSDOF 4
ENDMDL
MODEL 3
REMARK VINA RESULT:      -6.7     28.507     32.211
REMARK  Name = 51136818
REMARK  7 active torsions:
REMARK  status: ('A' for Active; 'I' for Inactive)
REMARK    1  A    between atoms: N_3  and  C_13
REMARK    2  A    between atoms: C_9  and  C_15
REMARK    3  A    between atoms: C_13  and  C_14
REMARK    4  A    between atoms: C_14  and  C_16
REMARK    5  A    between atoms: C_14  and  C_17
REMARK    6  A    between atoms: C_22  and  C_24
REMARK    7  A    between atoms: C_26  and  C_29
REMARK                            x       y       z     vdW  Elec       q    Type
REMARK                         _______ _______ _______ _____ _____    ______ ____
ROOT
ATOM      2  O   UNL     1       9.977  12.417  24.152  0.00  0.00    -0.276 OA
ATOM      4  N   UNL     1      13.086   9.657  21.608  0.00  0.00    -0.312 N 
ATOM      6  N   UNL     1      11.946  11.333  23.570  0.00  0.00    -0.299 N 
ATOM      8  N   UNL     1      12.847   8.642  19.482  0.00  0.00    -0.240 NA
ATOM     18  C   UNL     1      11.627   9.657  21.799  0.00  0.00    +0.125 C 
ATOM     19  C   UNL     1      13.787  10.887  21.999  0.00  0.00    +0.125 C 
ATOM     20  C   UNL     1      11.280  10.079  23.225  0.00  0.00    +0.126 C 
ATOM     21  C   UNL     1      13.401  11.293  23.421  0.00  0.00    +0.126 C 
ATOM     23  C   UNL     1      13.605   8.862  20.580  0.00  0.00    +0.122 A 
ATOM     24  C   UNL     1      15.408   7.552  19.747  0.00  0.00    +0.027 A 
ATOM     25  C   UNL     1      14.880   8.346  20.758  0.00  0.00    +0.055 A 
ATOM     26  C   UNL     1      11.203  12.423  24.017  0.00  0.00    +0.213 C 
ATOM     27  C   UNL     1      14.658   7.303  18.602  0.00  0.00    +0.031 A 
ATOM     28  C   UNL     1      13.395   7.866  18.520  0.00  0.00    +0.113 A 
ATOM     29  C   UNL     1      11.976  13.675  24.347  0.00  0.00    +0.109 C 
ENDROOT
BRANCH  24  22
ATOM      1  O   UNL     1      18.435   5.735  19.651  0.00  0.00    -0.336 OA
ATOM      5  N   UNL     1      17.659   7.554  20.704  0.00  0.00    -0.190 NA
ATOM      7  N   UNL     1      17.113   5.903  19.216  0.00  0.00    -0.056 NA
ATOM     15  C   UNL     1      18.675   6.748  20.525  0.00  0.00    +0.245 A 
ATOM     22  C   UNL     1      16.724   6.995  19.881  0.00  0.00    +0.202 A 
BRANCH  15   9
ATOM      3  N   UNL     1      21.039   5.985  20.395  0.00  0.00    -0.291 NA
ATOM      9  C   UNL     1      20.056   6.792  21.145  0.00  0.00    +0.146 C 
ATOM     10  C   UNL     1      20.651   8.211  21.170  0.00  0.00    +0.030 C 
ATOM     11  C   UNL     1      22.340   6.622  20.603  0.00  0.00    +0.085 C 
ATOM     12  C   UNL     1      21.996   8.091  20.467  0.00  0.00    +0.017 C 
BRANCH   3  13
ATOM     13  C   UNL     1      21.048   4.581  20.784  0.00  0.00    +0.088 C 
BRANCH  13  14
ATOM     14  C   UNL     1      22.365   4.167  21.461  0.00  0.00    -0.003 C 
ATOM     16  C   UNL     1      22.166   4.094  22.977  0.00  0.00    +0.008 C 
ATOM     17  C   UNL     1      22.893   2.825  20.947  0.00  0.00    +0.008 C 
ENDBRANCH  13  14
ENDBRANCH   3  13
ENDBRANCH  15   9
ENDBRANCH  24  22
TORSDOF 4
ENDMDL
MODEL 4
REMARK VINA RESULT:      -6.7     27.888     31.661
REMARK  Name = 51136818
REMARK  7 active torsions:
REMARK  status: ('A' for Active; 'I' for Inactive)
REMARK    1  A    between atoms: N_3  and  C_13
REMARK    2  A    between atoms: C_9  and  C_15
REMARK    3  A    between atoms: C_13  and  C_14
REMARK    4  A    between atoms: C_14  and  C_16
REMARK    5  A    between atoms: C_14  and  C_17
REMARK    6  A    between atoms: C_22  and  C_24
REMARK    7  A    between atoms: C_26  and  C_29
REMARK                            x       y       z     vdW  Elec       q    Type
REMARK                         _______ _______ _______ _____ _____    ______ ____
ROOT
ATOM      2  O   UNL     1       9.878  12.564  24.243  0.00  0.00    -0.276 OA
ATOM      4  N   UNL     1      12.862   9.793  21.565  0.00  0.00    -0.312 N 
ATOM      6  N   UNL     1      11.791  11.409  23.615  0.00  0.00    -0.299 N 
ATOM      8  N   UNL     1      12.595   8.923  19.380  0.00  0.00    -0.240 NA
ATOM     18  C   UNL     1      11.403   9.862  21.743  0.00  0.00    +0.125 C 
ATOM     19  C   UNL     1      13.625  10.957  22.036  0.00  0.00    +0.125 C 
ATOM     20  C   UNL     1      11.063  10.217  23.189  0.00  0.00    +0.126 C 
ATOM     21  C   UNL     1      13.244  11.298  23.477  0.00  0.00    +0.126 C 
ATOM     23  C   UNL     1      13.350   9.034  20.495  0.00  0.00    +0.122 A 
ATOM     24  C   UNL     1      15.089   7.680  19.600  0.00  0.00    +0.027 A 
ATOM     25  C   UNL     1      14.592   8.439  20.653  0.00  0.00    +0.055 A 
ATOM     26  C   UNL     1      11.104  12.510  24.120  0.00  0.00    +0.213 C 
ATOM     27  C   UNL     1      14.340   7.541  18.436  0.00  0.00    +0.031 A 
ATOM     28  C   UNL     1      13.110   8.176  18.377  0.00  0.00    +0.113 A 
ATOM     29  C   UNL     1      11.940  13.695  24.532  0.00  0.00    +0.109 C 
ENDROOT
BRANCH  24  22
ATOM      1  O   UNL     1      17.977   5.649  19.505  0.00  0.00    -0.336 OA
ATOM      5  N   UNL     1      17.390   7.604  20.427  0.00  0.00    -0.190 NA
ATOM      7  N   UNL     1      16.645   5.872  19.131  0.00  0.00    -0.056 NA
ATOM     15  C   UNL     1      18.337   6.716  20.266  0.00  0.00    +0.245 A 
ATOM     22  C   UNL     1      16.371   7.043  19.712  0.00  0.00    +0.202 A 
BRANCH  15   9
ATOM      3  N   UNL     1      19.802   6.762  22.277  0.00  0.00    -0.291 NA
ATOM      9  C   UNL     1      19.754   6.714  20.802  0.00  0.00    +0.146 C 
ATOM     10  C   UNL     1      20.530   5.439  20.426  0.00  0.00    +0.030 C 
ATOM     11  C   UNL     1      21.031   6.073  22.672  0.00  0.00    +0.085 C 
ATOM     12  C   UNL     1      21.029   4.873  21.748  0.00  0.00    +0.017 C 
BRANCH   3  13
ATOM     13  C   UNL     1      19.737   8.117  22.810  0.00  0.00    +0.088 C 
BRANCH  13  14
ATOM     14  C   UNL     1      21.129   8.697  23.110  0.00  0.00    -0.003 C 
ATOM     16  C   UNL     1      21.483   9.757  22.063  0.00  0.00    +0.008 C 
ATOM     17  C   UNL     1      21.223   9.307  24.511  0.00  0.00    +0.008 C 
ENDBRANCH  13  14
ENDBRANCH   3  13
ENDBRANCH  15   9
ENDBRANCH  24  22
TORSDOF 4
ENDMDL
MODEL 5
REMARK VINA RESULT:      -6.6     23.208     27.473
REMARK  Name = 51136818
REMARK  7 active torsions:
REMARK  status: ('A' for Active; 'I' for Inactive)
REMARK    1  A    between atoms: N_3  and  C_13
REMARK    2  A    between atoms: C_9  and  C_15
REMARK    3  A    between atoms: C_13  and  C_14
REMARK    4  A    between atoms: C_14  and  C_16
REMARK    5  A    between atoms: C_14  and  C_17
REMARK    6  A    between atoms: C_22  and  C_24
REMARK    7  A    between atoms: C_26  and  C_29
REMARK                            x       y       z     vdW  Elec       q    Type
REMARK                         _______ _______ _______ _____ _____    ______ ____
ROOT
ATOM      2  O   UNL     1      -6.558 -11.740  20.452  0.00  0.00    -0.276 OA
ATOM      4  N   UNL     1      -4.737 -11.196  15.964  0.00  0.00    -0.312 N 
ATOM      6  N   UNL     1      -6.444 -11.149  18.210  0.00  0.00    -0.299 N 
ATOM      8  N   UNL     1      -2.711 -11.986  15.027  0.00  0.00    -0.240 NA
ATOM     18  C   UNL     1      -4.155 -11.233  17.315  0.00  0.00    +0.125 C 
ATOM     19  C   UNL     1      -6.106 -11.713  15.838  0.00  0.00    +0.125 C 
ATOM     20  C   UNL     1      -5.103 -10.579  18.318  0.00  0.00    +0.126 C 
ATOM     21  C   UNL     1      -7.023 -11.055  16.869  0.00  0.00    +0.126 C 
ATOM     23  C   UNL     1      -3.860 -11.289  14.877  0.00  0.00    +0.122 A 
ATOM     24  C   UNL     1      -3.372 -10.733  12.616  0.00  0.00    +0.027 A 
ATOM     25  C   UNL     1      -4.233 -10.651  13.704  0.00  0.00    +0.055 A 
ATOM     26  C   UNL     1      -7.067 -11.696  19.329  0.00  0.00    +0.213 C 
ATOM     27  C   UNL     1      -2.179 -11.441  12.732  0.00  0.00    +0.031 A 
ATOM     28  C   UNL     1      -1.899 -12.043  13.948  0.00  0.00    +0.113 A 
ATOM     29  C   UNL     1      -8.448 -12.262  19.121  0.00  0.00    +0.109 C 
ENDROOT
BRANCH  24  22
ATOM      1  O   UNL     1      -3.578  -8.988   9.553  0.00  0.00    -0.336 OA
ATOM      5  N   UNL     1      -4.983 -10.116  10.883  0.00  0.00    -0.190 NA
ATOM      7  N   UNL     1      -2.812  -9.435  10.638  0.00  0.00    -0.056 NA
ATOM     15  C   UNL     1      -4.843  -9.432   9.776  0.00  0.00    +0.245 A 
ATOM     22  C   UNL     1      -3.712 -10.092  11.378  0.00  0.00    +0.202 A 
BRANCH  15   9
ATOM      3  N   UNL     1      -6.266 -10.231   7.899  0.00  0.00    -0.291 NA
ATOM      9  C   UNL     1      -5.878  -9.074   8.730  0.00  0.00    +0.146 C 
ATOM     10  C   UNL     1      -7.197  -8.574   9.346  0.00  0.00    +0.030 C 
ATOM     11  C   UNL     1      -7.648  -9.993   7.480  0.00  0.00    +0.085 C 
ATOM     12  C   UNL     1      -8.277  -9.470   8.755  0.00  0.00    +0.017 C 
BRANCH   3  13
ATOM     13  C   UNL     1      -5.379 -10.447   6.764  0.00  0.00    +0.088 C 
BRANCH  13  14
ATOM     14  C   UNL     1      -4.996 -11.926   6.589  0.00  0.00    -0.003 C 
ATOM     16  C   UNL     1      -3.981 -12.067   5.452  0.00  0.00    +0.008 C 
ATOM     17  C   UNL     1      -4.423 -12.539   7.870  0.00  0.00    +0.008 C 
ENDBRANCH  13  14
ENDBRANCH   3  13
ENDBRANCH  15   9
ENDBRANCH  24  22
TORSDOF 4
ENDMDL
MODEL 6
REMARK VINA RESULT:      -6.6     34.592     38.603
REMARK  Name = 51136818
REMARK  7 active torsions:
REMARK  status: ('A' for Active; 'I' for Inactive)
REMARK    1  A    between atoms: N_3  and  C_13
REMARK    2  A    between atoms: C_9  and  C_15
REMARK    3  A    between atoms: C_13  and  C_14
REMARK    4  A    between atoms: C_14  and  C_16
REMARK    5  A    between atoms: C_14  and  C_17
REMARK    6  A    between atoms: C_22  and  C_24
REMARK    7  A    between atoms: C_26  and  C_29
REMARK                            x       y       z     vdW  Elec       q    Type
REMARK                         _______ _______ _______ _____ _____    ______ ____
ROOT
ATOM      2  O   UNL     1       9.318   3.603  -6.321  0.00  0.00    -0.276 OA
ATOM      4  N   UNL     1      10.768   4.008  -1.685  0.00  0.00    -0.312 N 
ATOM      6  N   UNL     1       9.262   4.154  -4.066  0.00  0.00    -0.299 N 
ATOM      8  N   UNL     1      12.856   3.514  -0.685  0.00  0.00    -0.240 NA
ATOM     18  C   UNL     1      11.030   3.045  -2.767  0.00  0.00    +0.125 C 
ATOM     19  C   UNL     1      10.192   5.296  -2.094  0.00  0.00    +0.125 C 
ATOM     20  C   UNL     1       9.782   2.862  -3.627  0.00  0.00    +0.126 C 
ATOM     21  C   UNL     1       8.959   5.076  -2.971  0.00  0.00    +0.126 C 
ATOM     23  C   UNL     1      11.581   3.944  -0.548  0.00  0.00    +0.122 A 
ATOM     24  C   UNL     1      11.813   4.271   1.797  0.00  0.00    +0.027 A 
ATOM     25  C   UNL     1      11.018   4.331   0.658  0.00  0.00    +0.055 A 
ATOM     26  C   UNL     1       9.072   4.411  -5.422  0.00  0.00    +0.213 C 
ATOM     27  C   UNL     1      13.130   3.833   1.696  0.00  0.00    +0.031 A 
ATOM     28  C   UNL     1      13.598   3.469   0.444  0.00  0.00    +0.113 A 
ATOM     29  C   UNL     1       8.533   5.773  -5.780  0.00  0.00    +0.109 C 
ENDROOT
BRANCH  24  22
ATOM      1  O   UNL     1      10.282   4.618   4.960  0.00  0.00    -0.336 OA
ATOM      5  N   UNL     1      11.436   5.928   3.556  0.00  0.00    -0.190 NA
ATOM      7  N   UNL     1      10.599   3.819   3.853  0.00  0.00    -0.056 NA
ATOM     15  C   UNL     1      10.812   5.843   4.703  0.00  0.00    +0.245 A 
ATOM     22  C   UNL     1      11.279   4.662   3.070  0.00  0.00    +0.202 A 
BRANCH  15   9
ATOM      3  N   UNL     1       9.252   7.492   5.721  0.00  0.00    -0.291 NA
ATOM      9  C   UNL     1      10.605   6.903   5.765  0.00  0.00    +0.146 C 
ATOM     10  C   UNL     1      10.745   6.349   7.194  0.00  0.00    +0.030 C 
ATOM     11  C   UNL     1       8.936   7.903   7.089  0.00  0.00    +0.085 C 
ATOM     12  C   UNL     1       9.448   6.727   7.896  0.00  0.00    +0.017 C 
BRANCH   3  13
ATOM     13  C   UNL     1       9.136   8.596   4.776  0.00  0.00    +0.088 C 
BRANCH  13  14
ATOM     14  C   UNL     1       8.078   8.332   3.692  0.00  0.00    -0.003 C 
ATOM     16  C   UNL     1       6.983   9.399   3.767  0.00  0.00    +0.008 C 
ATOM     17  C   UNL     1       8.675   8.306   2.283  0.00  0.00    +0.008 C 
ENDBRANCH  13  14
ENDBRANCH   3  13
ENDBRANCH  15   9
ENDBRANCH  24  22
TORSDOF 4
ENDMDL
MODEL 7
REMARK VINA RESULT:      -6.6     21.133     25.191
REMARK  Name = 51136818
REMARK  7 active torsions:
REMARK  status: ('A' for Active; 'I' for Inactive)
REMARK    1  A    between atoms: N_3  and  C_13
REMARK    2  A    between atoms: C_9  and  C_15
REMARK    3  A    between atoms: C_13  and  C_14
REMARK    4  A    between atoms: C_14  and  C_16
REMARK    5  A    between atoms: C_14  and  C_17
REMARK    6  A    between atoms: C_22  and  C_24
REMARK    7  A    between atoms: C_26  and  C_29
REMARK                            x       y       z     vdW  Elec       q    Type
REMARK                         _______ _______ _______ _____ _____    ______ ____
ROOT
ATOM      2  O   UNL     1     -13.481  -7.095  16.340  0.00  0.00    -0.276 OA
ATOM      4  N   UNL     1      -8.974  -8.949  16.377  0.00  0.00    -0.312 N 
ATOM      6  N   UNL     1     -11.440  -7.861  15.543  0.00  0.00    -0.299 N 
ATOM      8  N   UNL     1      -7.709  -9.867  18.155  0.00  0.00    -0.240 NA
ATOM     18  C   UNL     1      -9.765  -8.144  17.321  0.00  0.00    +0.125 C 
ATOM     19  C   UNL     1      -9.729  -9.615  15.307  0.00  0.00    +0.125 C 
ATOM     20  C   UNL     1     -10.659  -7.165  16.563  0.00  0.00    +0.126 C 
ATOM     21  C   UNL     1     -10.629  -8.613  14.584  0.00  0.00    +0.126 C 
ATOM     23  C   UNL     1      -7.790  -9.527  16.849  0.00  0.00    +0.122 A 
ATOM     24  C   UNL     1      -5.582 -10.285  16.389  0.00  0.00    +0.027 A 
ATOM     25  C   UNL     1      -6.765  -9.714  15.934  0.00  0.00    +0.055 A 
ATOM     26  C   UNL     1     -12.829  -7.756  15.528  0.00  0.00    +0.213 C 
ATOM     27  C   UNL     1      -5.461 -10.647  17.727  0.00  0.00    +0.031 A 
ATOM     28  C   UNL     1      -6.543 -10.418  18.561  0.00  0.00    +0.113 A 
ATOM     29  C   UNL     1     -13.550  -8.510  14.440  0.00  0.00    +0.109 C 
ENDROOT
BRANCH  24  22
ATOM      1  O   UNL     1      -2.547 -10.915  14.698  0.00  0.00    -0.336 OA
ATOM      5  N   UNL     1      -4.655 -10.417  14.130  0.00  0.00    -0.190 NA
ATOM      7  N   UNL     1      -3.257 -10.796  15.901  0.00  0.00    -0.056 NA
ATOM     15  C   UNL     1      -3.444 -10.676  13.706  0.00  0.00    +0.245 A 
ATOM     22  C   UNL     1      -4.491 -10.501  15.482  0.00  0.00    +0.202 A 
BRANCH  15   9
ATOM      3  N   UNL     1      -3.715  -9.937  11.346  0.00  0.00    -0.291 NA
ATOM      9  C   UNL     1      -2.917 -10.747  12.288  0.00  0.00    +0.146 C 
ATOM     10  C   UNL     1      -1.485 -10.200  12.159  0.00  0.00    +0.030 C 
ATOM     11  C   UNL     1      -2.798  -9.511  10.289  0.00  0.00    +0.085 C 
ATOM     12  C   UNL     1      -1.562  -9.130  11.079  0.00  0.00    +0.017 C 
BRANCH   3  13
ATOM     13  C   UNL     1      -4.872 -10.645  10.816  0.00  0.00    +0.088 C 
BRANCH  13  14
ATOM     14  C   UNL     1      -4.655 -11.127   9.372  0.00  0.00    -0.003 C 
ATOM     16  C   UNL     1      -4.450 -12.644   9.358  0.00  0.00    +0.008 C 
ATOM     17  C   UNL     1      -5.818 -10.756   8.448  0.00  0.00    +0.008 C 
ENDBRANCH  13  14
ENDBRANCH   3  13
ENDBRANCH  15   9
ENDBRANCH  24  22
TORSDOF 4
ENDMDL
MODEL 8
REMARK VINA RESULT:      -6.5     27.561     32.036
REMARK  Name = 51136818
REMARK  7 active torsions:
REMARK  status: ('A' for Active; 'I' for Inactive)
REMARK    1  A    between atoms: N_3  and  C_13
REMARK    2  A    between atoms: C_9  and  C_15
REMARK    3  A    between atoms: C_13  and  C_14
REMARK    4  A    between atoms: C_14  and  C_16
REMARK    5  A    between atoms: C_14  and  C_17
REMARK    6  A    between atoms: C_22  and  C_24
REMARK    7  A    between atoms: C_26  and  C_29
REMARK                            x       y       z     vdW  Elec       q    Type
REMARK                         _______ _______ _______ _____ _____    ______ ____
ROOT
ATOM      2  O   UNL     1      12.497  14.548   8.381  0.00  0.00    -0.276 OA
ATOM      4  N   UNL     1      13.299  12.433  12.699  0.00  0.00    -0.312 N 
ATOM      6  N   UNL     1      12.267  13.061  10.149  0.00  0.00    -0.299 N 
ATOM      8  N   UNL     1      14.695  13.094  14.493  0.00  0.00    -0.240 NA
ATOM     18  C   UNL     1      14.138  13.171  11.741  0.00  0.00    +0.125 C 
ATOM     19  C   UNL     1      11.847  12.572  12.525  0.00  0.00    +0.125 C 
ATOM     20  C   UNL     1      13.705  12.861  10.309  0.00  0.00    +0.126 C 
ATOM     21  C   UNL     1      11.451  12.277  11.078  0.00  0.00    +0.126 C 
ATOM     23  C   UNL     1      13.823  12.200  13.975  0.00  0.00    +0.122 A 
ATOM     24  C   UNL     1      13.921  10.806  15.901  0.00  0.00    +0.027 A 
ATOM     25  C   UNL     1      13.408  11.052  14.632  0.00  0.00    +0.055 A 
ATOM     26  C   UNL     1      11.782  13.917   9.164  0.00  0.00    +0.213 C 
ATOM     27  C   UNL     1      14.822  11.703  16.466  0.00  0.00    +0.031 A 
ATOM     28  C   UNL     1      15.174  12.821  15.727  0.00  0.00    +0.113 A 
ATOM     29  C   UNL     1      10.284  14.062   9.074  0.00  0.00    +0.109 C 
ENDROOT
BRANCH  24  22
ATOM      1  O   UNL     1      13.135   7.597  17.149  0.00  0.00    -0.336 OA
ATOM      5  N   UNL     1      13.001   9.709  17.883  0.00  0.00    -0.190 NA
ATOM      7  N   UNL     1      13.634   8.402  16.116  0.00  0.00    -0.056 NA
ATOM     15  C   UNL     1      12.785   8.446  18.151  0.00  0.00    +0.245 A 
ATOM     22  C   UNL     1      13.522   9.632  16.624  0.00  0.00    +0.202 A 
BRANCH  15   9
ATOM      3  N   UNL     1      13.161   7.821  20.529  0.00  0.00    -0.291 NA
ATOM      9  C   UNL     1      12.209   7.814  19.401  0.00  0.00    +0.146 C 
ATOM     10  C   UNL     1      10.971   8.560  19.928  0.00  0.00    +0.030 C 
ATOM     11  C   UNL     1      12.354   7.878  21.749  0.00  0.00    +0.085 C 
ATOM     12  C   UNL     1      11.294   8.894  21.378  0.00  0.00    +0.017 C 
BRANCH   3  13
ATOM     13  C   UNL     1      14.068   6.681  20.524  0.00  0.00    +0.088 C 
BRANCH  13  14
ATOM     14  C   UNL     1      15.532   7.097  20.303  0.00  0.00    -0.003 C 
ATOM     16  C   UNL     1      16.041   6.517  18.981  0.00  0.00    +0.008 C 
ATOM     17  C   UNL     1      15.718   8.616  20.303  0.00  0.00    +0.008 C 
ENDBRANCH  13  14
ENDBRANCH   3  13
ENDBRANCH  15   9
ENDBRANCH  24  22
TORSDOF 4
ENDMDL
MODEL 9
REMARK VINA RESULT:      -6.5     21.256     25.497
REMARK  Name = 51136818
REMARK  7 active torsions:
REMARK  status: ('A' for Active; 'I' for Inactive)
REMARK    1  A    between atoms: N_3  and  C_13
REMARK    2  A    between atoms: C_9  and  C_15
REMARK    3  A    between atoms: C_13  and  C_14
REMARK    4  A    between atoms: C_14  and  C_16
REMARK    5  A    between atoms: C_14  and  C_17
REMARK    6  A    between atoms: C_22  and  C_24
REMARK    7  A    between atoms: C_26  and  C_29
REMARK                            x       y       z     vdW  Elec       q    Type
REMARK                         _______ _______ _______ _____ _____    ______ ____
ROOT
ATOM      2  O   UNL     1     -13.197  -7.260  16.290  0.00  0.00    -0.276 OA
ATOM      4  N   UNL     1      -8.671  -9.060  16.472  0.00  0.00    -0.312 N 
ATOM      6  N   UNL     1     -11.140  -8.049  15.556  0.00  0.00    -0.299 N 
ATOM      8  N   UNL     1      -7.414  -9.860  18.312  0.00  0.00    -0.240 NA
ATOM     18  C   UNL     1      -9.479  -8.211  17.362  0.00  0.00    +0.125 C 
ATOM     19  C   UNL     1      -9.410  -9.795  15.436  0.00  0.00    +0.125 C 
ATOM     20  C   UNL     1     -10.376  -7.287  16.540  0.00  0.00    +0.126 C 
ATOM     21  C   UNL     1     -10.313  -8.845  14.649  0.00  0.00    +0.126 C 
ATOM     23  C   UNL     1      -7.486  -9.597  16.987  0.00  0.00    +0.122 A 
ATOM     24  C   UNL     1      -5.266 -10.356  16.591  0.00  0.00    +0.027 A 
ATOM     25  C   UNL     1      -6.451  -9.825  16.094  0.00  0.00    +0.055 A 
ATOM     26  C   UNL     1     -12.530  -7.960  15.523  0.00  0.00    +0.213 C 
ATOM     27  C   UNL     1      -5.154 -10.639  17.949  0.00  0.00    +0.031 A 
ATOM     28  C   UNL     1      -6.246 -10.375  18.759  0.00  0.00    +0.113 A 
ATOM     29  C   UNL     1     -13.233  -8.783  14.474  0.00  0.00    +0.109 C 
ENDROOT
BRANCH  24  22
ATOM      1  O   UNL     1      -2.188 -10.905  14.950  0.00  0.00    -0.336 OA
ATOM      5  N   UNL     1      -4.354 -10.865  14.380  0.00  0.00    -0.190 NA
ATOM      7  N   UNL     1      -2.895 -10.619  16.126  0.00  0.00    -0.056 NA
ATOM     15  C   UNL     1      -3.122 -11.035  13.971  0.00  0.00    +0.245 A 
ATOM     22  C   UNL     1      -4.164 -10.612  15.708  0.00  0.00    +0.202 A 
BRANCH  15   9
ATOM      3  N   UNL     1      -3.402 -12.393  11.905  0.00  0.00    -0.291 NA
ATOM      9  C   UNL     1      -2.605 -11.350  12.583  0.00  0.00    +0.146 C 
ATOM     10  C   UNL     1      -2.663 -10.137  11.638  0.00  0.00    +0.030 C 
ATOM     11  C   UNL     1      -3.307 -12.117  10.471  0.00  0.00    +0.085 C 
ATOM     12  C   UNL     1      -3.459 -10.611  10.430  0.00  0.00    +0.017 C 
BRANCH   3  13
ATOM     13  C   UNL     1      -2.975 -13.746  12.234  0.00  0.00    +0.088 C 
BRANCH  13  14
ATOM     14  C   UNL     1      -4.046 -14.526  13.015  0.00  0.00    -0.003 C 
ATOM     16  C   UNL     1      -3.699 -14.527  14.506  0.00  0.00    +0.008 C 
ATOM     17  C   UNL     1      -5.452 -13.956  12.814  0.00  0.00    +0.008 C 
ENDBRANCH  13  14
ENDBRANCH   3  13
ENDBRANCH  15   9
ENDBRANCH  24  22
TORSDOF 4
ENDMDL
MODEL 10
REMARK VINA RESULT:      -6.4     21.632     26.065
REMARK  Name = 51136818
REMARK  7 active torsions:
REMARK  status: ('A' for Active; 'I' for Inactive)
REMARK    1  A    between atoms: N_3  and  C_13
REMARK    2  A    between atoms: C_9  and  C_15
REMARK    3  A    between atoms: C_13  and  C_14
REMARK    4  A    between atoms: C_14  and  C_16
REMARK    5  A    between atoms: C_14  and  C_17
REMARK    6  A    between atoms: C_22  and  C_24
REMARK    7  A    between atoms: C_26  and  C_29
REMARK                            x       y       z     vdW  Elec       q    Type
REMARK                         _______ _______ _______ _____ _____    ______ ____
ROOT
ATOM      2  O   UNL     1     -11.885  -9.260  18.406  0.00  0.00    -0.276 OA
ATOM      4  N   UNL     1      -7.392 -10.117  16.722  0.00  0.00    -0.312 N 
ATOM      6  N   UNL     1     -10.154  -9.568  16.889  0.00  0.00    -0.299 N 
ATOM      8  N   UNL     1      -5.424 -10.763  17.868  0.00  0.00    -0.240 NA
ATOM     18  C   UNL     1      -7.935  -9.507  17.947  0.00  0.00    +0.125 C 
ATOM     19  C   UNL     1      -8.334 -10.917  15.928  0.00  0.00    +0.125 C 
ATOM     20  C   UNL     1      -9.213  -8.733  17.631  0.00  0.00    +0.126 C 
ATOM     21  C   UNL     1      -9.608 -10.121  15.649  0.00  0.00    +0.126 C 
ATOM     23  C   UNL     1      -6.029 -10.435  16.705  0.00  0.00    +0.122 A 
ATOM     24  C   UNL     1      -4.028 -10.703  15.447  0.00  0.00    +0.027 A 
ATOM     25  C   UNL     1      -5.382 -10.391  15.479  0.00  0.00    +0.055 A 
ATOM     26  C   UNL     1     -11.449  -9.759  17.365  0.00  0.00    +0.213 C 
ATOM     27  C   UNL     1      -3.370 -11.044  16.624  0.00  0.00    +0.031 A 
ATOM     28  C   UNL     1      -4.107 -11.059  17.797  0.00  0.00    +0.113 A 
ATOM     29  C   UNL     1     -12.349 -10.638  16.534  0.00  0.00    +0.109 C 
ENDROOT
BRANCH  24  22
ATOM      1  O   UNL     1      -1.734 -10.680  12.761  0.00  0.00    -0.336 OA
ATOM      5  N   UNL     1      -3.958 -10.574  13.005  0.00  0.00    -0.190 NA
ATOM      7  N   UNL     1      -1.978 -10.742  14.140  0.00  0.00    -0.056 NA
ATOM     15  C   UNL     1      -2.953 -10.581  12.168  0.00  0.00    +0.245 A 
ATOM     22  C   UNL     1      -3.311 -10.674  14.203  0.00  0.00    +0.202 A 
BRANCH  15   9
ATOM      3  N   UNL     1      -4.168 -11.108  10.062  0.00  0.00    -0.291 NA
ATOM      9  C   UNL     1      -2.962 -10.499  10.656  0.00  0.00    +0.146 C 
ATOM     10  C   UNL     1      -2.961  -9.048  10.140  0.00  0.00    +0.030 C 
ATOM     11  C   UNL     1      -4.419 -10.391   8.811  0.00  0.00    +0.085 C 
ATOM     12  C   UNL     1      -4.167  -8.953   9.216  0.00  0.00    +0.017 C 
BRANCH   3  13
ATOM     13  C   UNL     1      -4.045 -12.545   9.855  0.00  0.00    +0.088 C 
BRANCH  13  14
ATOM     14  C   UNL     1      -5.067 -13.346  10.679  0.00  0.00    -0.003 C 
ATOM     16  C   UNL     1      -4.373 -13.980  11.887  0.00  0.00    +0.008 C 
ATOM     17  C   UNL     1      -6.242 -12.488  11.152  0.00  0.00    +0.008 C 
ENDBRANCH  13  14
ENDBRANCH   3  13
ENDBRANCH  15   9
ENDBRANCH  24  22
TORSDOF 4
ENDMDL
