MODEL 1
REMARK VINA RESULT:      -8.2      0.000      0.000
REMARK  Name = 45783750
REMARK  6 active torsions:
REMARK  status: ('A' for Active; 'I' for Inactive)
REMARK    1  A    between atoms: N_3  and  C_14
REMARK    2  A    between atoms: N_6  and  C_22
REMARK    3  A    between atoms: C_10  and  C_15
REMARK    4  A    between atoms: C_14  and  C_16
REMARK    5  A    between atoms: C_19  and  C_23
REMARK    6  A    between atoms: C_26  and  C_28
REMARK                            x       y       z     vdW  Elec       q    Type
REMARK                         _______ _______ _______ _____ _____    ______ ____
ROOT
ATOM      3  N   UNL     1      12.887   8.522  18.781  0.00  0.00    -0.287 NA
ATOM     10  C   UNL     1      13.715   7.356  18.413  0.00  0.00    +0.146 C 
ATOM     11  C   UNL     1      14.269   7.695  17.017  0.00  0.00    +0.030 C 
ATOM     12  C   UNL     1      13.651   9.039  16.659  0.00  0.00    +0.017 C 
ATOM     13  C   UNL     1      12.409   9.103  17.526  0.00  0.00    +0.085 C 
ENDROOT
BRANCH  10  15
ATOM      1  O   UNL     1      14.405   6.851  20.702  0.00  0.00    -0.336 OA
ATOM      4  N   UNL     1      16.103   7.017  19.251  0.00  0.00    -0.190 NA
ATOM      5  N   UNL     1      15.573   6.620  21.441  0.00  0.00    -0.056 NA
ATOM     15  C   UNL     1      14.807   7.076  19.424  0.00  0.00    +0.245 A 
ATOM     19  C   UNL     1      16.530   6.735  20.516  0.00  0.00    +0.207 A 
BRANCH  19  23
ATOM      7  N   UNL     1      20.091   5.627  20.376  0.00  0.00    -0.220 NA
ATOM      8  N   UNL     1      18.272   5.082  18.964  0.00  0.00    -0.342 N 
ATOM      9  N   UNL     1      19.786   7.115  22.246  0.00  0.00    -0.243 NA
ATOM     23  C   UNL     1      17.923   6.572  20.821  0.00  0.00    +0.080 A 
ATOM     24  C   UNL     1      18.782   5.781  20.087  0.00  0.00    +0.130 A 
ATOM     25  C   UNL     1      18.485   7.223  21.901  0.00  0.00    +0.127 A 
ATOM     27  C   UNL     1      20.520   6.313  21.451  0.00  0.00    +0.223 A 
ATOM     30  H   UNL     1      18.938   4.520  18.446  0.00  0.00    +0.144 HD
ATOM     31  H   UNL     1      17.312   4.764  18.981  0.00  0.00    +0.144 HD
ENDBRANCH  19  23
ENDBRANCH  10  15
BRANCH   3  14
ATOM     14  C   UNL     1      11.792   8.187  19.682  0.00  0.00    +0.120 C 
BRANCH  14  16
ATOM     16  C   UNL     1      11.571   9.257  20.718  0.00  0.00    -0.033 A 
ATOM     17  C   UNL     1      10.778   8.993  21.835  0.00  0.00    +0.007 A 
ATOM     18  C   UNL     1      12.157  10.513  20.560  0.00  0.00    +0.007 A 
ATOM     20  C   UNL     1      10.573   9.984  22.795  0.00  0.00    +0.023 A 
ATOM     21  C   UNL     1      11.951  11.504  21.520  0.00  0.00    +0.023 A 
ATOM     22  C   UNL     1      11.159  11.240  22.637  0.00  0.00    +0.033 A 
BRANCH  22   6
ATOM      2  O   UNL     1      11.066  11.064  25.642  0.00  0.00    -0.276 OA
ATOM      6  N   UNL     1      10.953  12.231  23.596  0.00  0.00    -0.286 N 
ATOM     26  C   UNL     1      10.919  12.093  24.990  0.00  0.00    +0.214 C 
ATOM     28  C   UNL     1      10.671  13.412  25.678  0.00  0.00    +0.109 C 
ATOM     29  H   UNL     1      10.812  13.170  23.228  0.00  0.00    +0.155 HD
ENDBRANCH  22   6
ENDBRANCH  14  16
ENDBRANCH   3  14
TORSDOF 5
ENDMDL
MODEL 2
REMARK VINA RESULT:      -7.8      2.143      8.481
REMARK  Name = 45783750
REMARK  6 active torsions:
REMARK  status: ('A' for Active; 'I' for Inactive)
REMARK    1  A    between atoms: N_3  and  C_14
REMARK    2  A    between atoms: N_6  and  C_22
REMARK    3  A    between atoms: C_10  and  C_15
REMARK    4  A    between atoms: C_14  and  C_16
REMARK    5  A    between atoms: C_19  and  C_23
REMARK    6  A    between atoms: C_26  and  C_28
REMARK                            x       y       z     vdW  Elec       q    Type
REMARK                         _______ _______ _______ _____ _____    ______ ____
ROOT
ATOM      3  N   UNL     1      12.835   7.911  20.586  0.00  0.00    -0.287 NA
ATOM     10  C   UNL     1      11.531   8.604  20.571  0.00  0.00    +0.146 C 
ATOM     11  C   UNL     1      10.568   7.637  21.284  0.00  0.00    +0.030 C 
ATOM     12  C   UNL     1      11.404   6.407  21.607  0.00  0.00    +0.017 C 
ATOM     13  C   UNL     1      12.542   6.478  20.608  0.00  0.00    +0.085 C 
ENDROOT
BRANCH  10  15
ATOM      1  O   UNL     1      12.329  10.914  20.600  0.00  0.00    -0.336 OA
ATOM      4  N   UNL     1      11.023  10.375  22.339  0.00  0.00    -0.190 NA
ATOM      5  N   UNL     1      12.232  12.068  21.386  0.00  0.00    -0.056 NA
ATOM     15  C   UNL     1      11.588   9.965  21.231  0.00  0.00    +0.245 A 
ATOM     19  C   UNL     1      11.447  11.671  22.392  0.00  0.00    +0.207 A 
BRANCH  19  23
ATOM      7  N   UNL     1      10.729  13.002  25.803  0.00  0.00    -0.220 NA
ATOM      8  N   UNL     1      11.509  10.871  25.136  0.00  0.00    -0.342 N 
ATOM      9  N   UNL     1      10.272  14.708  24.164  0.00  0.00    -0.243 NA
ATOM     23  C   UNL     1      11.066  12.545  23.465  0.00  0.00    +0.080 A 
ATOM     24  C   UNL     1      11.088  12.181  24.795  0.00  0.00    +0.130 A 
ATOM     25  C   UNL     1      10.646  13.834  23.205  0.00  0.00    +0.127 A 
ATOM     27  C   UNL     1      10.338  14.233  25.422  0.00  0.00    +0.223 A 
ATOM     30  H   UNL     1      11.522  10.647  26.124  0.00  0.00    +0.144 HD
ATOM     31  H   UNL     1      11.320  10.114  24.492  0.00  0.00    +0.144 HD
ENDBRANCH  19  23
ENDBRANCH  10  15
BRANCH   3  14
ATOM     14  C   UNL     1      13.692   8.278  19.465  0.00  0.00    +0.120 C 
BRANCH  14  16
ATOM     16  C   UNL     1      15.087   7.734  19.625  0.00  0.00    -0.033 A 
ATOM     17  C   UNL     1      15.471   6.585  18.932  0.00  0.00    +0.007 A 
ATOM     18  C   UNL     1      15.995   8.376  20.466  0.00  0.00    +0.007 A 
ATOM     20  C   UNL     1      16.762   6.080  19.080  0.00  0.00    +0.023 A 
ATOM     21  C   UNL     1      17.287   7.871  20.614  0.00  0.00    +0.023 A 
ATOM     22  C   UNL     1      17.670   6.723  19.921  0.00  0.00    +0.033 A 
BRANCH  22   6
ATOM      2  O   UNL     1      19.406   6.481  22.370  0.00  0.00    -0.276 OA
ATOM      6  N   UNL     1      18.962   6.218  20.070  0.00  0.00    -0.286 N 
ATOM     26  C   UNL     1      19.728   6.130  21.240  0.00  0.00    +0.214 C 
ATOM     28  C   UNL     1      21.082   5.519  20.978  0.00  0.00    +0.109 C 
ATOM     29  H   UNL     1      19.394   5.872  19.215  0.00  0.00    +0.155 HD
ENDBRANCH  22   6
ENDBRANCH  14  16
ENDBRANCH   3  14
TORSDOF 5
ENDMDL
MODEL 3
REMARK VINA RESULT:      -7.6      3.220      7.556
REMARK  Name = 45783750
REMARK  6 active torsions:
REMARK  status: ('A' for Active; 'I' for Inactive)
REMARK    1  A    between atoms: N_3  and  C_14
REMARK    2  A    between atoms: N_6  and  C_22
REMARK    3  A    between atoms: C_10  and  C_15
REMARK    4  A    between atoms: C_14  and  C_16
REMARK    5  A    between atoms: C_19  and  C_23
REMARK    6  A    between atoms: C_26  and  C_28
REMARK                            x       y       z     vdW  Elec       q    Type
REMARK                         _______ _______ _______ _____ _____    ______ ____
ROOT
ATOM      3  N   UNL     1      13.455   7.827  20.039  0.00  0.00    -0.287 NA
ATOM     10  C   UNL     1      12.391   8.037  19.037  0.00  0.00    +0.146 C 
ATOM     11  C   UNL     1      11.312   8.846  19.778  0.00  0.00    +0.030 C 
ATOM     12  C   UNL     1      11.829   8.990  21.203  0.00  0.00    +0.017 C 
ATOM     13  C   UNL     1      12.801   7.836  21.347  0.00  0.00    +0.085 C 
ENDROOT
BRANCH  10  15
ATOM      1  O   UNL     1      12.404   8.286  16.606  0.00  0.00    -0.336 OA
ATOM      4  N   UNL     1      13.745   9.724  17.680  0.00  0.00    -0.190 NA
ATOM      5  N   UNL     1      13.005   9.072  15.615  0.00  0.00    -0.056 NA
ATOM     15  C   UNL     1      12.894   8.736  17.791  0.00  0.00    +0.245 A 
ATOM     19  C   UNL     1      13.780   9.896  16.327  0.00  0.00    +0.207 A 
BRANCH  19  23
ATOM      7  N   UNL     1      15.359  13.177  15.510  0.00  0.00    -0.220 NA
ATOM      8  N   UNL     1      13.713  12.641  17.122  0.00  0.00    -0.342 N 
ATOM      9  N   UNL     1      16.276  11.467  14.081  0.00  0.00    -0.243 NA
ATOM     23  C   UNL     1      14.602  10.902  15.716  0.00  0.00    +0.080 A 
ATOM     24  C   UNL     1      14.587  12.231  16.084  0.00  0.00    +0.130 A 
ATOM     25  C   UNL     1      15.476  10.573  14.700  0.00  0.00    +0.127 A 
ATOM     27  C   UNL     1      16.169  12.732  14.531  0.00  0.00    +0.223 A 
ATOM     30  H   UNL     1      13.740  13.623  17.370  0.00  0.00    +0.144 HD
ATOM     31  H   UNL     1      12.831  12.159  17.238  0.00  0.00    +0.144 HD
ENDBRANCH  19  23
ENDBRANCH  10  15
BRANCH   3  14
ATOM     14  C   UNL     1      14.221   6.607  19.816  0.00  0.00    +0.120 C 
BRANCH  14  16
ATOM     16  C   UNL     1      15.679   6.792  20.139  0.00  0.00    -0.033 A 
ATOM     17  C   UNL     1      16.063   7.689  21.138  0.00  0.00    +0.007 A 
ATOM     18  C   UNL     1      16.646   6.070  19.441  0.00  0.00    +0.007 A 
ATOM     20  C   UNL     1      17.414   7.862  21.437  0.00  0.00    +0.023 A 
ATOM     21  C   UNL     1      17.997   6.243  19.741  0.00  0.00    +0.023 A 
ATOM     22  C   UNL     1      18.381   7.139  20.738  0.00  0.00    +0.033 A 
BRANCH  22   6
ATOM      2  O   UNL     1      19.970   6.310  23.159  0.00  0.00    -0.276 OA
ATOM      6  N   UNL     1      19.733   7.312  21.038  0.00  0.00    -0.286 N 
ATOM     26  C   UNL     1      20.424   6.905  22.187  0.00  0.00    +0.214 C 
ATOM     28  C   UNL     1      21.883   7.282  22.126  0.00  0.00    +0.109 C 
ATOM     29  H   UNL     1      20.277   7.796  20.326  0.00  0.00    +0.155 HD
ENDBRANCH  22   6
ENDBRANCH  14  16
ENDBRANCH   3  14
TORSDOF 5
ENDMDL
MODEL 4
REMARK VINA RESULT:      -7.6      2.106      8.205
REMARK  Name = 45783750
REMARK  6 active torsions:
REMARK  status: ('A' for Active; 'I' for Inactive)
REMARK    1  A    between atoms: N_3  and  C_14
REMARK    2  A    between atoms: N_6  and  C_22
REMARK    3  A    between atoms: C_10  and  C_15
REMARK    4  A    between atoms: C_14  and  C_16
REMARK    5  A    between atoms: C_19  and  C_23
REMARK    6  A    between atoms: C_26  and  C_28
REMARK                            x       y       z     vdW  Elec       q    Type
REMARK                         _______ _______ _______ _____ _____    ______ ____
ROOT
ATOM      3  N   UNL     1      13.659   8.183  19.394  0.00  0.00    -0.287 NA
ATOM     10  C   UNL     1      14.485   9.339  19.797  0.00  0.00    +0.146 C 
ATOM     11  C   UNL     1      14.573  10.214  18.534  0.00  0.00    +0.030 C 
ATOM     12  C   UNL     1      13.820   9.442  17.460  0.00  0.00    +0.017 C 
ATOM     13  C   UNL     1      13.862   8.010  17.956  0.00  0.00    +0.085 C 
ENDROOT
BRANCH  10  15
ATOM      1  O   UNL     1      14.597   9.984  22.151  0.00  0.00    -0.336 OA
ATOM      4  N   UNL     1      12.827  10.815  21.059  0.00  0.00    -0.190 NA
ATOM      5  N   UNL     1      13.882  10.741  23.088  0.00  0.00    -0.056 NA
ATOM     15  C   UNL     1      13.909  10.081  20.984  0.00  0.00    +0.245 A 
ATOM     19  C   UNL     1      12.853  11.197  22.368  0.00  0.00    +0.207 A 
BRANCH  19  23
ATOM      7  N   UNL     1      10.265  12.594  24.665  0.00  0.00    -0.220 NA
ATOM      8  N   UNL     1      11.613  10.663  24.889  0.00  0.00    -0.342 N 
ATOM      9  N   UNL     1      10.452  14.000  22.718  0.00  0.00    -0.243 NA
ATOM     23  C   UNL     1      11.834  12.040  22.927  0.00  0.00    +0.080 A 
ATOM     24  C   UNL     1      11.223  11.802  24.141  0.00  0.00    +0.130 A 
ATOM     25  C   UNL     1      11.405  13.165  22.253  0.00  0.00    +0.127 A 
ATOM     27  C   UNL     1       9.933  13.660  23.913  0.00  0.00    +0.223 A 
ATOM     30  H   UNL     1      11.148  10.531  25.780  0.00  0.00    +0.144 HD
ATOM     31  H   UNL     1      11.912   9.833  24.395  0.00  0.00    +0.144 HD
ENDBRANCH  19  23
ENDBRANCH  10  15
BRANCH   3  14
ATOM     14  C   UNL     1      13.967   6.970  20.141  0.00  0.00    +0.120 C 
BRANCH  14  16
ATOM     16  C   UNL     1      15.444   6.681  20.158  0.00  0.00    -0.033 A 
ATOM     17  C   UNL     1      16.177   6.868  21.331  0.00  0.00    +0.007 A 
ATOM     18  C   UNL     1      16.080   6.228  19.003  0.00  0.00    +0.007 A 
ATOM     20  C   UNL     1      17.546   6.601  21.347  0.00  0.00    +0.023 A 
ATOM     21  C   UNL     1      17.449   5.961  19.020  0.00  0.00    +0.023 A 
ATOM     22  C   UNL     1      18.182   6.148  20.191  0.00  0.00    +0.033 A 
BRANCH  22   6
ATOM      2  O   UNL     1      20.500   7.871  21.044  0.00  0.00    -0.276 OA
ATOM      6  N   UNL     1      19.551   5.881  20.208  0.00  0.00    -0.286 N 
ATOM     26  C   UNL     1      20.593   6.725  20.616  0.00  0.00    +0.214 C 
ATOM     28  C   UNL     1      21.939   6.058  20.479  0.00  0.00    +0.109 C 
ATOM     29  H   UNL     1      19.817   4.955  19.880  0.00  0.00    +0.155 HD
ENDBRANCH  22   6
ENDBRANCH  14  16
ENDBRANCH   3  14
TORSDOF 5
ENDMDL
MODEL 5
REMARK VINA RESULT:      -7.5     26.405     28.995
REMARK  Name = 45783750
REMARK  6 active torsions:
REMARK  status: ('A' for Active; 'I' for Inactive)
REMARK    1  A    between atoms: N_3  and  C_14
REMARK    2  A    between atoms: N_6  and  C_22
REMARK    3  A    between atoms: C_10  and  C_15
REMARK    4  A    between atoms: C_14  and  C_16
REMARK    5  A    between atoms: C_19  and  C_23
REMARK    6  A    between atoms: C_26  and  C_28
REMARK                            x       y       z     vdW  Elec       q    Type
REMARK                         _______ _______ _______ _____ _____    ______ ____
ROOT
ATOM      3  N   UNL     1      -2.871 -10.433  13.774  0.00  0.00    -0.287 NA
ATOM     10  C   UNL     1      -3.173 -11.259  14.960  0.00  0.00    +0.146 C 
ATOM     11  C   UNL     1      -2.152 -10.806  16.020  0.00  0.00    +0.030 C 
ATOM     12  C   UNL     1      -1.284  -9.770  15.320  0.00  0.00    +0.017 C 
ATOM     13  C   UNL     1      -1.449 -10.101  13.850  0.00  0.00    +0.085 C 
ENDROOT
BRANCH  10  15
ATOM      1  O   UNL     1      -5.153 -12.179  16.057  0.00  0.00    -0.336 OA
ATOM      4  N   UNL     1      -5.413 -10.084  15.308  0.00  0.00    -0.190 NA
ATOM      5  N   UNL     1      -6.462 -11.808  16.388  0.00  0.00    -0.056 NA
ATOM     15  C   UNL     1      -4.606 -11.108  15.425  0.00  0.00    +0.245 A 
ATOM     19  C   UNL     1      -6.540 -10.561  15.914  0.00  0.00    +0.207 A 
BRANCH  19  23
ATOM      7  N   UNL     1      -9.304  -8.494  17.330  0.00  0.00    -0.220 NA
ATOM      8  N   UNL     1      -7.457  -9.504  18.407  0.00  0.00    -0.342 N 
ATOM      9  N   UNL     1      -9.614  -8.727  14.952  0.00  0.00    -0.243 NA
ATOM     23  C   UNL     1      -7.727  -9.763  16.030  0.00  0.00    +0.080 A 
ATOM     24  C   UNL     1      -8.188  -9.243  17.221  0.00  0.00    +0.130 A 
ATOM     25  C   UNL     1      -8.488  -9.470  14.916  0.00  0.00    +0.127 A 
ATOM     27  C   UNL     1      -9.959  -8.277  16.174  0.00  0.00    +0.223 A 
ATOM     30  H   UNL     1      -7.822  -9.095  19.259  0.00  0.00    +0.144 HD
ATOM     31  H   UNL     1      -6.959 -10.381  18.491  0.00  0.00    +0.144 HD
ENDBRANCH  19  23
ENDBRANCH  10  15
BRANCH   3  14
ATOM     14  C   UNL     1      -3.215 -11.086  12.517  0.00  0.00    +0.120 C 
BRANCH  14  16
ATOM     16  C   UNL     1      -4.008 -10.181  11.612  0.00  0.00    -0.033 A 
ATOM     17  C   UNL     1      -5.269  -9.732  12.007  0.00  0.00    +0.007 A 
ATOM     18  C   UNL     1      -3.483  -9.792  10.380  0.00  0.00    +0.007 A 
ATOM     20  C   UNL     1      -6.004  -8.893  11.169  0.00  0.00    +0.023 A 
ATOM     21  C   UNL     1      -4.219  -8.953   9.543  0.00  0.00    +0.023 A 
ATOM     22  C   UNL     1      -5.479  -8.505   9.937  0.00  0.00    +0.033 A 
BRANCH  22   6
ATOM      2  O   UNL     1      -8.115  -8.949   8.550  0.00  0.00    -0.276 OA
ATOM      6  N   UNL     1      -6.214  -7.666   9.099  0.00  0.00    -0.286 N 
ATOM     26  C   UNL     1      -7.442  -7.926   8.476  0.00  0.00    +0.214 C 
ATOM     28  C   UNL     1      -7.908  -6.755   7.647  0.00  0.00    +0.109 C 
ATOM     29  H   UNL     1      -5.799  -6.753   8.924  0.00  0.00    +0.155 HD
ENDBRANCH  22   6
ENDBRANCH  14  16
ENDBRANCH   3  14
TORSDOF 5
ENDMDL
MODEL 6
REMARK VINA RESULT:      -7.4     26.586     29.008
REMARK  Name = 45783750
REMARK  6 active torsions:
REMARK  status: ('A' for Active; 'I' for Inactive)
REMARK    1  A    between atoms: N_3  and  C_14
REMARK    2  A    between atoms: N_6  and  C_22
REMARK    3  A    between atoms: C_10  and  C_15
REMARK    4  A    between atoms: C_14  and  C_16
REMARK    5  A    between atoms: C_19  and  C_23
REMARK    6  A    between atoms: C_26  and  C_28
REMARK                            x       y       z     vdW  Elec       q    Type
REMARK                         _______ _______ _______ _____ _____    ______ ____
ROOT
ATOM      3  N   UNL     1      -2.918 -10.459  14.009  0.00  0.00    -0.287 NA
ATOM     10  C   UNL     1      -2.936 -11.216  15.276  0.00  0.00    +0.146 C 
ATOM     11  C   UNL     1      -1.737 -10.671  16.074  0.00  0.00    +0.030 C 
ATOM     12  C   UNL     1      -1.073  -9.658  15.152  0.00  0.00    +0.017 C 
ATOM     13  C   UNL     1      -1.524 -10.086  13.769  0.00  0.00    +0.085 C 
ENDROOT
BRANCH  10  15
ATOM      1  O   UNL     1      -4.924  -9.910  15.838  0.00  0.00    -0.336 OA
ATOM      4  N   UNL     1      -4.838 -11.917  16.829  0.00  0.00    -0.190 NA
ATOM      5  N   UNL     1      -6.085 -10.010  16.615  0.00  0.00    -0.056 NA
ATOM     15  C   UNL     1      -4.247 -11.074  16.020  0.00  0.00    +0.245 A 
ATOM     19  C   UNL     1      -5.961 -11.220  17.168  0.00  0.00    +0.207 A 
BRANCH  19  23
ATOM      7  N   UNL     1      -8.242 -11.675  20.086  0.00  0.00    -0.220 NA
ATOM      8  N   UNL     1      -6.707  -9.939  19.613  0.00  0.00    -0.342 N 
ATOM      9  N   UNL     1      -8.511 -13.521  18.562  0.00  0.00    -0.243 NA
ATOM     23  C   UNL     1      -6.944 -11.764  18.062  0.00  0.00    +0.080 A 
ATOM     24  C   UNL     1      -7.319 -11.163  19.246  0.00  0.00    +0.130 A 
ATOM     25  C   UNL     1      -7.579 -12.953  17.768  0.00  0.00    +0.127 A 
ATOM     27  C   UNL     1      -8.790 -12.838  19.689  0.00  0.00    +0.223 A 
ATOM     30  H   UNL     1      -7.018  -9.524  20.483  0.00  0.00    +0.144 HD
ATOM     31  H   UNL     1      -5.748  -9.769  19.336  0.00  0.00    +0.144 HD
ENDBRANCH  19  23
ENDBRANCH  10  15
BRANCH   3  14
ATOM     14  C   UNL     1      -3.487 -11.199  12.890  0.00  0.00    +0.120 C 
BRANCH  14  16
ATOM     16  C   UNL     1      -4.203 -10.293  11.924  0.00  0.00    -0.033 A 
ATOM     17  C   UNL     1      -3.686 -10.090  10.644  0.00  0.00    +0.007 A 
ATOM     18  C   UNL     1      -5.383  -9.656  12.309  0.00  0.00    +0.007 A 
ATOM     20  C   UNL     1      -4.349  -9.250   9.750  0.00  0.00    +0.023 A 
ATOM     21  C   UNL     1      -6.045  -8.816  11.414  0.00  0.00    +0.023 A 
ATOM     22  C   UNL     1      -5.528  -8.613  10.135  0.00  0.00    +0.033 A 
BRANCH  22   6
ATOM      2  O   UNL     1      -8.220  -8.897   8.814  0.00  0.00    -0.276 OA
ATOM      6  N   UNL     1      -6.192  -7.772   9.240  0.00  0.00    -0.286 N 
ATOM     26  C   UNL     1      -7.450  -7.955   8.652  0.00  0.00    +0.214 C 
ATOM     28  C   UNL     1      -7.812  -6.812   7.737  0.00  0.00    +0.109 C 
ATOM     29  H   UNL     1      -5.691  -6.922   8.989  0.00  0.00    +0.155 HD
ENDBRANCH  22   6
ENDBRANCH  14  16
ENDBRANCH   3  14
TORSDOF 5
ENDMDL
MODEL 7
REMARK VINA RESULT:      -7.3      2.237      7.833
REMARK  Name = 45783750
REMARK  6 active torsions:
REMARK  status: ('A' for Active; 'I' for Inactive)
REMARK    1  A    between atoms: N_3  and  C_14
REMARK    2  A    between atoms: N_6  and  C_22
REMARK    3  A    between atoms: C_10  and  C_15
REMARK    4  A    between atoms: C_14  and  C_16
REMARK    5  A    between atoms: C_19  and  C_23
REMARK    6  A    between atoms: C_26  and  C_28
REMARK                            x       y       z     vdW  Elec       q    Type
REMARK                         _______ _______ _______ _____ _____    ______ ____
ROOT
ATOM      3  N   UNL     1      13.838   8.685  19.246  0.00  0.00    -0.287 NA
ATOM     10  C   UNL     1      12.584   9.463  19.201  0.00  0.00    +0.146 C 
ATOM     11  C   UNL     1      11.613   8.590  18.384  0.00  0.00    +0.030 C 
ATOM     12  C   UNL     1      12.426   7.375  17.964  0.00  0.00    +0.017 C 
ATOM     13  C   UNL     1      13.859   7.863  18.036  0.00  0.00    +0.085 C 
ENDROOT
BRANCH  10  15
ATOM      1  O   UNL     1      11.096   8.968  21.075  0.00  0.00    -0.336 OA
ATOM      4  N   UNL     1      12.384  10.775  21.382  0.00  0.00    -0.190 NA
ATOM      5  N   UNL     1      10.769   9.469  22.341  0.00  0.00    -0.056 NA
ATOM     15  C   UNL     1      12.054   9.794  20.580  0.00  0.00    +0.245 A 
ATOM     19  C   UNL     1      11.569  10.533  22.450  0.00  0.00    +0.207 A 
BRANCH  19  23
ATOM      7  N   UNL     1      12.692  12.330  25.521  0.00  0.00    -0.220 NA
ATOM      8  N   UNL     1      13.875  10.842  24.113  0.00  0.00    -0.342 N 
ATOM      9  N   UNL     1      10.395  12.891  25.058  0.00  0.00    -0.243 NA
ATOM     23  C   UNL     1      11.582  11.375  23.612  0.00  0.00    +0.080 A 
ATOM     24  C   UNL     1      12.682  11.540  24.428  0.00  0.00    +0.130 A 
ATOM     25  C   UNL     1      10.455  12.082  23.978  0.00  0.00    +0.127 A 
ATOM     27  C   UNL     1      11.534  12.967  25.773  0.00  0.00    +0.223 A 
ATOM     30  H   UNL     1      14.663  10.999  24.731  0.00  0.00    +0.144 HD
ATOM     31  H   UNL     1      13.808   9.936  23.668  0.00  0.00    +0.144 HD
ENDBRANCH  19  23
ENDBRANCH  10  15
BRANCH   3  14
ATOM     14  C   UNL     1      15.027   9.520  19.363  0.00  0.00    +0.120 C 
BRANCH  14  16
ATOM     16  C   UNL     1      16.125   8.827  20.125  0.00  0.00    -0.033 A 
ATOM     17  C   UNL     1      17.024   9.576  20.886  0.00  0.00    +0.007 A 
ATOM     18  C   UNL     1      16.245   7.439  20.070  0.00  0.00    +0.007 A 
ATOM     20  C   UNL     1      18.042   8.935  21.592  0.00  0.00    +0.023 A 
ATOM     21  C   UNL     1      17.263   6.799  20.776  0.00  0.00    +0.023 A 
ATOM     22  C   UNL     1      18.162   7.547  21.537  0.00  0.00    +0.033 A 
BRANCH  22   6
ATOM      2  O   UNL     1      20.941   6.761  20.681  0.00  0.00    -0.276 OA
ATOM      6  N   UNL     1      19.180   6.905  22.243  0.00  0.00    -0.286 N 
ATOM     26  C   UNL     1      20.461   6.561  21.793  0.00  0.00    +0.214 C 
ATOM     28  C   UNL     1      21.267   5.875  22.868  0.00  0.00    +0.109 C 
ATOM     29  H   UNL     1      18.954   6.661  23.205  0.00  0.00    +0.155 HD
ENDBRANCH  22   6
ENDBRANCH  14  16
ENDBRANCH   3  14
TORSDOF 5
ENDMDL
MODEL 8
REMARK VINA RESULT:      -7.0      2.539      5.842
REMARK  Name = 45783750
REMARK  6 active torsions:
REMARK  status: ('A' for Active; 'I' for Inactive)
REMARK    1  A    between atoms: N_3  and  C_14
REMARK    2  A    between atoms: N_6  and  C_22
REMARK    3  A    between atoms: C_10  and  C_15
REMARK    4  A    between atoms: C_14  and  C_16
REMARK    5  A    between atoms: C_19  and  C_23
REMARK    6  A    between atoms: C_26  and  C_28
REMARK                            x       y       z     vdW  Elec       q    Type
REMARK                         _______ _______ _______ _____ _____    ______ ____
ROOT
ATOM      3  N   UNL     1      18.791   8.620  21.874  0.00  0.00    -0.287 NA
ATOM     10  C   UNL     1      19.062   7.530  20.916  0.00  0.00    +0.146 C 
ATOM     11  C   UNL     1      19.669   6.402  21.770  0.00  0.00    +0.030 C 
ATOM     12  C   UNL     1      19.755   6.971  23.179  0.00  0.00    +0.017 C 
ATOM     13  C   UNL     1      19.763   8.471  22.958  0.00  0.00    +0.085 C 
ENDROOT
BRANCH  10  15
ATOM      1  O   UNL     1      17.910   5.923  19.480  0.00  0.00    -0.336 OA
ATOM      4  N   UNL     1      16.656   7.682  20.073  0.00  0.00    -0.190 NA
ATOM      5  N   UNL     1      16.661   5.732  18.877  0.00  0.00    -0.056 NA
ATOM     15  C   UNL     1      17.822   7.093  20.166  0.00  0.00    +0.245 A 
ATOM     19  C   UNL     1      15.978   6.810  19.273  0.00  0.00    +0.207 A 
BRANCH  19  23
ATOM      7  N   UNL     1      12.256   7.056  19.361  0.00  0.00    -0.220 NA
ATOM      8  N   UNL     1      13.773   6.362  21.038  0.00  0.00    -0.342 N 
ATOM      9  N   UNL     1      13.055   7.747  17.196  0.00  0.00    -0.243 NA
ATOM     23  C   UNL     1      14.615   7.044  18.889  0.00  0.00    +0.080 A 
ATOM     24  C   UNL     1      13.536   6.836  19.723  0.00  0.00    +0.130 A 
ATOM     25  C   UNL     1      14.312   7.505  17.624  0.00  0.00    +0.127 A 
ATOM     27  C   UNL     1      12.089   7.505  18.103  0.00  0.00    +0.223 A 
ATOM     30  H   UNL     1      12.956   6.233  21.622  0.00  0.00    +0.144 HD
ATOM     31  H   UNL     1      14.561   5.749  21.202  0.00  0.00    +0.144 HD
ENDBRANCH  19  23
ENDBRANCH  10  15
BRANCH   3  14
ATOM     14  C   UNL     1      18.846   9.945  21.268  0.00  0.00    +0.120 C 
BRANCH  14  16
ATOM     16  C   UNL     1      17.515  10.645  21.329  0.00  0.00    -0.033 A 
ATOM     17  C   UNL     1      16.932  10.929  22.565  0.00  0.00    +0.007 A 
ATOM     18  C   UNL     1      16.862  11.008  20.151  0.00  0.00    +0.007 A 
ATOM     20  C   UNL     1      15.699  11.577  22.622  0.00  0.00    +0.023 A 
ATOM     21  C   UNL     1      15.628  11.656  20.208  0.00  0.00    +0.023 A 
ATOM     22  C   UNL     1      15.047  11.940  21.444  0.00  0.00    +0.033 A 
BRANCH  22   6
ATOM      2  O   UNL     1      12.288  10.958  20.741  0.00  0.00    -0.276 OA
ATOM      6  N   UNL     1      13.813  12.589  21.500  0.00  0.00    -0.286 N 
ATOM     26  C   UNL     1      12.552  12.081  21.158  0.00  0.00    +0.214 C 
ATOM     28  C   UNL     1      11.463  13.104  21.363  0.00  0.00    +0.109 C 
ATOM     29  H   UNL     1      13.842  13.550  21.833  0.00  0.00    +0.155 HD
ENDBRANCH  22   6
ENDBRANCH  14  16
ENDBRANCH   3  14
TORSDOF 5
ENDMDL
MODEL 9
REMARK VINA RESULT:      -7.0     14.398     17.856
REMARK  Name = 45783750
REMARK  6 active torsions:
REMARK  status: ('A' for Active; 'I' for Inactive)
REMARK    1  A    between atoms: N_3  and  C_14
REMARK    2  A    between atoms: N_6  and  C_22
REMARK    3  A    between atoms: C_10  and  C_15
REMARK    4  A    between atoms: C_14  and  C_16
REMARK    5  A    between atoms: C_19  and  C_23
REMARK    6  A    between atoms: C_26  and  C_28
REMARK                            x       y       z     vdW  Elec       q    Type
REMARK                         _______ _______ _______ _____ _____    ______ ____
ROOT
ATOM      3  N   UNL     1      13.976   5.657   2.189  0.00  0.00    -0.287 NA
ATOM     10  C   UNL     1      12.602   5.241   1.847  0.00  0.00    +0.146 C 
ATOM     11  C   UNL     1      12.760   3.839   1.231  0.00  0.00    +0.030 C 
ATOM     12  C   UNL     1      14.260   3.578   1.212  0.00  0.00    +0.017 C 
ATOM     13  C   UNL     1      14.863   4.969   1.250  0.00  0.00    +0.085 C 
ENDROOT
BRANCH  10  15
ATOM      1  O   UNL     1      10.933   4.132   3.247  0.00  0.00    -0.336 OA
ATOM      4  N   UNL     1      11.476   6.194   3.931  0.00  0.00    -0.190 NA
ATOM      5  N   UNL     1      10.168   4.375   4.393  0.00  0.00    -0.056 NA
ATOM     15  C   UNL     1      11.676   5.252   3.045  0.00  0.00    +0.245 A 
ATOM     19  C   UNL     1      10.543   5.610   4.738  0.00  0.00    +0.207 A 
BRANCH  19  23
ATOM      7  N   UNL     1      10.238   7.223   8.089  0.00  0.00    -0.220 NA
ATOM      8  N   UNL     1      12.106   6.203   7.057  0.00  0.00    -0.342 N 
ATOM      9  N   UNL     1       8.117   7.331   6.951  0.00  0.00    -0.243 NA
ATOM     23  C   UNL     1      10.007   6.289   5.883  0.00  0.00    +0.080 A 
ATOM     24  C   UNL     1      10.742   6.586   7.012  0.00  0.00    +0.130 A 
ATOM     25  C   UNL     1       8.687   6.690   5.908  0.00  0.00    +0.127 A 
ATOM     27  C   UNL     1       8.939   7.562   7.992  0.00  0.00    +0.223 A 
ATOM     30  H   UNL     1      12.614   6.450   7.899  0.00  0.00    +0.144 HD
ATOM     31  H   UNL     1      12.395   5.364   6.572  0.00  0.00    +0.144 HD
ENDBRANCH  19  23
ENDBRANCH  10  15
BRANCH   3  14
ATOM     14  C   UNL     1      14.163   7.102   2.159  0.00  0.00    +0.120 C 
BRANCH  14  16
ATOM     16  C   UNL     1      15.162   7.559   3.188  0.00  0.00    -0.033 A 
ATOM     17  C   UNL     1      14.847   7.490   4.546  0.00  0.00    +0.007 A 
ATOM     18  C   UNL     1      16.403   8.053   2.785  0.00  0.00    +0.007 A 
ATOM     20  C   UNL     1      15.772   7.914   5.499  0.00  0.00    +0.023 A 
ATOM     21  C   UNL     1      17.328   8.477   3.739  0.00  0.00    +0.023 A 
ATOM     22  C   UNL     1      17.012   8.408   5.095  0.00  0.00    +0.033 A 
BRANCH  22   6
ATOM      2  O   UNL     1      19.919   7.704   5.447  0.00  0.00    -0.276 OA
ATOM      6  N   UNL     1      17.938   8.832   6.049  0.00  0.00    -0.286 N 
ATOM     26  C   UNL     1      19.287   8.469   6.167  0.00  0.00    +0.214 C 
ATOM     28  C   UNL     1      19.949   9.151   7.339  0.00  0.00    +0.109 C 
ATOM     29  H   UNL     1      17.580   9.487   6.741  0.00  0.00    +0.155 HD
ENDBRANCH  22   6
ENDBRANCH  14  16
ENDBRANCH   3  14
TORSDOF 5
ENDMDL
MODEL 10
REMARK VINA RESULT:      -7.0      2.977      6.879
REMARK  Name = 45783750
REMARK  6 active torsions:
REMARK  status: ('A' for Active; 'I' for Inactive)
REMARK    1  A    between atoms: N_3  and  C_14
REMARK    2  A    between atoms: N_6  and  C_22
REMARK    3  A    between atoms: C_10  and  C_15
REMARK    4  A    between atoms: C_14  and  C_16
REMARK    5  A    between atoms: C_19  and  C_23
REMARK    6  A    between atoms: C_26  and  C_28
REMARK                            x       y       z     vdW  Elec       q    Type
REMARK                         _______ _______ _______ _____ _____    ______ ____
ROOT
ATOM      3  N   UNL     1      17.669   7.076  20.811  0.00  0.00    -0.287 NA
ATOM     10  C   UNL     1      18.047   8.138  21.765  0.00  0.00    +0.146 C 
ATOM     11  C   UNL     1      19.577   8.248  21.639  0.00  0.00    +0.030 C 
ATOM     12  C   UNL     1      19.974   7.170  20.639  0.00  0.00    +0.017 C 
ATOM     13  C   UNL     1      18.824   6.185  20.704  0.00  0.00    +0.085 C 
ENDROOT
BRANCH  10  15
ATOM      1  O   UNL     1      18.051  10.385  20.806  0.00  0.00    -0.336 OA
ATOM      4  N   UNL     1      16.129   9.823  21.810  0.00  0.00    -0.190 NA
ATOM      5  N   UNL     1      17.203  11.492  20.672  0.00  0.00    -0.056 NA
ATOM     15  C   UNL     1      17.341   9.448  21.487  0.00  0.00    +0.245 A 
ATOM     19  C   UNL     1      16.090  11.083  21.288  0.00  0.00    +0.207 A 
BRANCH  19  23
ATOM      7  N   UNL     1      12.665  12.476  20.785  0.00  0.00    -0.220 NA
ATOM      8  N   UNL     1      13.711  10.610  19.775  0.00  0.00    -0.342 N 
ATOM      9  N   UNL     1      13.840  13.804  22.416  0.00  0.00    -0.243 NA
ATOM     23  C   UNL     1      14.922  11.909  21.400  0.00  0.00    +0.080 A 
ATOM     24  C   UNL     1      13.763  11.699  20.681  0.00  0.00    +0.130 A 
ATOM     25  C   UNL     1      14.903  12.987  22.261  0.00  0.00    +0.127 A 
ATOM     27  C   UNL     1      12.770  13.495  21.658  0.00  0.00    +0.223 A 
ATOM     30  H   UNL     1      12.839  10.483  19.275  0.00  0.00    +0.144 HD
ATOM     31  H   UNL     1      14.560  10.324  19.305  0.00  0.00    +0.144 HD
ENDBRANCH  19  23
ENDBRANCH  10  15
BRANCH   3  14
ATOM     14  C   UNL     1      16.459   6.360  21.199  0.00  0.00    +0.120 C 
BRANCH  14  16
ATOM     16  C   UNL     1      15.298   6.694  20.302  0.00  0.00    -0.033 A 
ATOM     17  C   UNL     1      14.006   6.756  20.827  0.00  0.00    +0.007 A 
ATOM     18  C   UNL     1      15.511   6.942  18.946  0.00  0.00    +0.007 A 
ATOM     20  C   UNL     1      12.930   7.065  19.996  0.00  0.00    +0.023 A 
ATOM     21  C   UNL     1      14.434   7.251  18.115  0.00  0.00    +0.023 A 
ATOM     22  C   UNL     1      13.144   7.312  18.640  0.00  0.00    +0.033 A 
BRANCH  22   6
ATOM      2  O   UNL     1      12.569   9.788  17.025  0.00  0.00    -0.276 OA
ATOM      6  N   UNL     1      12.067   7.621  17.808  0.00  0.00    -0.286 N 
ATOM     26  C   UNL     1      11.848   8.796  17.077  0.00  0.00    +0.214 C 
ATOM     28  C   UNL     1      10.559   8.738  16.297  0.00  0.00    +0.109 C 
ATOM     29  H   UNL     1      11.357   6.896  17.729  0.00  0.00    +0.155 HD
ENDBRANCH  22   6
ENDBRANCH  14  16
ENDBRANCH   3  14
TORSDOF 5
ENDMDL
