MODEL 1
REMARK VINA RESULT:      -6.4      0.000      0.000
REMARK  Name = 45783351
REMARK  11 active torsions:
REMARK  status: ('A' for Active; 'I' for Inactive)
REMARK    1  A    between atoms: O_2  and  C_21
REMARK    2  A    between atoms: O_2  and  C_23
REMARK    3  A    between atoms: O_3  and  C_24
REMARK    4  A    between atoms: O_3  and  C_25
REMARK    5  A    between atoms: N_4  and  C_12
REMARK    6  A    between atoms: C_8  and  C_14
REMARK    7  A    between atoms: C_12  and  C_13
REMARK    8  A    between atoms: C_13  and  C_15
REMARK    9  A    between atoms: C_13  and  C_16
REMARK   10  A    between atoms: C_17  and  C_18
REMARK   11  A    between atoms: C_23  and  C_24
REMARK                            x       y       z     vdW  Elec       q    Type
REMARK                         _______ _______ _______ _____ _____    ______ ____
ROOT
ATOM      1  O   UNL     1      18.059   5.775  19.454  0.00  0.00    -0.336 OA
ATOM      5  N   UNL     1      16.754   7.177  20.615  0.00  0.00    -0.190 NA
ATOM      6  N   UNL     1      16.811   5.762  18.819  0.00  0.00    -0.056 NA
ATOM     14  C   UNL     1      17.940   6.632  20.501  0.00  0.00    +0.245 A 
ATOM     17  C   UNL     1      16.097   6.613  19.562  0.00  0.00    +0.202 A 
ENDROOT
BRANCH  17  18
ATOM      7  N   UNL     1      12.050   7.520  18.727  0.00  0.00    -0.221 NA
ATOM     18  C   UNL     1      14.725   6.920  19.279  0.00  0.00    +0.029 A 
ATOM     19  C   UNL     1      13.738   6.642  20.220  0.00  0.00    +0.079 A 
ATOM     20  C   UNL     1      14.375   7.498  18.064  0.00  0.00    +0.031 A 
ATOM     21  C   UNL     1      12.428   6.958  19.898  0.00  0.00    +0.215 A 
ATOM     22  C   UNL     1      13.037   7.775  17.839  0.00  0.00    +0.115 A 
BRANCH  21   2
ATOM      2  O   UNL     1      11.439   6.694  20.808  0.00  0.00    -0.474 OA
BRANCH   2  23
ATOM     23  C   UNL     1      10.599   7.783  21.174  0.00  0.00    +0.258 C 
BRANCH  23  24
ATOM     24  C   UNL     1      11.281   8.589  22.262  0.00  0.00    +0.200 C 
BRANCH  24   3
ATOM      3  O   UNL     1      11.052   9.973  22.027  0.00  0.00    -0.380 OA
ATOM     25  C   UNL     1      11.928  10.485  21.032  0.00  0.00    +0.194 C 
ENDBRANCH  24   3
ENDBRANCH  23  24
ENDBRANCH   2  23
ENDBRANCH  21   2
ENDBRANCH  17  18
BRANCH  14   8
ATOM      4  N   UNL     1      20.425   6.724  20.585  0.00  0.00    -0.291 NA
ATOM      8  C   UNL     1      19.172   6.824  21.359  0.00  0.00    +0.146 C 
ATOM      9  C   UNL     1      19.228   8.217  22.015  0.00  0.00    +0.030 C 
ATOM     10  C   UNL     1      21.402   7.573  21.267  0.00  0.00    +0.085 C 
ATOM     11  C   UNL     1      20.573   8.798  21.602  0.00  0.00    +0.017 C 
BRANCH   4  12
ATOM     12  C   UNL     1      20.900   5.354  20.436  0.00  0.00    +0.088 C 
BRANCH  12  13
ATOM     13  C   UNL     1      22.169   5.078  21.261  0.00  0.00    -0.003 C 
ATOM     15  C   UNL     1      21.884   3.987  22.297  0.00  0.00    +0.008 C 
ATOM     16  C   UNL     1      23.356   4.664  20.390  0.00  0.00    +0.008 C 
ENDBRANCH  12  13
ENDBRANCH   4  12
ENDBRANCH  14   8
TORSDOF 8
ENDMDL
MODEL 2
REMARK VINA RESULT:      -6.3      2.293      8.926
REMARK  Name = 45783351
REMARK  11 active torsions:
REMARK  status: ('A' for Active; 'I' for Inactive)
REMARK    1  A    between atoms: O_2  and  C_21
REMARK    2  A    between atoms: O_2  and  C_23
REMARK    3  A    between atoms: O_3  and  C_24
REMARK    4  A    between atoms: O_3  and  C_25
REMARK    5  A    between atoms: N_4  and  C_12
REMARK    6  A    between atoms: C_8  and  C_14
REMARK    7  A    between atoms: C_12  and  C_13
REMARK    8  A    between atoms: C_13  and  C_15
REMARK    9  A    between atoms: C_13  and  C_16
REMARK   10  A    between atoms: C_17  and  C_18
REMARK   11  A    between atoms: C_23  and  C_24
REMARK                            x       y       z     vdW  Elec       q    Type
REMARK                         _______ _______ _______ _____ _____    ______ ____
ROOT
ATOM      1  O   UNL     1      15.652   6.168  18.502  0.00  0.00    -0.336 OA
ATOM      5  N   UNL     1      16.238   7.311  20.337  0.00  0.00    -0.190 NA
ATOM      6  N   UNL     1      16.947   5.746  18.826  0.00  0.00    -0.056 NA
ATOM     14  C   UNL     1      15.310   7.089  19.440  0.00  0.00    +0.245 A 
ATOM     17  C   UNL     1      17.223   6.464  19.919  0.00  0.00    +0.202 A 
ENDROOT
BRANCH  17  18
ATOM      7  N   UNL     1      20.908   6.161  21.974  0.00  0.00    -0.221 NA
ATOM     18  C   UNL     1      18.472   6.361  20.615  0.00  0.00    +0.029 A 
ATOM     19  C   UNL     1      19.411   5.410  20.230  0.00  0.00    +0.079 A 
ATOM     20  C   UNL     1      18.751   7.212  21.679  0.00  0.00    +0.031 A 
ATOM     21  C   UNL     1      20.602   5.350  20.936  0.00  0.00    +0.215 A 
ATOM     22  C   UNL     1      19.971   7.073  22.319  0.00  0.00    +0.115 A 
BRANCH  21   2
ATOM      2  O   UNL     1      21.542   4.421  20.575  0.00  0.00    -0.474 OA
BRANCH   2  23
ATOM     23  C   UNL     1      21.992   3.538  21.596  0.00  0.00    +0.258 C 
BRANCH  23  24
ATOM     24  C   UNL     1      23.310   2.920  21.169  0.00  0.00    +0.200 C 
BRANCH  24   3
ATOM      3  O   UNL     1      23.683   1.924  22.112  0.00  0.00    -0.380 OA
ATOM     25  C   UNL     1      24.526   0.940  21.526  0.00  0.00    +0.194 C 
ENDBRANCH  24   3
ENDBRANCH  23  24
ENDBRANCH   2  23
ENDBRANCH  21   2
ENDBRANCH  17  18
BRANCH  14   8
ATOM      4  N   UNL     1      13.621   8.636  20.415  0.00  0.00    -0.291 NA
ATOM      8  C   UNL     1      13.934   7.707  19.310  0.00  0.00    +0.146 C 
ATOM      9  C   UNL     1      13.780   8.553  18.032  0.00  0.00    +0.030 C 
ATOM     10  C   UNL     1      12.702   9.634  19.868  0.00  0.00    +0.085 C 
ATOM     11  C   UNL     1      13.321   9.922  18.514  0.00  0.00    +0.017 C 
BRANCH   4  12
ATOM     12  C   UNL     1      13.070   7.968  21.588  0.00  0.00    +0.088 C 
BRANCH  12  13
ATOM     13  C   UNL     1      11.574   7.648  21.433  0.00  0.00    -0.003 C 
ATOM     15  C   UNL     1      11.368   6.131  21.426  0.00  0.00    +0.008 C 
ATOM     16  C   UNL     1      10.722   8.277  22.538  0.00  0.00    +0.008 C 
ENDBRANCH  12  13
ENDBRANCH   4  12
ENDBRANCH  14   8
TORSDOF 8
ENDMDL
MODEL 3
REMARK VINA RESULT:      -5.9     26.788     28.820
REMARK  Name = 45783351
REMARK  11 active torsions:
REMARK  status: ('A' for Active; 'I' for Inactive)
REMARK    1  A    between atoms: O_2  and  C_21
REMARK    2  A    between atoms: O_2  and  C_23
REMARK    3  A    between atoms: O_3  and  C_24
REMARK    4  A    between atoms: O_3  and  C_25
REMARK    5  A    between atoms: N_4  and  C_12
REMARK    6  A    between atoms: C_8  and  C_14
REMARK    7  A    between atoms: C_12  and  C_13
REMARK    8  A    between atoms: C_13  and  C_15
REMARK    9  A    between atoms: C_13  and  C_16
REMARK   10  A    between atoms: C_17  and  C_18
REMARK   11  A    between atoms: C_23  and  C_24
REMARK                            x       y       z     vdW  Elec       q    Type
REMARK                         _______ _______ _______ _____ _____    ______ ____
ROOT
ATOM      1  O   UNL     1      -2.382 -10.645  14.730  0.00  0.00    -0.336 OA
ATOM      5  N   UNL     1      -4.618 -10.711  14.623  0.00  0.00    -0.190 NA
ATOM      6  N   UNL     1      -2.838 -10.575  16.053  0.00  0.00    -0.056 NA
ATOM     14  C   UNL     1      -3.493 -10.722  13.952  0.00  0.00    +0.245 A 
ATOM     17  C   UNL     1      -4.165 -10.619  15.906  0.00  0.00    +0.202 A 
ENDROOT
BRANCH  17  18
ATOM      7  N   UNL     1      -6.823 -10.482  19.194  0.00  0.00    -0.221 NA
ATOM     18  C   UNL     1      -5.066 -10.572  17.021  0.00  0.00    +0.029 A 
ATOM     19  C   UNL     1      -6.320  -9.986  16.882  0.00  0.00    +0.079 A 
ATOM     20  C   UNL     1      -4.691 -11.113  18.245  0.00  0.00    +0.031 A 
ATOM     21  C   UNL     1      -7.153  -9.966  17.989  0.00  0.00    +0.215 A 
ATOM     22  C   UNL     1      -5.596 -11.043  19.291  0.00  0.00    +0.115 A 
BRANCH  21   2
ATOM      2  O   UNL     1      -8.393  -9.395  17.877  0.00  0.00    -0.474 OA
BRANCH   2  23
ATOM     23  C   UNL     1      -8.752  -8.893  16.594  0.00  0.00    +0.258 C 
BRANCH  23  24
ATOM     24  C   UNL     1      -9.887  -7.900  16.752  0.00  0.00    +0.200 C 
BRANCH  24   3
ATOM      3  O   UNL     1     -10.184  -7.328  15.485  0.00  0.00    -0.380 OA
ATOM     25  C   UNL     1     -10.815  -6.061  15.619  0.00  0.00    +0.194 C 
ENDBRANCH  24   3
ENDBRANCH  23  24
ENDBRANCH   2  23
ENDBRANCH  21   2
ENDBRANCH  17  18
BRANCH  14   8
ATOM      4  N   UNL     1      -4.054  -9.813  11.704  0.00  0.00    -0.291 NA
ATOM      8  C   UNL     1      -3.266 -10.810  12.458  0.00  0.00    +0.146 C 
ATOM      9  C   UNL     1      -1.804 -10.534  12.062  0.00  0.00    +0.030 C 
ATOM     10  C   UNL     1      -3.287  -9.508  10.496  0.00  0.00    +0.085 C 
ATOM     11  C   UNL     1      -1.874  -9.409  11.038  0.00  0.00    +0.017 C 
BRANCH   4  12
ATOM     12  C   UNL     1      -5.406 -10.263  11.397  0.00  0.00    +0.088 C 
BRANCH  12  13
ATOM     13  C   UNL     1      -6.458  -9.166  11.634  0.00  0.00    -0.003 C 
ATOM     15  C   UNL     1      -7.246  -8.919  10.344  0.00  0.00    +0.008 C 
ATOM     16  C   UNL     1      -7.423  -9.514  12.769  0.00  0.00    +0.008 C 
ENDBRANCH  12  13
ENDBRANCH   4  12
ENDBRANCH  14   8
TORSDOF 8
ENDMDL
MODEL 4
REMARK VINA RESULT:      -5.9      2.437      8.817
REMARK  Name = 45783351
REMARK  11 active torsions:
REMARK  status: ('A' for Active; 'I' for Inactive)
REMARK    1  A    between atoms: O_2  and  C_21
REMARK    2  A    between atoms: O_2  and  C_23
REMARK    3  A    between atoms: O_3  and  C_24
REMARK    4  A    between atoms: O_3  and  C_25
REMARK    5  A    between atoms: N_4  and  C_12
REMARK    6  A    between atoms: C_8  and  C_14
REMARK    7  A    between atoms: C_12  and  C_13
REMARK    8  A    between atoms: C_13  and  C_15
REMARK    9  A    between atoms: C_13  and  C_16
REMARK   10  A    between atoms: C_17  and  C_18
REMARK   11  A    between atoms: C_23  and  C_24
REMARK                            x       y       z     vdW  Elec       q    Type
REMARK                         _______ _______ _______ _____ _____    ______ ____
ROOT
ATOM      1  O   UNL     1      16.274   8.536  20.478  0.00  0.00    -0.336 OA
ATOM      5  N   UNL     1      16.673   6.346  20.222  0.00  0.00    -0.190 NA
ATOM      6  N   UNL     1      17.591   8.327  20.907  0.00  0.00    -0.056 NA
ATOM     14  C   UNL     1      15.806   7.319  20.093  0.00  0.00    +0.245 A 
ATOM     17  C   UNL     1      17.752   7.013  20.725  0.00  0.00    +0.202 A 
ENDROOT
BRANCH  17  18
ATOM      7  N   UNL     1      21.365   5.014  21.642  0.00  0.00    -0.221 NA
ATOM     18  C   UNL     1      18.977   6.335  21.036  0.00  0.00    +0.029 A 
ATOM     19  C   UNL     1      19.612   6.563  22.253  0.00  0.00    +0.079 A 
ATOM     20  C   UNL     1      19.535   5.447  20.123  0.00  0.00    +0.031 A 
ATOM     21  C   UNL     1      20.793   5.884  22.505  0.00  0.00    +0.215 A 
ATOM     22  C   UNL     1      20.719   4.818  20.470  0.00  0.00    +0.115 A 
BRANCH  21   2
ATOM      2  O   UNL     1      21.437   6.091  23.696  0.00  0.00    -0.474 OA
BRANCH   2  23
ATOM     23  C   UNL     1      22.766   5.593  23.799  0.00  0.00    +0.258 C 
BRANCH  23  24
ATOM     24  C   UNL     1      22.843   4.629  24.967  0.00  0.00    +0.200 C 
BRANCH  24   3
ATOM      3  O   UNL     1      22.295   3.377  24.572  0.00  0.00    -0.380 OA
ATOM     25  C   UNL     1      23.306   2.482  24.127  0.00  0.00    +0.194 C 
ENDBRANCH  24   3
ENDBRANCH  23  24
ENDBRANCH   2  23
ENDBRANCH  21   2
ENDBRANCH  17  18
BRANCH  14   8
ATOM      4  N   UNL     1      13.497   8.229  20.279  0.00  0.00    -0.291 NA
ATOM      8  C   UNL     1      14.382   7.275  19.580  0.00  0.00    +0.146 C 
ATOM      9  C   UNL     1      14.274   7.659  18.093  0.00  0.00    +0.030 C 
ATOM     10  C   UNL     1      12.459   8.609  19.320  0.00  0.00    +0.085 C 
ATOM     11  C   UNL     1      13.261   8.795  18.047  0.00  0.00    +0.017 C 
BRANCH   4  12
ATOM     12  C   UNL     1      12.934   7.692  21.512  0.00  0.00    +0.088 C 
BRANCH  12  13
ATOM     13  C   UNL     1      11.432   7.387  21.388  0.00  0.00    -0.003 C 
ATOM     15  C   UNL     1      11.200   5.878  21.506  0.00  0.00    +0.008 C 
ATOM     16  C   UNL     1      10.596   8.121  22.439  0.00  0.00    +0.008 C 
ENDBRANCH  12  13
ENDBRANCH   4  12
ENDBRANCH  14   8
TORSDOF 8
ENDMDL
MODEL 5
REMARK VINA RESULT:      -5.7     28.553     31.876
REMARK  Name = 45783351
REMARK  11 active torsions:
REMARK  status: ('A' for Active; 'I' for Inactive)
REMARK    1  A    between atoms: O_2  and  C_21
REMARK    2  A    between atoms: O_2  and  C_23
REMARK    3  A    between atoms: O_3  and  C_24
REMARK    4  A    between atoms: O_3  and  C_25
REMARK    5  A    between atoms: N_4  and  C_12
REMARK    6  A    between atoms: C_8  and  C_14
REMARK    7  A    between atoms: C_12  and  C_13
REMARK    8  A    between atoms: C_13  and  C_15
REMARK    9  A    between atoms: C_13  and  C_16
REMARK   10  A    between atoms: C_17  and  C_18
REMARK   11  A    between atoms: C_23  and  C_24
REMARK                            x       y       z     vdW  Elec       q    Type
REMARK                         _______ _______ _______ _____ _____    ______ ____
ROOT
ATOM      1  O   UNL     1     -13.721   9.534  31.428  0.00  0.00    -0.336 OA
ATOM      5  N   UNL     1     -12.207   8.075  32.201  0.00  0.00    -0.190 NA
ATOM      6  N   UNL     1     -14.449   8.494  32.021  0.00  0.00    -0.056 NA
ATOM     14  C   UNL     1     -12.410   9.209  31.577  0.00  0.00    +0.245 A 
ATOM     17  C   UNL     1     -13.486   7.674  32.453  0.00  0.00    +0.202 A 
ENDROOT
BRANCH  17  18
ATOM      7  N   UNL     1     -14.318   4.053  34.476  0.00  0.00    -0.221 NA
ATOM     18  C   UNL     1     -13.768   6.446  33.138  0.00  0.00    +0.029 A 
ATOM     19  C   UNL     1     -13.775   5.242  32.442  0.00  0.00    +0.079 A 
ATOM     20  C   UNL     1     -14.035   6.454  34.503  0.00  0.00    +0.031 A 
ATOM     21  C   UNL     1     -14.054   4.085  33.150  0.00  0.00    +0.215 A 
ATOM     22  C   UNL     1     -14.302   5.243  35.119  0.00  0.00    +0.115 A 
BRANCH  21   2
ATOM      2  O   UNL     1     -14.067   2.887  32.486  0.00  0.00    -0.474 OA
BRANCH   2  23
ATOM     23  C   UNL     1     -13.392   2.842  31.234  0.00  0.00    +0.258 C 
BRANCH  23  24
ATOM     24  C   UNL     1     -14.195   1.992  30.269  0.00  0.00    +0.200 C 
BRANCH  24   3
ATOM      3  O   UNL     1     -13.634   0.685  30.223  0.00  0.00    -0.380 OA
ATOM     25  C   UNL     1     -14.622  -0.314  30.435  0.00  0.00    +0.194 C 
ENDBRANCH  24   3
ENDBRANCH  23  24
ENDBRANCH   2  23
ENDBRANCH  21   2
ENDBRANCH  17  18
BRANCH  14   8
ATOM      4  N   UNL     1     -11.838  10.772  29.727  0.00  0.00    -0.291 NA
ATOM      8  C   UNL     1     -11.404  10.189  31.013  0.00  0.00    +0.146 C 
ATOM      9  C   UNL     1     -11.172  11.401  31.934  0.00  0.00    +0.030 C 
ATOM     10  C   UNL     1     -11.236  12.104  29.653  0.00  0.00    +0.085 C 
ATOM     11  C   UNL     1     -11.442  12.620  31.064  0.00  0.00    +0.017 C 
BRANCH   4  12
ATOM     12  C   UNL     1     -11.491   9.948  28.576  0.00  0.00    +0.088 C 
BRANCH  12  13
ATOM     13  C   UNL     1     -11.004  10.785  27.381  0.00  0.00    -0.003 C 
ATOM     15  C   UNL     1      -9.742  10.152  26.788  0.00  0.00    +0.008 C 
ATOM     16  C   UNL     1     -12.069  10.929  26.292  0.00  0.00    +0.008 C 
ENDBRANCH  12  13
ENDBRANCH   4  12
ENDBRANCH  14   8
TORSDOF 8
ENDMDL
MODEL 6
REMARK VINA RESULT:      -5.7      1.975      3.694
REMARK  Name = 45783351
REMARK  11 active torsions:
REMARK  status: ('A' for Active; 'I' for Inactive)
REMARK    1  A    between atoms: O_2  and  C_21
REMARK    2  A    between atoms: O_2  and  C_23
REMARK    3  A    between atoms: O_3  and  C_24
REMARK    4  A    between atoms: O_3  and  C_25
REMARK    5  A    between atoms: N_4  and  C_12
REMARK    6  A    between atoms: C_8  and  C_14
REMARK    7  A    between atoms: C_12  and  C_13
REMARK    8  A    between atoms: C_13  and  C_15
REMARK    9  A    between atoms: C_13  and  C_16
REMARK   10  A    between atoms: C_17  and  C_18
REMARK   11  A    between atoms: C_23  and  C_24
REMARK                            x       y       z     vdW  Elec       q    Type
REMARK                         _______ _______ _______ _____ _____    ______ ____
ROOT
ATOM      1  O   UNL     1      20.707   6.285  23.120  0.00  0.00    -0.336 OA
ATOM      5  N   UNL     1      20.633   6.417  20.885  0.00  0.00    -0.190 NA
ATOM      6  N   UNL     1      19.351   6.250  22.772  0.00  0.00    -0.056 NA
ATOM     14  C   UNL     1      21.393   6.385  21.951  0.00  0.00    +0.245 A 
ATOM     17  C   UNL     1      19.389   6.332  21.439  0.00  0.00    +0.202 A 
ENDROOT
BRANCH  17  18
ATOM      7  N   UNL     1      15.894   6.332  19.056  0.00  0.00    -0.221 NA
ATOM     18  C   UNL     1      18.204   6.332  20.631  0.00  0.00    +0.029 A 
ATOM     19  C   UNL     1      17.049   6.960  21.085  0.00  0.00    +0.079 A 
ATOM     20  C   UNL     1      18.205   5.705  19.390  0.00  0.00    +0.031 A 
ATOM     21  C   UNL     1      15.931   6.932  20.267  0.00  0.00    +0.215 A 
ATOM     22  C   UNL     1      17.036   5.733  18.649  0.00  0.00    +0.115 A 
BRANCH  21   2
ATOM      2  O   UNL     1      14.781   7.543  20.693  0.00  0.00    -0.474 OA
BRANCH   2  23
ATOM     23  C   UNL     1      13.585   6.776  20.621  0.00  0.00    +0.258 C 
BRANCH  23  24
ATOM     24  C   UNL     1      12.594   7.489  19.720  0.00  0.00    +0.200 C 
BRANCH  24   3
ATOM      3  O   UNL     1      11.285   7.333  20.253  0.00  0.00    -0.380 OA
ATOM     25  C   UNL     1      10.871   8.491  20.965  0.00  0.00    +0.194 C 
ENDBRANCH  24   3
ENDBRANCH  23  24
ENDBRANCH   2  23
ENDBRANCH  21   2
ENDBRANCH  17  18
BRANCH  14   8
ATOM      4  N   UNL     1      23.556   5.242  21.493  0.00  0.00    -0.291 NA
ATOM      8  C   UNL     1      22.902   6.441  22.057  0.00  0.00    +0.146 C 
ATOM      9  C   UNL     1      23.509   7.621  21.276  0.00  0.00    +0.030 C 
ATOM     10  C   UNL     1      24.867   5.676  21.010  0.00  0.00    +0.085 C 
ATOM     11  C   UNL     1      24.535   6.995  20.341  0.00  0.00    +0.017 C 
BRANCH   4  12
ATOM     12  C   UNL     1      23.658   4.143  22.445  0.00  0.00    +0.088 C 
BRANCH  12  13
ATOM     13  C   UNL     1      23.092   2.827  21.883  0.00  0.00    -0.003 C 
ATOM     15  C   UNL     1      21.792   3.106  21.124  0.00  0.00    +0.008 C 
ATOM     16  C   UNL     1      24.082   2.108  20.964  0.00  0.00    +0.008 C 
ENDBRANCH  12  13
ENDBRANCH   4  12
ENDBRANCH  14   8
TORSDOF 8
ENDMDL
MODEL 7
REMARK VINA RESULT:      -5.7     31.310     33.683
REMARK  Name = 45783351
REMARK  11 active torsions:
REMARK  status: ('A' for Active; 'I' for Inactive)
REMARK    1  A    between atoms: O_2  and  C_21
REMARK    2  A    between atoms: O_2  and  C_23
REMARK    3  A    between atoms: O_3  and  C_24
REMARK    4  A    between atoms: O_3  and  C_25
REMARK    5  A    between atoms: N_4  and  C_12
REMARK    6  A    between atoms: C_8  and  C_14
REMARK    7  A    between atoms: C_12  and  C_13
REMARK    8  A    between atoms: C_13  and  C_15
REMARK    9  A    between atoms: C_13  and  C_16
REMARK   10  A    between atoms: C_17  and  C_18
REMARK   11  A    between atoms: C_23  and  C_24
REMARK                            x       y       z     vdW  Elec       q    Type
REMARK                         _______ _______ _______ _____ _____    ______ ____
ROOT
ATOM      1  O   UNL     1     -16.285   2.684  23.039  0.00  0.00    -0.336 OA
ATOM      5  N   UNL     1     -15.795   4.247  24.567  0.00  0.00    -0.190 NA
ATOM      6  N   UNL     1     -16.599   2.124  24.284  0.00  0.00    -0.056 NA
ATOM     14  C   UNL     1     -15.818   3.934  23.296  0.00  0.00    +0.245 A 
ATOM     17  C   UNL     1     -16.283   3.106  25.134  0.00  0.00    +0.202 A 
ENDROOT
BRANCH  17  18
ATOM      7  N   UNL     1     -16.751   2.731  29.321  0.00  0.00    -0.221 NA
ATOM     18  C   UNL     1     -16.441   2.978  26.553  0.00  0.00    +0.029 A 
ATOM     19  C   UNL     1     -16.458   1.719  27.144  0.00  0.00    +0.079 A 
ATOM     20  C   UNL     1     -16.578   4.113  27.345  0.00  0.00    +0.031 A 
ATOM     21  C   UNL     1     -16.615   1.650  28.519  0.00  0.00    +0.215 A 
ATOM     22  C   UNL     1     -16.729   3.937  28.710  0.00  0.00    +0.115 A 
BRANCH  21   2
ATOM      2  O   UNL     1     -16.635   0.422  29.125  0.00  0.00    -0.474 OA
BRANCH   2  23
ATOM     23  C   UNL     1     -15.746   0.234  30.221  0.00  0.00    +0.258 C 
BRANCH  23  24
ATOM     24  C   UNL     1     -14.357  -0.055  29.686  0.00  0.00    +0.200 C 
BRANCH  24   3
ATOM      3  O   UNL     1     -13.433   0.847  30.283  0.00  0.00    -0.380 OA
ATOM     25  C   UNL     1     -14.013   1.535  31.383  0.00  0.00    +0.194 C 
ENDBRANCH  24   3
ENDBRANCH  23  24
ENDBRANCH   2  23
ENDBRANCH  21   2
ENDBRANCH  17  18
BRANCH  14   8
ATOM      4  N   UNL     1     -16.154   6.028  21.994  0.00  0.00    -0.291 NA
ATOM      8  C   UNL     1     -15.405   4.760  22.096  0.00  0.00    +0.146 C 
ATOM      9  C   UNL     1     -13.925   5.183  22.147  0.00  0.00    +0.030 C 
ATOM     10  C   UNL     1     -15.265   6.981  21.329  0.00  0.00    +0.085 C 
ATOM     11  C   UNL     1     -13.938   6.699  22.007  0.00  0.00    +0.017 C 
BRANCH   4  12
ATOM     12  C   UNL     1     -17.427   5.888  21.298  0.00  0.00    +0.088 C 
BRANCH  12  13
ATOM     13  C   UNL     1     -17.421   4.727  20.290  0.00  0.00    -0.003 C 
ATOM     15  C   UNL     1     -18.673   3.867  20.485  0.00  0.00    +0.008 C 
ATOM     16  C   UNL     1     -17.349   5.210  18.840  0.00  0.00    +0.008 C 
ENDBRANCH  12  13
ENDBRANCH   4  12
ENDBRANCH  14   8
TORSDOF 8
ENDMDL
MODEL 8
REMARK VINA RESULT:      -5.7     25.964     29.000
REMARK  Name = 45783351
REMARK  11 active torsions:
REMARK  status: ('A' for Active; 'I' for Inactive)
REMARK    1  A    between atoms: O_2  and  C_21
REMARK    2  A    between atoms: O_2  and  C_23
REMARK    3  A    between atoms: O_3  and  C_24
REMARK    4  A    between atoms: O_3  and  C_25
REMARK    5  A    between atoms: N_4  and  C_12
REMARK    6  A    between atoms: C_8  and  C_14
REMARK    7  A    between atoms: C_12  and  C_13
REMARK    8  A    between atoms: C_13  and  C_15
REMARK    9  A    between atoms: C_13  and  C_16
REMARK   10  A    between atoms: C_17  and  C_18
REMARK   11  A    between atoms: C_23  and  C_24
REMARK                            x       y       z     vdW  Elec       q    Type
REMARK                         _______ _______ _______ _____ _____    ______ ____
ROOT
ATOM      1  O   UNL     1      -4.141 -11.487  17.832  0.00  0.00    -0.336 OA
ATOM      5  N   UNL     1      -5.413 -10.553  16.243  0.00  0.00    -0.190 NA
ATOM      6  N   UNL     1      -5.367 -11.188  18.440  0.00  0.00    -0.056 NA
ATOM     14  C   UNL     1      -4.252 -11.081  16.540  0.00  0.00    +0.245 A 
ATOM     17  C   UNL     1      -6.062 -10.640  17.439  0.00  0.00    +0.202 A 
ENDROOT
BRANCH  17  18
ATOM      7  N   UNL     1     -10.029  -9.251  17.920  0.00  0.00    -0.221 NA
ATOM     18  C   UNL     1      -7.407 -10.169  17.602  0.00  0.00    +0.029 A 
ATOM     19  C   UNL     1      -7.831  -9.021  16.940  0.00  0.00    +0.079 A 
ATOM     20  C   UNL     1      -8.294 -10.857  18.422  0.00  0.00    +0.031 A 
ATOM     21  C   UNL     1      -9.139  -8.608  17.131  0.00  0.00    +0.215 A 
ATOM     22  C   UNL     1      -9.581 -10.362  18.547  0.00  0.00    +0.115 A 
BRANCH  21   2
ATOM      2  O   UNL     1      -9.580  -7.480  16.489  0.00  0.00    -0.474 OA
BRANCH   2  23
ATOM     23  C   UNL     1     -10.887  -7.533  15.929  0.00  0.00    +0.258 C 
BRANCH  23  24
ATOM     24  C   UNL     1     -11.512  -6.153  16.002  0.00  0.00    +0.200 C 
BRANCH  24   3
ATOM      3  O   UNL     1     -12.917  -6.269  15.821  0.00  0.00    -0.380 OA
ATOM     25  C   UNL     1     -13.317  -5.810  14.536  0.00  0.00    +0.194 C 
ENDBRANCH  24   3
ENDBRANCH  23  24
ENDBRANCH   2  23
ENDBRANCH  21   2
ENDBRANCH  17  18
BRANCH  14   8
ATOM      4  N   UNL     1      -3.124 -10.553  14.385  0.00  0.00    -0.291 NA
ATOM      8  C   UNL     1      -3.042 -11.299  15.657  0.00  0.00    +0.146 C 
ATOM      9  C   UNL     1      -1.735 -10.814  16.311  0.00  0.00    +0.030 C 
ATOM     10  C   UNL     1      -1.747 -10.257  13.989  0.00  0.00    +0.085 C 
ATOM     11  C   UNL     1      -1.123  -9.845  15.309  0.00  0.00    +0.017 C 
BRANCH   4  12
ATOM     12  C   UNL     1      -3.852 -11.269  13.346  0.00  0.00    +0.088 C 
BRANCH  12  13
ATOM     13  C   UNL     1      -2.954 -11.649  12.156  0.00  0.00    -0.003 C 
ATOM     15  C   UNL     1      -2.905 -13.173  12.012  0.00  0.00    +0.008 C 
ATOM     16  C   UNL     1      -3.425 -11.023  10.842  0.00  0.00    +0.008 C 
ENDBRANCH  12  13
ENDBRANCH   4  12
ENDBRANCH  14   8
TORSDOF 8
ENDMDL
MODEL 9
REMARK VINA RESULT:      -5.6     16.267     19.534
REMARK  Name = 45783351
REMARK  11 active torsions:
REMARK  status: ('A' for Active; 'I' for Inactive)
REMARK    1  A    between atoms: O_2  and  C_21
REMARK    2  A    between atoms: O_2  and  C_23
REMARK    3  A    between atoms: O_3  and  C_24
REMARK    4  A    between atoms: O_3  and  C_25
REMARK    5  A    between atoms: N_4  and  C_12
REMARK    6  A    between atoms: C_8  and  C_14
REMARK    7  A    between atoms: C_12  and  C_13
REMARK    8  A    between atoms: C_13  and  C_15
REMARK    9  A    between atoms: C_13  and  C_16
REMARK   10  A    between atoms: C_17  and  C_18
REMARK   11  A    between atoms: C_23  and  C_24
REMARK                            x       y       z     vdW  Elec       q    Type
REMARK                         _______ _______ _______ _____ _____    ______ ____
ROOT
ATOM      1  O   UNL     1      11.741   7.399   4.555  0.00  0.00    -0.336 OA
ATOM      5  N   UNL     1      10.613   5.589   3.868  0.00  0.00    -0.190 NA
ATOM      6  N   UNL     1      12.446   6.895   3.455  0.00  0.00    -0.056 NA
ATOM     14  C   UNL     1      10.677   6.572   4.732  0.00  0.00    +0.245 A 
ATOM     17  C   UNL     1      11.719   5.828   3.107  0.00  0.00    +0.202 A 
ENDROOT
BRANCH  17  18
ATOM      7  N   UNL     1      12.758   3.332  -0.147  0.00  0.00    -0.221 NA
ATOM     18  C   UNL     1      12.071   4.982   2.004  0.00  0.00    +0.029 A 
ATOM     19  C   UNL     1      11.158   4.752   0.980  0.00  0.00    +0.079 A 
ATOM     20  C   UNL     1      13.327   4.389   1.952  0.00  0.00    +0.031 A 
ATOM     21  C   UNL     1      11.546   3.926  -0.062  0.00  0.00    +0.215 A 
ATOM     22  C   UNL     1      13.619   3.580   0.866  0.00  0.00    +0.115 A 
BRANCH  21   2
ATOM      2  O   UNL     1      10.664   3.685  -1.082  0.00  0.00    -0.474 OA
BRANCH   2  23
ATOM     23  C   UNL     1      11.224   3.362  -2.350  0.00  0.00    +0.258 C 
BRANCH  23  24
ATOM     24  C   UNL     1      10.760   1.977  -2.757  0.00  0.00    +0.200 C 
BRANCH  24   3
ATOM      3  O   UNL     1       9.442   2.065  -3.285  0.00  0.00    -0.380 OA
ATOM     25  C   UNL     1       9.323   3.135  -4.213  0.00  0.00    +0.194 C 
ENDBRANCH  24   3
ENDBRANCH  23  24
ENDBRANCH   2  23
ENDBRANCH  21   2
ENDBRANCH  17  18
BRANCH  14   8
ATOM      4  N   UNL     1      10.467   7.237   7.121  0.00  0.00    -0.291 NA
ATOM      8  C   UNL     1       9.744   6.907   5.876  0.00  0.00    +0.146 C 
ATOM      9  C   UNL     1       8.873   8.145   5.589  0.00  0.00    +0.030 C 
ATOM     10  C   UNL     1       9.615   8.170   7.859  0.00  0.00    +0.085 C 
ATOM     11  C   UNL     1       9.127   9.089   6.756  0.00  0.00    +0.017 C 
BRANCH   4  12
ATOM     12  C   UNL     1      10.811   6.063   7.913  0.00  0.00    +0.088 C 
BRANCH  12  13
ATOM     13  C   UNL     1       9.591   5.171   8.200  0.00  0.00    -0.003 C 
ATOM     15  C   UNL     1       9.757   3.825   7.488  0.00  0.00    +0.008 C 
ATOM     16  C   UNL     1       9.374   4.937   9.697  0.00  0.00    +0.008 C 
ENDBRANCH  12  13
ENDBRANCH   4  12
ENDBRANCH  14   8
TORSDOF 8
ENDMDL
MODEL 10
REMARK VINA RESULT:      -5.5     27.401     29.552
REMARK  Name = 45783351
REMARK  11 active torsions:
REMARK  status: ('A' for Active; 'I' for Inactive)
REMARK    1  A    between atoms: O_2  and  C_21
REMARK    2  A    between atoms: O_2  and  C_23
REMARK    3  A    between atoms: O_3  and  C_24
REMARK    4  A    between atoms: O_3  and  C_25
REMARK    5  A    between atoms: N_4  and  C_12
REMARK    6  A    between atoms: C_8  and  C_14
REMARK    7  A    between atoms: C_12  and  C_13
REMARK    8  A    between atoms: C_13  and  C_15
REMARK    9  A    between atoms: C_13  and  C_16
REMARK   10  A    between atoms: C_17  and  C_18
REMARK   11  A    between atoms: C_23  and  C_24
REMARK                            x       y       z     vdW  Elec       q    Type
REMARK                         _______ _______ _______ _____ _____    ______ ____
ROOT
ATOM      1  O   UNL     1      -4.553 -12.156  16.636  0.00  0.00    -0.336 OA
ATOM      5  N   UNL     1      -4.731 -10.146  15.663  0.00  0.00    -0.190 NA
ATOM      6  N   UNL     1      -3.957 -12.279  15.375  0.00  0.00    -0.056 NA
ATOM     14  C   UNL     1      -4.983 -10.870  16.725  0.00  0.00    +0.245 A 
ATOM     17  C   UNL     1      -4.102 -11.053  14.863  0.00  0.00    +0.202 A 
ENDROOT
BRANCH  17  18
ATOM      7  N   UNL     1      -2.707 -10.020  11.005  0.00  0.00    -0.221 NA
ATOM     18  C   UNL     1      -3.629 -10.703  13.555  0.00  0.00    +0.029 A 
ATOM     19  C   UNL     1      -4.519 -10.242  12.590  0.00  0.00    +0.079 A 
ATOM     20  C   UNL     1      -2.279 -10.822  13.245  0.00  0.00    +0.031 A 
ATOM     21  C   UNL     1      -4.013  -9.918  11.342  0.00  0.00    +0.215 A 
ATOM     22  C   UNL     1      -1.873 -10.471  11.968  0.00  0.00    +0.115 A 
BRANCH  21   2
ATOM      2  O   UNL     1      -4.870  -9.461  10.376  0.00  0.00    -0.474 OA
BRANCH   2  23
ATOM     23  C   UNL     1      -4.330  -9.294   9.070  0.00  0.00    +0.258 C 
BRANCH  23  24
ATOM     24  C   UNL     1      -4.979 -10.295   8.134  0.00  0.00    +0.200 C 
BRANCH  24   3
ATOM      3  O   UNL     1      -5.641  -9.594   7.089  0.00  0.00    -0.380 OA
ATOM     25  C   UNL     1      -6.969  -9.245   7.454  0.00  0.00    +0.194 C 
ENDBRANCH  24   3
ENDBRANCH  23  24
ENDBRANCH   2  23
ENDBRANCH  21   2
ENDBRANCH  17  18
BRANCH  14   8
ATOM      4  N   UNL     1      -7.144 -10.536  17.913  0.00  0.00    -0.291 NA
ATOM      8  C   UNL     1      -5.672 -10.477  18.014  0.00  0.00    +0.146 C 
ATOM      9  C   UNL     1      -5.323 -11.414  19.185  0.00  0.00    +0.030 C 
ATOM     10  C   UNL     1      -7.640 -10.841  19.255  0.00  0.00    +0.085 C 
ATOM     11  C   UNL     1      -6.662 -11.905  19.716  0.00  0.00    +0.017 C 
BRANCH   4  12
ATOM     12  C   UNL     1      -7.733  -9.316  17.375  0.00  0.00    +0.088 C 
BRANCH  12  13
ATOM     13  C   UNL     1      -9.271  -9.356  17.375  0.00  0.00    -0.003 C 
ATOM     15  C   UNL     1      -9.824  -7.935  17.237  0.00  0.00    +0.008 C 
ATOM     16  C   UNL     1      -9.835 -10.239  16.260  0.00  0.00    +0.008 C 
ENDBRANCH  12  13
ENDBRANCH   4  12
ENDBRANCH  14   8
TORSDOF 8
ENDMDL
