MODEL 1
REMARK VINA RESULT:      -6.1      0.000      0.000
REMARK  Name = 38028801
REMARK  9 active torsions:
REMARK  status: ('A' for Active; 'I' for Inactive)
REMARK    1  A    between atoms: N_4  and  C_15
REMARK    2  A    between atoms: C_7  and  C_11
REMARK    3  A    between atoms: C_9  and  C_15
REMARK    4  A    between atoms: C_10  and  C_14
REMARK    5  A    between atoms: C_11  and  C_16
REMARK    6  A    between atoms: C_11  and  C_17
REMARK    7  A    between atoms: C_12  and  C_19
REMARK    8  A    between atoms: C_14  and  C_18
REMARK    9  A    between atoms: C_24  and  C_25
REMARK                            x       y       z     vdW  Elec       q    Type
REMARK                         _______ _______ _______ _____ _____    ______ ____
ROOT
ATOM      7  C   UNL     1      15.094   9.677  20.471  0.00  0.00    +0.000 C 
ATOM      8  C   UNL     1      14.748   8.792  19.264  0.00  0.00    +0.012 C 
ATOM      9  C   UNL     1      16.030  10.834  20.041  0.00  0.00    +0.032 C 
ATOM     10  C   UNL     1      14.059   9.584  18.137  0.00  0.00    +0.023 C 
ATOM     12  C   UNL     1      14.781  10.882  17.839  0.00  0.00    -0.073 C 
ATOM     13  C   UNL     1      15.669  11.419  18.696  0.00  0.00    -0.022 C 
ATOM     19  C   UNL     1      14.494  11.526  16.511  0.00  0.00    +0.039 C 
ENDROOT
BRANCH   7  11
ATOM     11  C   UNL     1      15.716   8.824  21.580  0.00  0.00    -0.013 C 
ATOM     16  C   UNL     1      14.709   7.797  22.090  0.00  0.00    +0.007 C 
ATOM     17  C   UNL     1      16.980   8.135  21.075  0.00  0.00    +0.007 C 
ENDBRANCH   7  11
BRANCH  10  14
ATOM     14  C   UNL     1      12.584   9.840  18.464  0.00  0.00    +0.103 C 
BRANCH  14  18
ATOM      1  O   UNL     1      11.880   7.568  18.326  0.00  0.00    -0.276 OA
ATOM      3  N   UNL     1      11.488   8.675  20.316  0.00  0.00    -0.301 N 
ATOM     18  C   UNL     1      11.957   8.586  19.017  0.00  0.00    +0.216 C 
ATOM     20  C   UNL     1      10.850   7.554  20.991  0.00  0.00    +0.108 C 
ATOM     21  C   UNL     1      11.551   9.845  21.187  0.00  0.00    +0.108 C 
ATOM     22  C   UNL     1      10.796   7.972  22.453  0.00  0.00    +0.020 C 
ATOM     23  C   UNL     1      10.659   9.487  22.367  0.00  0.00    +0.020 C 
ENDBRANCH  14  18
ENDBRANCH  10  14
BRANCH   9  15
ATOM     15  C   UNL     1      16.049  11.950  21.093  0.00  0.00    +0.112 C 
BRANCH  15   4
ATOM      2  O   UNL     1      15.577  12.310  23.902  0.00  0.00    -0.268 OA
ATOM      4  N   UNL     1      14.778  12.063  21.737  0.00  0.00    -0.309 N 
ATOM     24  C   UNL     1      14.638  12.237  23.113  0.00  0.00    +0.264 C 
ATOM     29  H   UNL     1      13.941  12.054  21.162  0.00  0.00    +0.149 HD
BRANCH  24  25
ATOM      5  N   UNL     1      12.358  12.986  22.880  0.00  0.00    -0.247 NA
ATOM      6  N   UNL     1      11.636  11.778  25.305  0.00  0.00    -0.259 NA
ATOM     25  C   UNL     1      13.248  12.309  23.632  0.00  0.00    +0.143 A 
ATOM     26  C   UNL     1      12.893  11.716  24.824  0.00  0.00    +0.143 A 
ATOM     27  C   UNL     1      11.101  13.049  23.361  0.00  0.00    +0.131 A 
ATOM     28  C   UNL     1      10.746  12.455  24.553  0.00  0.00    +0.130 A 
ENDBRANCH  24  25
ENDBRANCH  15   4
ENDBRANCH   9  15
TORSDOF 6
ENDMDL
MODEL 2
REMARK VINA RESULT:      -6.0     26.583     29.244
REMARK  Name = 38028801
REMARK  9 active torsions:
REMARK  status: ('A' for Active; 'I' for Inactive)
REMARK    1  A    between atoms: N_4  and  C_15
REMARK    2  A    between atoms: C_7  and  C_11
REMARK    3  A    between atoms: C_9  and  C_15
REMARK    4  A    between atoms: C_10  and  C_14
REMARK    5  A    between atoms: C_11  and  C_16
REMARK    6  A    between atoms: C_11  and  C_17
REMARK    7  A    between atoms: C_12  and  C_19
REMARK    8  A    between atoms: C_14  and  C_18
REMARK    9  A    between atoms: C_24  and  C_25
REMARK                            x       y       z     vdW  Elec       q    Type
REMARK                         _______ _______ _______ _____ _____    ______ ____
ROOT
ATOM      7  C   UNL     1      -5.057 -12.260  16.218  0.00  0.00    +0.000 C 
ATOM      8  C   UNL     1      -4.103 -12.753  15.119  0.00  0.00    +0.012 C 
ATOM      9  C   UNL     1      -4.255 -11.673  17.406  0.00  0.00    +0.032 C 
ATOM     10  C   UNL     1      -3.195 -11.628  14.587  0.00  0.00    +0.023 C 
ATOM     12  C   UNL     1      -2.573 -10.827  15.712  0.00  0.00    -0.073 C 
ATOM     13  C   UNL     1      -3.052 -10.870  16.969  0.00  0.00    -0.022 C 
ATOM     19  C   UNL     1      -1.359 -10.010  15.370  0.00  0.00    +0.039 C 
ENDROOT
BRANCH   7  11
ATOM     11  C   UNL     1      -5.974 -13.403  16.660  0.00  0.00    -0.013 C 
ATOM     16  C   UNL     1      -7.298 -13.347  15.903  0.00  0.00    +0.007 C 
ATOM     17  C   UNL     1      -5.288 -14.749  16.449  0.00  0.00    +0.007 C 
ENDBRANCH   7  11
BRANCH  10  14
ATOM     14  C   UNL     1      -3.955 -10.716  13.619  0.00  0.00    +0.103 C 
BRANCH  14  18
ATOM      1  O   UNL     1      -2.089 -11.127  12.196  0.00  0.00    -0.276 OA
ATOM      3  N   UNL     1      -3.800  -9.829  11.344  0.00  0.00    -0.301 N 
ATOM     18  C   UNL     1      -3.188 -10.585  12.327  0.00  0.00    +0.216 C 
ATOM     20  C   UNL     1      -3.186  -9.602  10.043  0.00  0.00    +0.108 C 
ATOM     21  C   UNL     1      -5.098  -9.167  11.434  0.00  0.00    +0.108 C 
ATOM     22  C   UNL     1      -4.305  -9.024   9.191  0.00  0.00    +0.020 C 
ATOM     23  C   UNL     1      -5.149  -8.266  10.208  0.00  0.00    +0.020 C 
ENDBRANCH  14  18
ENDBRANCH  10  14
BRANCH   9  15
ATOM     15  C   UNL     1      -5.148 -10.807  18.302  0.00  0.00    +0.112 C 
BRANCH  15   4
ATOM      2  O   UNL     1      -7.962 -10.681  18.853  0.00  0.00    -0.268 OA
ATOM      4  N   UNL     1      -6.139 -10.128  17.528  0.00  0.00    -0.309 N 
ATOM     24  C   UNL     1      -7.491 -10.118  17.869  0.00  0.00    +0.264 C 
ATOM     29  H   UNL     1      -5.840  -9.599  16.715  0.00  0.00    +0.149 HD
BRANCH  24  25
ATOM      5  N   UNL     1      -9.133  -8.395  17.483  0.00  0.00    -0.247 NA
ATOM      6  N   UNL     1      -9.307  -9.067  14.766  0.00  0.00    -0.259 NA
ATOM     25  C   UNL     1      -8.399  -9.389  16.946  0.00  0.00    +0.143 A 
ATOM     26  C   UNL     1      -8.484  -9.720  15.611  0.00  0.00    +0.143 A 
ATOM     27  C   UNL     1      -9.956  -7.742  16.638  0.00  0.00    +0.131 A 
ATOM     28  C   UNL     1     -10.041  -8.073  15.303  0.00  0.00    +0.130 A 
ENDBRANCH  24  25
ENDBRANCH  15   4
ENDBRANCH   9  15
TORSDOF 6
ENDMDL
MODEL 3
REMARK VINA RESULT:      -5.9     27.102     29.380
REMARK  Name = 38028801
REMARK  9 active torsions:
REMARK  status: ('A' for Active; 'I' for Inactive)
REMARK    1  A    between atoms: N_4  and  C_15
REMARK    2  A    between atoms: C_7  and  C_11
REMARK    3  A    between atoms: C_9  and  C_15
REMARK    4  A    between atoms: C_10  and  C_14
REMARK    5  A    between atoms: C_11  and  C_16
REMARK    6  A    between atoms: C_11  and  C_17
REMARK    7  A    between atoms: C_12  and  C_19
REMARK    8  A    between atoms: C_14  and  C_18
REMARK    9  A    between atoms: C_24  and  C_25
REMARK                            x       y       z     vdW  Elec       q    Type
REMARK                         _______ _______ _______ _____ _____    ______ ____
ROOT
ATOM      7  C   UNL     1      -3.016 -12.299  12.624  0.00  0.00    +0.000 C 
ATOM      8  C   UNL     1      -3.534 -12.669  11.226  0.00  0.00    +0.012 C 
ATOM      9  C   UNL     1      -1.989 -11.143  12.531  0.00  0.00    +0.032 C 
ATOM     10  C   UNL     1      -4.205 -11.476  10.517  0.00  0.00    +0.023 C 
ATOM     12  C   UNL     1      -3.365 -10.218  10.617  0.00  0.00    -0.073 C 
ATOM     13  C   UNL     1      -2.370 -10.093  11.514  0.00  0.00    -0.022 C 
ATOM     19  C   UNL     1      -3.666  -9.125   9.630  0.00  0.00    +0.039 C 
ENDROOT
BRANCH   7  11
ATOM     11  C   UNL     1      -2.420 -13.536  13.301  0.00  0.00    -0.013 C 
ATOM     16  C   UNL     1      -3.300 -13.982  14.465  0.00  0.00    +0.007 C 
ATOM     17  C   UNL     1      -2.249 -14.665  12.290  0.00  0.00    +0.007 C 
ENDBRANCH   7  11
BRANCH  10  14
ATOM     14  C   UNL     1      -5.618 -11.236  11.058  0.00  0.00    +0.103 C 
BRANCH  14  18
ATOM      1  O   UNL     1      -6.748 -12.584   9.451  0.00  0.00    -0.276 OA
ATOM      3  N   UNL     1      -7.384 -10.367   9.604  0.00  0.00    -0.301 N 
ATOM     18  C   UNL     1      -6.631 -11.470   9.966  0.00  0.00    +0.216 C 
ATOM     20  C   UNL     1      -8.399 -10.427   8.562  0.00  0.00    +0.108 C 
ATOM     21  C   UNL     1      -7.298  -9.027  10.176  0.00  0.00    +0.108 C 
ATOM     22  C   UNL     1      -9.181  -9.132   8.719  0.00  0.00    +0.020 C 
ATOM     23  C   UNL     1      -8.127  -8.162   9.238  0.00  0.00    +0.020 C 
ENDBRANCH  14  18
ENDBRANCH  10  14
BRANCH   9  15
ATOM     15  C   UNL     1      -1.780 -10.478  13.896  0.00  0.00    +0.112 C 
BRANCH  15   4
ATOM      2  O   UNL     1      -2.296 -10.965  16.678  0.00  0.00    -0.268 OA
ATOM      4  N   UNL     1      -3.026 -10.308  14.575  0.00  0.00    -0.309 N 
ATOM     24  C   UNL     1      -3.190 -10.569  15.934  0.00  0.00    +0.264 C 
ATOM     29  H   UNL     1      -3.817  -9.944  14.052  0.00  0.00    +0.149 HD
BRANCH  24  25
ATOM      5  N   UNL     1      -4.748 -10.734  17.768  0.00  0.00    -0.247 NA
ATOM      6  N   UNL     1      -6.813  -9.655  16.207  0.00  0.00    -0.259 NA
ATOM     25  C   UNL     1      -4.556 -10.368  16.485  0.00  0.00    +0.143 A 
ATOM     26  C   UNL     1      -5.570  -9.839  15.718  0.00  0.00    +0.143 A 
ATOM     27  C   UNL     1      -5.990 -10.550  18.257  0.00  0.00    +0.131 A 
ATOM     28  C   UNL     1      -7.005 -10.021  17.490  0.00  0.00    +0.130 A 
ENDBRANCH  24  25
ENDBRANCH  15   4
ENDBRANCH   9  15
TORSDOF 6
ENDMDL
MODEL 4
REMARK VINA RESULT:      -5.9      2.465      5.980
REMARK  Name = 38028801
REMARK  9 active torsions:
REMARK  status: ('A' for Active; 'I' for Inactive)
REMARK    1  A    between atoms: N_4  and  C_15
REMARK    2  A    between atoms: C_7  and  C_11
REMARK    3  A    between atoms: C_9  and  C_15
REMARK    4  A    between atoms: C_10  and  C_14
REMARK    5  A    between atoms: C_11  and  C_16
REMARK    6  A    between atoms: C_11  and  C_17
REMARK    7  A    between atoms: C_12  and  C_19
REMARK    8  A    between atoms: C_14  and  C_18
REMARK    9  A    between atoms: C_24  and  C_25
REMARK                            x       y       z     vdW  Elec       q    Type
REMARK                         _______ _______ _______ _____ _____    ______ ____
ROOT
ATOM      7  C   UNL     1      14.815   8.366  20.399  0.00  0.00    +0.000 C 
ATOM      8  C   UNL     1      14.293   8.446  21.842  0.00  0.00    +0.012 C 
ATOM      9  C   UNL     1      14.126   7.206  19.638  0.00  0.00    +0.032 C 
ATOM     10  C   UNL     1      12.769   8.662  21.899  0.00  0.00    +0.023 C 
ATOM     12  C   UNL     1      12.032   7.725  20.963  0.00  0.00    -0.073 C 
ATOM     13  C   UNL     1      12.658   7.073  19.967  0.00  0.00    -0.022 C 
ATOM     19  C   UNL     1      10.567   7.519  21.228  0.00  0.00    +0.039 C 
ENDROOT
BRANCH   7  11
ATOM     11  C   UNL     1      16.339   8.216  20.406  0.00  0.00    -0.013 C 
ATOM     16  C   UNL     1      16.975   9.281  21.296  0.00  0.00    +0.007 C 
ATOM     17  C   UNL     1      16.734   6.818  20.872  0.00  0.00    +0.007 C 
ENDBRANCH   7  11
BRANCH  10  14
ATOM     14  C   UNL     1      12.407  10.122  21.610  0.00  0.00    +0.103 C 
BRANCH  14  18
ATOM      1  O   UNL     1      11.290   9.974  23.709  0.00  0.00    -0.276 OA
ATOM      3  N   UNL     1      11.164  11.990  22.587  0.00  0.00    -0.301 N 
ATOM     18  C   UNL     1      11.573  10.677  22.737  0.00  0.00    +0.216 C 
ATOM     20  C   UNL     1      10.348  12.669  23.583  0.00  0.00    +0.108 C 
ATOM     21  C   UNL     1      11.467  12.874  21.466  0.00  0.00    +0.108 C 
ATOM     22  C   UNL     1      10.412  14.137  23.190  0.00  0.00    +0.020 C 
ATOM     23  C   UNL     1      10.556  14.076  21.675  0.00  0.00    +0.020 C 
ENDBRANCH  14  18
ENDBRANCH  10  14
BRANCH   9  15
ATOM     15  C   UNL     1      14.297   7.361  18.122  0.00  0.00    +0.112 C 
BRANCH  15   4
ATOM      2  O   UNL     1      13.728   8.443  15.524  0.00  0.00    -0.268 OA
ATOM      4  N   UNL     1      14.313   8.741  17.750  0.00  0.00    -0.309 N 
ATOM     24  C   UNL     1      14.023   9.181  16.460  0.00  0.00    +0.264 C 
ATOM     29  H   UNL     1      14.508   9.433  18.467  0.00  0.00    +0.149 HD
BRANCH  24  25
ATOM      5  N   UNL     1      14.190  11.427  17.323  0.00  0.00    -0.247 NA
ATOM      6  N   UNL     1      14.180  12.501  14.733  0.00  0.00    -0.259 NA
ATOM     25  C   UNL     1      14.110  10.647  16.228  0.00  0.00    +0.143 A 
ATOM     26  C   UNL     1      14.105  11.174  14.955  0.00  0.00    +0.143 A 
ATOM     27  C   UNL     1      14.265  12.755  17.101  0.00  0.00    +0.131 A 
ATOM     28  C   UNL     1      14.260  13.282  15.828  0.00  0.00    +0.130 A 
ENDBRANCH  24  25
ENDBRANCH  15   4
ENDBRANCH   9  15
TORSDOF 6
ENDMDL
MODEL 5
REMARK VINA RESULT:      -5.7     26.999     30.249
REMARK  Name = 38028801
REMARK  9 active torsions:
REMARK  status: ('A' for Active; 'I' for Inactive)
REMARK    1  A    between atoms: N_4  and  C_15
REMARK    2  A    between atoms: C_7  and  C_11
REMARK    3  A    between atoms: C_9  and  C_15
REMARK    4  A    between atoms: C_10  and  C_14
REMARK    5  A    between atoms: C_11  and  C_16
REMARK    6  A    between atoms: C_11  and  C_17
REMARK    7  A    between atoms: C_12  and  C_19
REMARK    8  A    between atoms: C_14  and  C_18
REMARK    9  A    between atoms: C_24  and  C_25
REMARK                            x       y       z     vdW  Elec       q    Type
REMARK                         _______ _______ _______ _____ _____    ______ ____
ROOT
ATOM      7  C   UNL     1     -15.419   6.083  31.558  0.00  0.00    +0.000 C 
ATOM      8  C   UNL     1     -16.021   4.911  32.349  0.00  0.00    +0.012 C 
ATOM      9  C   UNL     1     -15.109   7.269  32.504  0.00  0.00    +0.032 C 
ATOM     10  C   UNL     1     -15.081   4.414  33.463  0.00  0.00    +0.023 C 
ATOM     12  C   UNL     1     -14.518   5.561  34.278  0.00  0.00    -0.073 C 
ATOM     13  C   UNL     1     -14.552   6.832  33.839  0.00  0.00    -0.022 C 
ATOM     19  C   UNL     1     -13.957   5.219  35.629  0.00  0.00    +0.039 C 
ENDROOT
BRANCH   7  11
ATOM     11  C   UNL     1     -16.369   6.489  30.428  0.00  0.00    -0.013 C 
ATOM     16  C   UNL     1     -16.677   5.291  29.534  0.00  0.00    +0.007 C 
ATOM     17  C   UNL     1     -17.653   7.081  31.000  0.00  0.00    +0.007 C 
ENDBRANCH   7  11
BRANCH  10  14
ATOM     14  C   UNL     1     -13.957   3.545  32.890  0.00  0.00    +0.103 C 
BRANCH  14  18
ATOM      1  O   UNL     1     -14.338   1.536  34.113  0.00  0.00    -0.276 OA
ATOM      3  N   UNL     1     -14.623   1.446  31.822  0.00  0.00    -0.301 N 
ATOM     18  C   UNL     1     -14.323   2.087  33.011  0.00  0.00    +0.216 C 
ATOM     20  C   UNL     1     -14.989   0.038  31.769  0.00  0.00    +0.108 C 
ATOM     21  C   UNL     1     -14.628   2.040  30.489  0.00  0.00    +0.108 C 
ATOM     22  C   UNL     1     -15.540  -0.158  30.365  0.00  0.00    +0.020 C 
ATOM     23  C   UNL     1     -14.746   0.851  29.545  0.00  0.00    +0.020 C 
ENDBRANCH  14  18
ENDBRANCH  10  14
BRANCH   9  15
ATOM     15  C   UNL     1     -14.141   8.261  31.848  0.00  0.00    +0.112 C 
BRANCH  15   4
ATOM      2  O   UNL     1     -11.412   8.946  31.276  0.00  0.00    -0.268 OA
ATOM      4  N   UNL     1     -13.159   8.709  32.785  0.00  0.00    -0.309 N 
ATOM     24  C   UNL     1     -11.850   9.021  32.421  0.00  0.00    +0.264 C 
ATOM     29  H   UNL     1     -13.438   8.842  33.753  0.00  0.00    +0.149 HD
BRANCH  24  25
ATOM      5  N   UNL     1      -9.701   9.830  33.159  0.00  0.00    -0.247 NA
ATOM      6  N   UNL     1     -10.538   9.825  35.836  0.00  0.00    -0.259 NA
ATOM     25  C   UNL     1     -10.943   9.447  33.518  0.00  0.00    +0.143 A 
ATOM     26  C   UNL     1     -11.354   9.444  34.833  0.00  0.00    +0.143 A 
ATOM     27  C   UNL     1      -8.886  10.211  34.161  0.00  0.00    +0.131 A 
ATOM     28  C   UNL     1      -9.297  10.209  35.476  0.00  0.00    +0.130 A 
ENDBRANCH  24  25
ENDBRANCH  15   4
ENDBRANCH   9  15
TORSDOF 6
ENDMDL
MODEL 6
REMARK VINA RESULT:      -5.6      2.466      5.238
REMARK  Name = 38028801
REMARK  9 active torsions:
REMARK  status: ('A' for Active; 'I' for Inactive)
REMARK    1  A    between atoms: N_4  and  C_15
REMARK    2  A    between atoms: C_7  and  C_11
REMARK    3  A    between atoms: C_9  and  C_15
REMARK    4  A    between atoms: C_10  and  C_14
REMARK    5  A    between atoms: C_11  and  C_16
REMARK    6  A    between atoms: C_11  and  C_17
REMARK    7  A    between atoms: C_12  and  C_19
REMARK    8  A    between atoms: C_14  and  C_18
REMARK    9  A    between atoms: C_24  and  C_25
REMARK                            x       y       z     vdW  Elec       q    Type
REMARK                         _______ _______ _______ _____ _____    ______ ____
ROOT
ATOM      7  C   UNL     1      12.116  11.616  22.423  0.00  0.00    +0.000 C 
ATOM      8  C   UNL     1      12.066  11.042  20.999  0.00  0.00    +0.012 C 
ATOM      9  C   UNL     1      10.971  11.025  23.283  0.00  0.00    +0.032 C 
ATOM     10  C   UNL     1      12.188   9.506  20.984  0.00  0.00    +0.023 C 
ATOM     12  C   UNL     1      11.274   8.860  22.006  0.00  0.00    -0.073 C 
ATOM     13  C   UNL     1      10.729   9.558  23.019  0.00  0.00    -0.022 C 
ATOM     19  C   UNL     1      10.965   7.402  21.810  0.00  0.00    +0.039 C 
ENDROOT
BRANCH   7  11
ATOM     11  C   UNL     1      12.055  13.145  22.368  0.00  0.00    -0.013 C 
ATOM     16  C   UNL     1      13.269  13.700  21.628  0.00  0.00    +0.007 C 
ATOM     17  C   UNL     1      10.761  13.603  21.704  0.00  0.00    +0.007 C 
ENDBRANCH   7  11
BRANCH  10  14
ATOM     14  C   UNL     1      13.640   9.065  21.190  0.00  0.00    +0.103 C 
BRANCH  14  18
ATOM      1  O   UNL     1      13.348   8.017  19.071  0.00  0.00    -0.276 OA
ATOM      3  N   UNL     1      15.284   7.527  20.232  0.00  0.00    -0.301 N 
ATOM     18  C   UNL     1      14.067   8.161  20.062  0.00  0.00    +0.216 C 
ATOM     20  C   UNL     1      15.833   6.617  19.238  0.00  0.00    +0.108 C 
ATOM     21  C   UNL     1      16.182   7.657  21.376  0.00  0.00    +0.108 C 
ATOM     22  C   UNL     1      17.280   6.418  19.661  0.00  0.00    +0.020 C 
ATOM     23  C   UNL     1      17.211   6.552  21.177  0.00  0.00    +0.020 C 
ENDBRANCH  14  18
ENDBRANCH  10  14
BRANCH   9  15
ATOM     15  C   UNL     1      11.238  11.237  24.778  0.00  0.00    +0.112 C 
BRANCH  15   4
ATOM      2  O   UNL     1      12.607  13.337  26.176  0.00  0.00    -0.268 OA
ATOM      4  N   UNL     1      12.641  11.315  25.038  0.00  0.00    -0.309 N 
ATOM     24  C   UNL     1      13.226  12.376  25.728  0.00  0.00    +0.264 C 
ATOM     29  H   UNL     1      13.232  10.544  24.742  0.00  0.00    +0.149 HD
BRANCH  24  25
ATOM      5  N   UNL     1      15.441  12.765  24.857  0.00  0.00    -0.247 NA
ATOM      6  N   UNL     1      16.616  11.785  27.207  0.00  0.00    -0.259 NA
ATOM     25  C   UNL     1      14.702  12.322  25.893  0.00  0.00    +0.143 A 
ATOM     26  C   UNL     1      15.279  11.840  27.047  0.00  0.00    +0.143 A 
ATOM     27  C   UNL     1      16.778  12.710  25.016  0.00  0.00    +0.131 A 
ATOM     28  C   UNL     1      17.355  12.228  26.170  0.00  0.00    +0.130 A 
ENDBRANCH  24  25
ENDBRANCH  15   4
ENDBRANCH   9  15
TORSDOF 6
ENDMDL
MODEL 7
REMARK VINA RESULT:      -5.5     24.967     27.682
REMARK  Name = 38028801
REMARK  9 active torsions:
REMARK  status: ('A' for Active; 'I' for Inactive)
REMARK    1  A    between atoms: N_4  and  C_15
REMARK    2  A    between atoms: C_7  and  C_11
REMARK    3  A    between atoms: C_9  and  C_15
REMARK    4  A    between atoms: C_10  and  C_14
REMARK    5  A    between atoms: C_11  and  C_16
REMARK    6  A    between atoms: C_11  and  C_17
REMARK    7  A    between atoms: C_12  and  C_19
REMARK    8  A    between atoms: C_14  and  C_18
REMARK    9  A    between atoms: C_24  and  C_25
REMARK                            x       y       z     vdW  Elec       q    Type
REMARK                         _______ _______ _______ _____ _____    ______ ____
ROOT
ATOM      7  C   UNL     1     -12.804   8.426  20.147  0.00  0.00    +0.000 C 
ATOM      8  C   UNL     1     -11.596   9.372  20.237  0.00  0.00    +0.012 C 
ATOM      9  C   UNL     1     -13.645   8.500  21.445  0.00  0.00    +0.032 C 
ATOM     10  C   UNL     1     -12.017  10.837  20.463  0.00  0.00    +0.023 C 
ATOM     12  C   UNL     1     -13.057  10.960  21.559  0.00  0.00    -0.073 C 
ATOM     13  C   UNL     1     -13.765   9.902  21.994  0.00  0.00    -0.022 C 
ATOM     19  C   UNL     1     -13.231  12.320  22.175  0.00  0.00    +0.039 C 
ENDROOT
BRANCH   7  11
ATOM     11  C   UNL     1     -12.326   7.000  19.859  0.00  0.00    -0.013 C 
ATOM     16  C   UNL     1     -11.266   7.005  18.761  0.00  0.00    +0.007 C 
ATOM     17  C   UNL     1     -11.784   6.354  21.130  0.00  0.00    +0.007 C 
ENDBRANCH   7  11
BRANCH  10  14
ATOM     14  C   UNL     1     -12.512  11.475  19.162  0.00  0.00    +0.103 C 
BRANCH  14  18
ATOM      1  O   UNL     1     -10.400  12.153  18.294  0.00  0.00    -0.276 OA
ATOM      3  N   UNL     1     -11.627  10.654  17.034  0.00  0.00    -0.301 N 
ATOM     18  C   UNL     1     -11.410  11.466  18.133  0.00  0.00    +0.216 C 
ATOM     20  C   UNL     1     -10.662  10.540  15.950  0.00  0.00    +0.108 C 
ATOM     21  C   UNL     1     -12.796   9.816  16.786  0.00  0.00    +0.108 C 
ATOM     22  C   UNL     1     -11.132   9.337  15.147  0.00  0.00    +0.020 C 
ATOM     23  C   UNL     1     -12.643   9.374  15.337  0.00  0.00    +0.020 C 
ENDBRANCH  14  18
ENDBRANCH  10  14
BRANCH   9  15
ATOM     15  C   UNL     1     -15.047   7.916  21.229  0.00  0.00    +0.112 C 
BRANCH  15   4
ATOM      2  O   UNL     1     -15.754   5.224  20.523  0.00  0.00    -0.268 OA
ATOM      4  N   UNL     1     -15.291   6.834  22.130  0.00  0.00    -0.309 N 
ATOM     24  C   UNL     1     -15.631   5.552  21.701  0.00  0.00    +0.264 C 
ATOM     29  H   UNL     1     -15.174   6.997  23.126  0.00  0.00    +0.149 HD
BRANCH  24  25
ATOM      5  N   UNL     1     -16.808   3.604  22.498  0.00  0.00    -0.247 NA
ATOM      6  N   UNL     1     -15.414   3.667  24.930  0.00  0.00    -0.259 NA
ATOM     25  C   UNL     1     -15.880   4.544  22.764  0.00  0.00    +0.143 A 
ATOM     26  C   UNL     1     -15.195   4.575  23.959  0.00  0.00    +0.143 A 
ATOM     27  C   UNL     1     -17.028   2.696  23.469  0.00  0.00    +0.131 A 
ATOM     28  C   UNL     1     -16.343   2.728  24.664  0.00  0.00    +0.130 A 
ENDBRANCH  24  25
ENDBRANCH  15   4
ENDBRANCH   9  15
TORSDOF 6
ENDMDL
MODEL 8
REMARK VINA RESULT:      -5.5     14.162     17.067
REMARK  Name = 38028801
REMARK  9 active torsions:
REMARK  status: ('A' for Active; 'I' for Inactive)
REMARK    1  A    between atoms: N_4  and  C_15
REMARK    2  A    between atoms: C_7  and  C_11
REMARK    3  A    between atoms: C_9  and  C_15
REMARK    4  A    between atoms: C_10  and  C_14
REMARK    5  A    between atoms: C_11  and  C_16
REMARK    6  A    between atoms: C_11  and  C_17
REMARK    7  A    between atoms: C_12  and  C_19
REMARK    8  A    between atoms: C_14  and  C_18
REMARK    9  A    between atoms: C_24  and  C_25
REMARK                            x       y       z     vdW  Elec       q    Type
REMARK                         _______ _______ _______ _____ _____    ______ ____
ROOT
ATOM      7  C   UNL     1       8.798   8.480   5.787  0.00  0.00    +0.000 C 
ATOM      8  C   UNL     1       8.339   7.178   5.113  0.00  0.00    +0.012 C 
ATOM      9  C   UNL     1       8.719   8.348   7.328  0.00  0.00    +0.032 C 
ATOM     10  C   UNL     1       9.188   5.967   5.543  0.00  0.00    +0.023 C 
ATOM     12  C   UNL     1       9.381   5.920   7.045  0.00  0.00    -0.073 C 
ATOM     13  C   UNL     1       9.154   6.990   7.828  0.00  0.00    -0.022 C 
ATOM     19  C   UNL     1       9.798   4.601   7.632  0.00  0.00    +0.039 C 
ENDROOT
BRANCH   7  11
ATOM     11  C   UNL     1       7.960   9.655   5.273  0.00  0.00    -0.013 C 
ATOM     16  C   UNL     1       8.856  10.848   4.952  0.00  0.00    +0.007 C 
ATOM     17  C   UNL     1       7.155   9.237   4.047  0.00  0.00    +0.007 C 
ENDBRANCH   7  11
BRANCH  10  14
ATOM     14  C   UNL     1      10.537   5.954   4.816  0.00  0.00    +0.103 C 
BRANCH  14  18
ATOM      1  O   UNL     1      10.674   3.677   4.127  0.00  0.00    -0.276 OA
ATOM      3  N   UNL     1      10.429   5.269   2.469  0.00  0.00    -0.301 N 
ATOM     18  C   UNL     1      10.552   4.855   3.784  0.00  0.00    +0.216 C 
ATOM     20  C   UNL     1      10.433   4.331   1.356  0.00  0.00    +0.108 C 
ATOM     21  C   UNL     1      10.279   6.642   1.998  0.00  0.00    +0.108 C 
ATOM     22  C   UNL     1       9.955   5.151   0.167  0.00  0.00    +0.020 C 
ATOM     23  C   UNL     1      10.470   6.548   0.491  0.00  0.00    +0.020 C 
ENDBRANCH  14  18
ENDBRANCH  10  14
BRANCH   9  15
ATOM     15  C   UNL     1       9.549   9.435   8.020  0.00  0.00    +0.112 C 
BRANCH  15   4
ATOM      2  O   UNL     1      11.337  11.584   7.364  0.00  0.00    -0.268 OA
ATOM      4  N   UNL     1      10.931   9.320   7.670  0.00  0.00    -0.309 N 
ATOM     24  C   UNL     1      11.730  10.421   7.365  0.00  0.00    +0.264 C 
ATOM     29  H   UNL     1      11.358   8.399   7.683  0.00  0.00    +0.149 HD
BRANCH  24  25
ATOM      5  N   UNL     1      13.994  11.173   7.016  0.00  0.00    -0.247 NA
ATOM      6  N   UNL     1      14.820   8.589   6.306  0.00  0.00    -0.259 NA
ATOM     25  C   UNL     1      13.139  10.131   6.995  0.00  0.00    +0.143 A 
ATOM     26  C   UNL     1      13.545   8.861   6.646  0.00  0.00    +0.143 A 
ATOM     27  C   UNL     1      15.269  10.900   6.676  0.00  0.00    +0.131 A 
ATOM     28  C   UNL     1      15.675   9.631   6.327  0.00  0.00    +0.130 A 
ENDBRANCH  24  25
ENDBRANCH  15   4
ENDBRANCH   9  15
TORSDOF 6
ENDMDL
MODEL 9
REMARK VINA RESULT:      -5.4     15.246     18.819
REMARK  Name = 38028801
REMARK  9 active torsions:
REMARK  status: ('A' for Active; 'I' for Inactive)
REMARK    1  A    between atoms: N_4  and  C_15
REMARK    2  A    between atoms: C_7  and  C_11
REMARK    3  A    between atoms: C_9  and  C_15
REMARK    4  A    between atoms: C_10  and  C_14
REMARK    5  A    between atoms: C_11  and  C_16
REMARK    6  A    between atoms: C_11  and  C_17
REMARK    7  A    between atoms: C_12  and  C_19
REMARK    8  A    between atoms: C_14  and  C_18
REMARK    9  A    between atoms: C_24  and  C_25
REMARK                            x       y       z     vdW  Elec       q    Type
REMARK                         _______ _______ _______ _____ _____    ______ ____
ROOT
ATOM      7  C   UNL     1      12.468   4.534   1.933  0.00  0.00    +0.000 C 
ATOM      8  C   UNL     1      11.227   4.051   2.698  0.00  0.00    +0.012 C 
ATOM      9  C   UNL     1      12.060   5.516   0.807  0.00  0.00    +0.032 C 
ATOM     10  C   UNL     1      10.439   5.215   3.329  0.00  0.00    +0.023 C 
ATOM     12  C   UNL     1      10.229   6.350   2.346  0.00  0.00    -0.073 C 
ATOM     13  C   UNL     1      10.954   6.460   1.217  0.00  0.00    -0.022 C 
ATOM     19  C   UNL     1       9.135   7.329   2.667  0.00  0.00    +0.039 C 
ENDROOT
BRANCH   7  11
ATOM     11  C   UNL     1      13.241   3.331   1.385  0.00  0.00    -0.013 C 
ATOM     16  C   UNL     1      13.030   3.203  -0.121  0.00  0.00    +0.007 C 
ATOM     17  C   UNL     1      14.725   3.458   1.714  0.00  0.00    +0.007 C 
ENDBRANCH   7  11
BRANCH  10  14
ATOM     14  C   UNL     1      11.122   5.716   4.606  0.00  0.00    +0.103 C 
BRANCH  14  18
ATOM      1  O   UNL     1       9.793   4.456   6.129  0.00  0.00    -0.276 OA
ATOM      3  N   UNL     1       9.817   6.751   6.398  0.00  0.00    -0.301 N 
ATOM     18  C   UNL     1      10.186   5.570   5.778  0.00  0.00    +0.216 C 
ATOM     20  C   UNL     1       8.914   6.781   7.539  0.00  0.00    +0.108 C 
ATOM     21  C   UNL     1      10.248   8.097   6.035  0.00  0.00    +0.108 C 
ATOM     22  C   UNL     1       9.043   8.193   8.089  0.00  0.00    +0.020 C 
ATOM     23  C   UNL     1       9.341   9.016   6.842  0.00  0.00    +0.020 C 
ENDBRANCH  14  18
ENDBRANCH  10  14
BRANCH   9  15
ATOM     15  C   UNL     1      13.265   6.327   0.317  0.00  0.00    +0.112 C 
BRANCH  15   4
ATOM      2  O   UNL     1      16.110   6.584   0.608  0.00  0.00    -0.268 OA
ATOM      4  N   UNL     1      13.961   6.920   1.416  0.00  0.00    -0.309 N 
ATOM     24  C   UNL     1      15.351   7.004   1.477  0.00  0.00    +0.264 C 
ATOM     29  H   UNL     1      13.417   7.333   2.167  0.00  0.00    +0.149 HD
BRANCH  24  25
ATOM      5  N   UNL     1      17.017   8.392   2.532  0.00  0.00    -0.247 NA
ATOM      6  N   UNL     1      15.869   7.978   5.057  0.00  0.00    -0.259 NA
ATOM     25  C   UNL     1      15.922   7.625   2.700  0.00  0.00    +0.143 A 
ATOM     26  C   UNL     1      15.358   7.421   3.941  0.00  0.00    +0.143 A 
ATOM     27  C   UNL     1      17.529   8.948   3.648  0.00  0.00    +0.131 A 
ATOM     28  C   UNL     1      16.965   8.744   4.888  0.00  0.00    +0.130 A 
ENDBRANCH  24  25
ENDBRANCH  15   4
ENDBRANCH   9  15
TORSDOF 6
ENDMDL
MODEL 10
REMARK VINA RESULT:      -5.4      4.890      6.394
REMARK  Name = 38028801
REMARK  9 active torsions:
REMARK  status: ('A' for Active; 'I' for Inactive)
REMARK    1  A    between atoms: N_4  and  C_15
REMARK    2  A    between atoms: C_7  and  C_11
REMARK    3  A    between atoms: C_9  and  C_15
REMARK    4  A    between atoms: C_10  and  C_14
REMARK    5  A    between atoms: C_11  and  C_16
REMARK    6  A    between atoms: C_11  and  C_17
REMARK    7  A    between atoms: C_12  and  C_19
REMARK    8  A    between atoms: C_14  and  C_18
REMARK    9  A    between atoms: C_24  and  C_25
REMARK                            x       y       z     vdW  Elec       q    Type
REMARK                         _______ _______ _______ _____ _____    ______ ____
ROOT
ATOM      7  C   UNL     1      20.077   6.159  21.858  0.00  0.00    +0.000 C 
ATOM      8  C   UNL     1      19.394   6.482  20.519  0.00  0.00    +0.012 C 
ATOM      9  C   UNL     1      20.441   7.465  22.607  0.00  0.00    +0.032 C 
ATOM     10  C   UNL     1      18.110   7.312  20.705  0.00  0.00    +0.023 C 
ATOM     12  C   UNL     1      18.324   8.475  21.653  0.00  0.00    -0.073 C 
ATOM     13  C   UNL     1      19.379   8.532  22.486  0.00  0.00    -0.022 C 
ATOM     19  C   UNL     1      17.321   9.592  21.589  0.00  0.00    +0.039 C 
ENDROOT
BRANCH   7  11
ATOM     11  C   UNL     1      21.308   5.281  21.614  0.00  0.00    -0.013 C 
ATOM     16  C   UNL     1      20.937   4.070  20.762  0.00  0.00    +0.007 C 
ATOM     17  C   UNL     1      22.415   6.091  20.948  0.00  0.00    +0.007 C 
ENDBRANCH   7  11
BRANCH  10  14
ATOM     14  C   UNL     1      16.946   6.432  21.170  0.00  0.00    +0.103 C 
BRANCH  14  18
ATOM      1  O   UNL     1      16.092   5.968  18.995  0.00  0.00    -0.276 OA
ATOM      3  N   UNL     1      14.642   6.930  20.515  0.00  0.00    -0.301 N 
ATOM     18  C   UNL     1      15.864   6.415  20.121  0.00  0.00    +0.216 C 
ATOM     20  C   UNL     1      13.498   6.992  19.617  0.00  0.00    +0.108 C 
ATOM     21  C   UNL     1      14.306   7.469  21.829  0.00  0.00    +0.108 C 
ATOM     22  C   UNL     1      12.318   7.305  20.524  0.00  0.00    +0.020 C 
ATOM     23  C   UNL     1      12.954   8.139  21.629  0.00  0.00    +0.020 C 
ENDBRANCH  14  18
ENDBRANCH  10  14
BRANCH   9  15
ATOM     15  C   UNL     1      20.723   7.191  24.089  0.00  0.00    +0.112 C 
BRANCH  15   4
ATOM      2  O   UNL     1      21.731   8.150  26.601  0.00  0.00    -0.268 OA
ATOM      4  N   UNL     1      20.139   8.203  24.912  0.00  0.00    -0.309 N 
ATOM     24  C   UNL     1      20.697   8.610  26.123  0.00  0.00    +0.264 C 
ATOM     29  H   UNL     1      19.302   8.673  24.582  0.00  0.00    +0.149 HD
BRANCH  24  25
ATOM      5  N   UNL     1      19.846  10.861  26.284  0.00  0.00    -0.247 NA
ATOM      6  N   UNL     1      18.734  10.338  28.805  0.00  0.00    -0.259 NA
ATOM     25  C   UNL     1      19.953   9.654  26.875  0.00  0.00    +0.143 A 
ATOM     26  C   UNL     1      19.407   9.397  28.114  0.00  0.00    +0.143 A 
ATOM     27  C   UNL     1      19.173  11.802  26.976  0.00  0.00    +0.131 A 
ATOM     28  C   UNL     1      18.627  11.545  28.214  0.00  0.00    +0.130 A 
ENDBRANCH  24  25
ENDBRANCH  15   4
ENDBRANCH   9  15
TORSDOF 6
ENDMDL
