MODEL 1
REMARK VINA RESULT:      -7.1      0.000      0.000
REMARK  Name = 45360392
REMARK  9 active torsions:
REMARK  status: ('A' for Active; 'I' for Inactive)
REMARK    1  A    between atoms: O_4  and  C_14
REMARK    2  A    between atoms: O_8  and  C_27
REMARK    3  A    between atoms: O_8  and  C_31
REMARK    4  A    between atoms: N_10  and  C_13
REMARK    5  A    between atoms: N_11  and  C_24
REMARK    6  A    between atoms: N_12  and  C_28
REMARK    7  A    between atoms: C_20  and  C_23
REMARK    8  A    between atoms: C_24  and  C_27
REMARK    9  A    between atoms: C_36  and  C_39
REMARK                            x       y       z     vdW  Elec       q    Type
REMARK                         _______ _______ _______ _____ _____    ______ ____
ROOT
ATOM      5  O   UNL     1      -8.357 -10.543  18.222  0.00  0.00    -0.252 OA
ATOM      9  N   UNL     1      -6.769 -12.136  17.690  0.00  0.00    -0.284 N 
ATOM     12  N   UNL     1      -8.054 -11.113  15.990  0.00  0.00    -0.269 N 
ATOM     13  C   UNL     1      -4.721 -12.174  16.224  0.00  0.00    +0.119 C 
ATOM     14  C   UNL     1      -3.980 -11.282  17.237  0.00  0.00    +0.136 C 
ATOM     15  C   UNL     1      -3.919 -11.814  18.672  0.00  0.00    +0.035 C 
ATOM     16  C   UNL     1      -5.960 -12.915  16.742  0.00  0.00    +0.134 C 
ATOM     17  C   UNL     1      -5.174 -11.497  19.489  0.00  0.00    +0.022 C 
ATOM     18  C   UNL     1      -6.404 -12.307  19.097  0.00  0.00    +0.109 C 
ATOM     19  C   UNL     1      -7.781 -11.206  17.354  0.00  0.00    +0.307 C 
ATOM     42  H   UNL     1      -7.511 -11.682  15.352  0.00  0.00    +0.156 HD
ENDROOT
BRANCH  12  28
ATOM     28  C   UNL     1      -9.004 -10.281  15.345  0.00  0.00    +0.035 A 
ATOM     34  C   UNL     1      -9.382  -9.072  15.927  0.00  0.00    +0.035 A 
ATOM     35  C   UNL     1      -9.559 -10.673  14.127  0.00  0.00    +0.023 A 
ATOM     36  C   UNL     1     -10.317  -8.254  15.292  0.00  0.00    +0.057 A 
ATOM     37  C   UNL     1     -10.494  -9.855  13.492  0.00  0.00    +0.002 A 
ATOM     38  C   UNL     1     -10.872  -8.645  14.075  0.00  0.00    +0.012 A 
BRANCH  36  39
ATOM      1  F   UNL     1     -12.045  -6.663  15.746  0.00  0.00    -0.166 F 
ATOM      2  F   UNL     1     -10.040  -5.895  15.405  0.00  0.00    -0.166 F 
ATOM      3  F   UNL     1     -10.517  -6.916  17.265  0.00  0.00    -0.166 F 
ATOM     39  C   UNL     1     -10.723  -6.961  15.915  0.00  0.00    +0.417 C 
ENDBRANCH  36  39
ENDBRANCH  12  28
BRANCH  13  10
ATOM      7  O   UNL     1      -3.122 -11.863  13.860  0.00  0.00    -0.270 OA
ATOM     10  N   UNL     1      -5.051 -11.384  15.054  0.00  0.00    -0.305 N 
ATOM     20  C   UNL     1      -4.208 -11.299  13.961  0.00  0.00    +0.244 C 
ATOM     40  H   UNL     1      -5.980 -10.979  15.015  0.00  0.00    +0.149 HD
BRANCH  20  23
ATOM     23  C   UNL     1      -4.679 -10.427  12.854  0.00  0.00    +0.037 A 
ATOM     29  C   UNL     1      -5.955  -9.866  12.903  0.00  0.00    +0.016 A 
ATOM     30  C   UNL     1      -3.845 -10.169  11.765  0.00  0.00    +0.016 A 
ATOM     31  C   UNL     1      -5.565  -8.792  10.775  0.00  0.00    +0.121 A 
ATOM     32  C   UNL     1      -6.398  -9.048  11.863  0.00  0.00    +0.046 A 
ATOM     33  C   UNL     1      -4.288  -9.353  10.726  0.00  0.00    +0.046 A 
BRANCH  31   8
ATOM      8  O   UNL     1      -5.996  -7.994   9.759  0.00  0.00    -0.491 OA
BRANCH   8  27
ATOM     27  C   UNL     1      -7.216  -8.361   9.118  0.00  0.00    +0.244 C 
BRANCH  27  24
ATOM     24  C   UNL     1      -7.608  -7.262   8.145  0.00  0.00    +0.125 C 
BRANCH  24  11
ATOM      6  O   UNL     1     -11.279  -5.949   9.700  0.00  0.00    -0.377 OA
ATOM     11  N   UNL     1      -9.030  -6.946   8.269  0.00  0.00    -0.295 NA
ATOM     21  C   UNL     1      -9.229  -5.507   8.480  0.00  0.00    +0.112 C 
ATOM     22  C   UNL     1      -9.639  -7.705   9.371  0.00  0.00    +0.112 C 
ATOM     25  C   UNL     1     -10.719  -5.203   8.618  0.00  0.00    +0.175 C 
ATOM     26  C   UNL     1     -11.119  -7.351   9.486  0.00  0.00    +0.175 C 
ENDBRANCH  24  11
ENDBRANCH  27  24
ENDBRANCH   8  27
ENDBRANCH  31   8
ENDBRANCH  20  23
ENDBRANCH  13  10
BRANCH  14   4
ATOM      4  O   UNL     1      -2.627 -11.140  16.785  0.00  0.00    -0.390 OA
ATOM     41  H   UNL     1      -2.526 -11.677  15.979  0.00  0.00    +0.210 HD
ENDBRANCH  14   4
TORSDOF 9
ENDMDL
MODEL 2
REMARK VINA RESULT:      -7.0      3.082      6.485
REMARK  Name = 45360392
REMARK  9 active torsions:
REMARK  status: ('A' for Active; 'I' for Inactive)
REMARK    1  A    between atoms: O_4  and  C_14
REMARK    2  A    between atoms: O_8  and  C_27
REMARK    3  A    between atoms: O_8  and  C_31
REMARK    4  A    between atoms: N_10  and  C_13
REMARK    5  A    between atoms: N_11  and  C_24
REMARK    6  A    between atoms: N_12  and  C_28
REMARK    7  A    between atoms: C_20  and  C_23
REMARK    8  A    between atoms: C_24  and  C_27
REMARK    9  A    between atoms: C_36  and  C_39
REMARK                            x       y       z     vdW  Elec       q    Type
REMARK                         _______ _______ _______ _____ _____    ______ ____
ROOT
ATOM      5  O   UNL     1      -2.088 -10.276  14.483  0.00  0.00    -0.252 OA
ATOM      9  N   UNL     1      -3.010 -11.080  12.522  0.00  0.00    -0.284 N 
ATOM     12  N   UNL     1      -4.184 -11.274  14.564  0.00  0.00    -0.269 N 
ATOM     13  C   UNL     1      -5.139 -10.632  11.253  0.00  0.00    +0.119 C 
ATOM     14  C   UNL     1      -4.599  -9.253  10.833  0.00  0.00    +0.136 C 
ATOM     15  C   UNL     1      -3.248  -9.261  10.109  0.00  0.00    +0.035 C 
ATOM     16  C   UNL     1      -4.103 -11.658  11.728  0.00  0.00    +0.134 C 
ATOM     17  C   UNL     1      -2.051  -9.309  11.061  0.00  0.00    +0.022 C 
ATOM     18  C   UNL     1      -1.844 -10.654  11.747  0.00  0.00    +0.109 C 
ATOM     19  C   UNL     1      -3.030 -10.836  13.916  0.00  0.00    +0.307 C 
ATOM     42  H   UNL     1      -4.915 -11.703  14.008  0.00  0.00    +0.156 HD
ENDROOT
BRANCH  12  28
ATOM     28  C   UNL     1      -4.500 -11.177  15.942  0.00  0.00    +0.035 A 
ATOM     34  C   UNL     1      -5.784 -10.805  16.339  0.00  0.00    +0.035 A 
ATOM     35  C   UNL     1      -3.527 -11.453  16.902  0.00  0.00    +0.023 A 
ATOM     36  C   UNL     1      -6.095 -10.709  17.696  0.00  0.00    +0.057 A 
ATOM     37  C   UNL     1      -3.837 -11.357  18.259  0.00  0.00    +0.002 A 
ATOM     38  C   UNL     1      -5.122 -10.986  18.655  0.00  0.00    +0.012 A 
BRANCH  36  39
ATOM      1  F   UNL     1      -7.611 -10.197  19.474  0.00  0.00    -0.166 F 
ATOM      2  F   UNL     1      -8.420 -11.206  17.727  0.00  0.00    -0.166 F 
ATOM      3  F   UNL     1      -7.868  -9.105  17.617  0.00  0.00    -0.166 F 
ATOM     39  C   UNL     1      -7.468 -10.310  18.121  0.00  0.00    +0.417 C 
ENDBRANCH  36  39
ENDBRANCH  12  28
BRANCH  13  10
ATOM      7  O   UNL     1      -7.604 -12.089  11.462  0.00  0.00    -0.270 OA
ATOM     10  N   UNL     1      -6.172 -10.448  12.255  0.00  0.00    -0.305 N 
ATOM     20  C   UNL     1      -7.328 -11.205  12.268  0.00  0.00    +0.244 C 
ATOM     40  H   UNL     1      -5.966  -9.814  13.020  0.00  0.00    +0.149 HD
BRANCH  20  23
ATOM     23  C   UNL     1      -8.299 -10.874  13.343  0.00  0.00    +0.037 A 
ATOM     29  C   UNL     1      -8.449  -9.553  13.765  0.00  0.00    +0.016 A 
ATOM     30  C   UNL     1      -9.059 -11.885  13.932  0.00  0.00    +0.016 A 
ATOM     31  C   UNL     1     -10.119 -10.253  15.364  0.00  0.00    +0.121 A 
ATOM     32  C   UNL     1      -9.360  -9.242  14.775  0.00  0.00    +0.046 A 
ATOM     33  C   UNL     1      -9.968 -11.575  14.943  0.00  0.00    +0.046 A 
BRANCH  31   8
ATOM      8  O   UNL     1     -11.007  -9.951  16.350  0.00  0.00    -0.491 OA
BRANCH   8  27
ATOM     27  C   UNL     1     -11.099  -8.583  16.745  0.00  0.00    +0.244 C 
BRANCH  27  24
ATOM     24  C   UNL     1     -12.543  -8.130  16.607  0.00  0.00    +0.125 C 
BRANCH  24  11
ATOM      6  O   UNL     1     -13.356  -4.948  13.993  0.00  0.00    -0.377 OA
ATOM     11  N   UNL     1     -12.724  -7.350  15.384  0.00  0.00    -0.295 NA
ATOM     21  C   UNL     1     -11.790  -6.217  15.345  0.00  0.00    +0.112 C 
ATOM     22  C   UNL     1     -14.108  -6.865  15.275  0.00  0.00    +0.112 C 
ATOM     25  C   UNL     1     -12.006  -5.410  14.067  0.00  0.00    +0.175 C 
ATOM     26  C   UNL     1     -14.269  -6.045  13.998  0.00  0.00    +0.175 C 
ENDBRANCH  24  11
ENDBRANCH  27  24
ENDBRANCH   8  27
ENDBRANCH  31   8
ENDBRANCH  20  23
ENDBRANCH  13  10
BRANCH  14   4
ATOM      4  O   UNL     1      -5.551  -8.665   9.937  0.00  0.00    -0.390 OA
ATOM     41  H   UNL     1      -5.056  -8.264   9.201  0.00  0.00    +0.210 HD
ENDBRANCH  14   4
TORSDOF 9
ENDMDL
MODEL 3
REMARK VINA RESULT:      -6.9     18.642     21.619
REMARK  Name = 45360392
REMARK  9 active torsions:
REMARK  status: ('A' for Active; 'I' for Inactive)
REMARK    1  A    between atoms: O_4  and  C_14
REMARK    2  A    between atoms: O_8  and  C_27
REMARK    3  A    between atoms: O_8  and  C_31
REMARK    4  A    between atoms: N_10  and  C_13
REMARK    5  A    between atoms: N_11  and  C_24
REMARK    6  A    between atoms: N_12  and  C_28
REMARK    7  A    between atoms: C_20  and  C_23
REMARK    8  A    between atoms: C_24  and  C_27
REMARK    9  A    between atoms: C_36  and  C_39
REMARK                            x       y       z     vdW  Elec       q    Type
REMARK                         _______ _______ _______ _____ _____    ______ ____
ROOT
ATOM      5  O   UNL     1     -12.791  12.538  19.679  0.00  0.00    -0.252 OA
ATOM      9  N   UNL     1     -11.062  11.455  18.592  0.00  0.00    -0.284 N 
ATOM     12  N   UNL     1     -11.833  10.677  20.687  0.00  0.00    -0.269 N 
ATOM     13  C   UNL     1     -10.683   9.104  17.772  0.00  0.00    +0.119 C 
ATOM     14  C   UNL     1     -11.703   9.334  16.642  0.00  0.00    +0.136 C 
ATOM     15  C   UNL     1     -11.424  10.531  15.727  0.00  0.00    +0.035 C 
ATOM     16  C   UNL     1     -10.098  10.359  18.431  0.00  0.00    +0.134 C 
ATOM     17  C   UNL     1     -11.932  11.859  16.296  0.00  0.00    +0.022 C 
ATOM     18  C   UNL     1     -11.121  12.394  17.470  0.00  0.00    +0.109 C 
ATOM     19  C   UNL     1     -11.964  11.622  19.670  0.00  0.00    +0.307 C 
ATOM     42  H   UNL     1     -11.139   9.947  20.577  0.00  0.00    +0.156 HD
ENDROOT
BRANCH  12  28
ATOM     28  C   UNL     1     -12.581  10.577  21.886  0.00  0.00    +0.035 A 
ATOM     34  C   UNL     1     -11.955  10.766  23.118  0.00  0.00    +0.035 A 
ATOM     35  C   UNL     1     -13.946  10.291  21.834  0.00  0.00    +0.023 A 
ATOM     36  C   UNL     1     -12.693  10.667  24.298  0.00  0.00    +0.057 A 
ATOM     37  C   UNL     1     -14.683  10.192  23.014  0.00  0.00    +0.002 A 
ATOM     38  C   UNL     1     -14.057  10.381  24.246  0.00  0.00    +0.012 A 
BRANCH  36  39
ATOM      1  F   UNL     1     -12.422   9.979  26.573  0.00  0.00    -0.166 F 
ATOM      2  F   UNL     1     -12.261  12.104  26.143  0.00  0.00    -0.166 F 
ATOM      3  F   UNL     1     -10.664  10.748  25.561  0.00  0.00    -0.166 F 
ATOM     39  C   UNL     1     -12.023  10.867  25.616  0.00  0.00    +0.417 C 
ENDBRANCH  36  39
ENDBRANCH  12  28
BRANCH  13  10
ATOM      7  O   UNL     1     -13.475   8.862  18.399  0.00  0.00    -0.270 OA
ATOM     10  N   UNL     1     -11.274   8.232  18.769  0.00  0.00    -0.305 N 
ATOM     20  C   UNL     1     -12.637   8.189  18.995  0.00  0.00    +0.244 C 
ATOM     40  H   UNL     1     -10.660   7.565  19.223  0.00  0.00    +0.149 HD
BRANCH  20  23
ATOM     23  C   UNL     1     -13.081   7.264  20.069  0.00  0.00    +0.037 A 
ATOM     29  C   UNL     1     -14.442   7.068  20.302  0.00  0.00    +0.016 A 
ATOM     30  C   UNL     1     -12.137   6.591  20.845  0.00  0.00    +0.016 A 
ATOM     31  C   UNL     1     -13.916   5.528  22.087  0.00  0.00    +0.121 A 
ATOM     32  C   UNL     1     -14.861   6.199  21.311  0.00  0.00    +0.046 A 
ATOM     33  C   UNL     1     -12.554   5.724  21.854  0.00  0.00    +0.046 A 
BRANCH  31   8
ATOM      8  O   UNL     1     -14.322   4.681  23.072  0.00  0.00    -0.491 OA
BRANCH   8  27
ATOM     27  C   UNL     1     -15.695   4.741  23.456  0.00  0.00    +0.244 C 
BRANCH  27  24
ATOM     24  C   UNL     1     -16.267   3.333  23.452  0.00  0.00    +0.125 C 
BRANCH  24  11
ATOM      6  O   UNL     1     -16.987   1.912  27.335  0.00  0.00    -0.377 OA
ATOM     11  N   UNL     1     -16.078   2.697  24.755  0.00  0.00    -0.295 NA
ATOM     21  C   UNL     1     -17.018   1.582  24.932  0.00  0.00    +0.112 C 
ATOM     22  C   UNL     1     -16.245   3.673  25.841  0.00  0.00    +0.112 C 
ATOM     25  C   UNL     1     -16.812   0.942  26.302  0.00  0.00    +0.175 C 
ATOM     26  C   UNL     1     -16.055   2.983  27.189  0.00  0.00    +0.175 C 
ENDBRANCH  24  11
ENDBRANCH  27  24
ENDBRANCH   8  27
ENDBRANCH  31   8
ENDBRANCH  20  23
ENDBRANCH  13  10
BRANCH  14   4
ATOM      4  O   UNL     1     -11.706   8.165  15.812  0.00  0.00    -0.390 OA
ATOM     41  H   UNL     1     -11.486   8.445  14.906  0.00  0.00    +0.210 HD
ENDBRANCH  14   4
TORSDOF 9
ENDMDL
MODEL 4
REMARK VINA RESULT:      -6.9      3.363      5.447
REMARK  Name = 45360392
REMARK  9 active torsions:
REMARK  status: ('A' for Active; 'I' for Inactive)
REMARK    1  A    between atoms: O_4  and  C_14
REMARK    2  A    between atoms: O_8  and  C_27
REMARK    3  A    between atoms: O_8  and  C_31
REMARK    4  A    between atoms: N_10  and  C_13
REMARK    5  A    between atoms: N_11  and  C_24
REMARK    6  A    between atoms: N_12  and  C_28
REMARK    7  A    between atoms: C_20  and  C_23
REMARK    8  A    between atoms: C_24  and  C_27
REMARK    9  A    between atoms: C_36  and  C_39
REMARK                            x       y       z     vdW  Elec       q    Type
REMARK                         _______ _______ _______ _____ _____    ______ ____
ROOT
ATOM      5  O   UNL     1      -4.674 -11.812  18.508  0.00  0.00    -0.252 OA
ATOM      9  N   UNL     1      -6.598 -10.529  18.479  0.00  0.00    -0.284 N 
ATOM     12  N   UNL     1      -5.001 -10.332  16.747  0.00  0.00    -0.269 N 
ATOM     13  C   UNL     1      -8.504 -10.233  16.860  0.00  0.00    +0.119 C 
ATOM     14  C   UNL     1      -9.034 -11.631  17.228  0.00  0.00    +0.136 C 
ATOM     15  C   UNL     1      -9.308 -11.867  18.718  0.00  0.00    +0.035 C 
ATOM     16  C   UNL     1      -7.534  -9.585  17.854  0.00  0.00    +0.134 C 
ATOM     17  C   UNL     1      -8.058 -12.262  19.508  0.00  0.00    +0.022 C 
ATOM     18  C   UNL     1      -7.067 -11.125  19.731  0.00  0.00    +0.109 C 
ATOM     19  C   UNL     1      -5.359 -10.955  17.942  0.00  0.00    +0.307 C 
ATOM     42  H   UNL     1      -5.642  -9.657  16.346  0.00  0.00    +0.156 HD
ENDROOT
BRANCH  12  28
ATOM     28  C   UNL     1      -3.833 -10.540  15.971  0.00  0.00    +0.035 A 
ATOM     34  C   UNL     1      -3.928 -10.662  14.585  0.00  0.00    +0.035 A 
ATOM     35  C   UNL     1      -2.588 -10.621  16.594  0.00  0.00    +0.023 A 
ATOM     36  C   UNL     1      -2.778 -10.867  13.822  0.00  0.00    +0.057 A 
ATOM     37  C   UNL     1      -1.438 -10.825  15.832  0.00  0.00    +0.002 A 
ATOM     38  C   UNL     1      -1.534 -10.948  14.445  0.00  0.00    +0.012 A 
BRANCH  36  39
ATOM      1  F   UNL     1      -3.907 -11.801  11.931  0.00  0.00    -0.166 F 
ATOM      2  F   UNL     1      -1.755 -11.533  11.783  0.00  0.00    -0.166 F 
ATOM      3  F   UNL     1      -3.078  -9.810  11.697  0.00  0.00    -0.166 F 
ATOM     39  C   UNL     1      -2.880 -10.999  12.340  0.00  0.00    +0.417 C 
ENDBRANCH  36  39
ENDBRANCH  12  28
BRANCH  13  10
ATOM      7  O   UNL     1      -9.796  -9.566  14.384  0.00  0.00    -0.270 OA
ATOM     10  N   UNL     1      -7.916 -10.288  15.535  0.00  0.00    -0.305 N 
ATOM     20  C   UNL     1      -8.627  -9.943  14.400  0.00  0.00    +0.244 C 
ATOM     40  H   UNL     1      -6.922 -10.481  15.476  0.00  0.00    +0.149 HD
BRANCH  20  23
ATOM     23  C   UNL     1      -7.891 -10.079  13.116  0.00  0.00    +0.037 A 
ATOM     29  C   UNL     1      -6.872  -9.180  12.799  0.00  0.00    +0.016 A 
ATOM     30  C   UNL     1      -8.218 -11.104  12.228  0.00  0.00    +0.016 A 
ATOM     31  C   UNL     1      -6.510 -10.330  10.705  0.00  0.00    +0.121 A 
ATOM     32  C   UNL     1      -6.181  -9.305  11.593  0.00  0.00    +0.046 A 
ATOM     33  C   UNL     1      -7.528 -11.229  11.023  0.00  0.00    +0.046 A 
BRANCH  31   8
ATOM      8  O   UNL     1      -5.836 -10.453   9.529  0.00  0.00    -0.491 OA
BRANCH   8  27
ATOM     27  C   UNL     1      -5.816  -9.314   8.669  0.00  0.00    +0.244 C 
BRANCH  27  24
ATOM     24  C   UNL     1      -6.857  -9.506   7.579  0.00  0.00    +0.125 C 
BRANCH  24  11
ATOM      6  O   UNL     1      -9.771  -6.492   7.370  0.00  0.00    -0.377 OA
ATOM     11  N   UNL     1      -7.528  -8.242   7.278  0.00  0.00    -0.295 NA
ATOM     21  C   UNL     1      -7.910  -7.548   8.515  0.00  0.00    +0.112 C 
ATOM     22  C   UNL     1      -8.715  -8.469   6.441  0.00  0.00    +0.112 C 
ATOM     25  C   UNL     1      -8.619  -6.239   8.176  0.00  0.00    +0.175 C 
ATOM     26  C   UNL     1      -9.404  -7.139   6.151  0.00  0.00    +0.175 C 
ENDBRANCH  24  11
ENDBRANCH  27  24
ENDBRANCH   8  27
ENDBRANCH  31   8
ENDBRANCH  20  23
ENDBRANCH  13  10
BRANCH  14   4
ATOM      4  O   UNL     1     -10.276 -11.823  16.539  0.00  0.00    -0.390 OA
ATOM     41  H   UNL     1     -10.313 -12.751  16.249  0.00  0.00    +0.210 HD
ENDBRANCH  14   4
TORSDOF 9
ENDMDL
MODEL 5
REMARK VINA RESULT:      -6.9     29.771     32.352
REMARK  Name = 45360392
REMARK  9 active torsions:
REMARK  status: ('A' for Active; 'I' for Inactive)
REMARK    1  A    between atoms: O_4  and  C_14
REMARK    2  A    between atoms: O_8  and  C_27
REMARK    3  A    between atoms: O_8  and  C_31
REMARK    4  A    between atoms: N_10  and  C_13
REMARK    5  A    between atoms: N_11  and  C_24
REMARK    6  A    between atoms: N_12  and  C_28
REMARK    7  A    between atoms: C_20  and  C_23
REMARK    8  A    between atoms: C_24  and  C_27
REMARK    9  A    between atoms: C_36  and  C_39
REMARK                            x       y       z     vdW  Elec       q    Type
REMARK                         _______ _______ _______ _____ _____    ______ ____
ROOT
ATOM      5  O   UNL     1      13.379   9.580  15.351  0.00  0.00    -0.252 OA
ATOM      9  N   UNL     1      13.939  11.810  15.586  0.00  0.00    -0.284 N 
ATOM     12  N   UNL     1      13.996  10.359  17.451  0.00  0.00    -0.269 N 
ATOM     13  C   UNL     1      15.980  13.048  16.389  0.00  0.00    +0.119 C 
ATOM     14  C   UNL     1      16.730  12.643  15.107  0.00  0.00    +0.136 C 
ATOM     15  C   UNL     1      16.053  13.033  13.789  0.00  0.00    +0.035 C 
ATOM     16  C   UNL     1      14.450  12.961  16.344  0.00  0.00    +0.134 C 
ATOM     17  C   UNL     1      14.985  12.034  13.339  0.00  0.00    +0.022 C 
ATOM     18  C   UNL     1      13.703  12.065  14.163  0.00  0.00    +0.109 C 
ATOM     19  C   UNL     1      13.743  10.501  16.087  0.00  0.00    +0.307 C 
ATOM     42  H   UNL     1      14.315  11.171  17.967  0.00  0.00    +0.156 HD
ENDROOT
BRANCH  12  28
ATOM     28  C   UNL     1      13.891   9.186  18.239  0.00  0.00    +0.035 A 
ATOM     34  C   UNL     1      15.042   8.503  18.630  0.00  0.00    +0.035 A 
ATOM     35  C   UNL     1      12.636   8.717  18.626  0.00  0.00    +0.023 A 
ATOM     36  C   UNL     1      14.938   7.348  19.407  0.00  0.00    +0.057 A 
ATOM     37  C   UNL     1      12.532   7.562  19.403  0.00  0.00    +0.002 A 
ATOM     38  C   UNL     1      13.684   6.879  19.793  0.00  0.00    +0.012 A 
BRANCH  36  39
ATOM      1  F   UNL     1      16.537   5.626  18.957  0.00  0.00    -0.166 F 
ATOM      2  F   UNL     1      16.032   6.007  21.037  0.00  0.00    -0.166 F 
ATOM      3  F   UNL     1      17.270   7.417  19.938  0.00  0.00    -0.166 F 
ATOM     39  C   UNL     1      16.169   6.616  19.823  0.00  0.00    +0.417 C 
ENDBRANCH  36  39
ENDBRANCH  12  28
BRANCH  13  10
ATOM      7  O   UNL     1      17.230  14.090  18.755  0.00  0.00    -0.270 OA
ATOM     10  N   UNL     1      16.502  12.279  17.503  0.00  0.00    -0.305 N 
ATOM     20  C   UNL     1      17.089  12.880  18.601  0.00  0.00    +0.244 C 
ATOM     40  H   UNL     1      16.322  11.281  17.502  0.00  0.00    +0.149 HD
BRANCH  20  23
ATOM     23  C   UNL     1      17.598  11.952  19.644  0.00  0.00    +0.037 A 
ATOM     29  C   UNL     1      18.968  11.864  19.889  0.00  0.00    +0.016 A 
ATOM     30  C   UNL     1      16.706  11.169  20.377  0.00  0.00    +0.016 A 
ATOM     31  C   UNL     1      18.556  10.208  21.599  0.00  0.00    +0.121 A 
ATOM     32  C   UNL     1      19.448  10.992  20.868  0.00  0.00    +0.046 A 
ATOM     33  C   UNL     1      17.185  10.296  21.354  0.00  0.00    +0.046 A 
BRANCH  31   8
ATOM      8  O   UNL     1      19.022   9.357  22.554  0.00  0.00    -0.491 OA
BRANCH   8  27
ATOM     27  C   UNL     1      19.991   8.392  22.146  0.00  0.00    +0.244 C 
BRANCH  27  24
ATOM     24  C   UNL     1      20.039   7.280  23.181  0.00  0.00    +0.125 C 
BRANCH  24  11
ATOM      6  O   UNL     1      21.963   4.371  20.846  0.00  0.00    -0.377 OA
ATOM     11  N   UNL     1      20.374   6.004  22.551  0.00  0.00    -0.295 NA
ATOM     21  C   UNL     1      21.720   5.566  22.944  0.00  0.00    +0.112 C 
ATOM     22  C   UNL     1      20.284   6.105  21.087  0.00  0.00    +0.112 C 
ATOM     25  C   UNL     1      22.052   4.239  22.266  0.00  0.00    +0.175 C 
ATOM     26  C   UNL     1      20.648   4.765  20.454  0.00  0.00    +0.175 C 
ENDBRANCH  24  11
ENDBRANCH  27  24
ENDBRANCH   8  27
ENDBRANCH  31   8
ENDBRANCH  20  23
ENDBRANCH  13  10
BRANCH  14   4
ATOM      4  O   UNL     1      18.010  13.290  15.128  0.00  0.00    -0.390 OA
ATOM     41  H   UNL     1      18.671  12.626  15.391  0.00  0.00    +0.210 HD
ENDBRANCH  14   4
TORSDOF 9
ENDMDL
MODEL 6
REMARK VINA RESULT:      -6.9      3.231      5.811
REMARK  Name = 45360392
REMARK  9 active torsions:
REMARK  status: ('A' for Active; 'I' for Inactive)
REMARK    1  A    between atoms: O_4  and  C_14
REMARK    2  A    between atoms: O_8  and  C_27
REMARK    3  A    between atoms: O_8  and  C_31
REMARK    4  A    between atoms: N_10  and  C_13
REMARK    5  A    between atoms: N_11  and  C_24
REMARK    6  A    between atoms: N_12  and  C_28
REMARK    7  A    between atoms: C_20  and  C_23
REMARK    8  A    between atoms: C_24  and  C_27
REMARK    9  A    between atoms: C_36  and  C_39
REMARK                            x       y       z     vdW  Elec       q    Type
REMARK                         _______ _______ _______ _____ _____    ______ ____
ROOT
ATOM      5  O   UNL     1      -6.105 -11.931  14.020  0.00  0.00    -0.252 OA
ATOM      9  N   UNL     1      -5.965 -10.591  15.898  0.00  0.00    -0.284 N 
ATOM     12  N   UNL     1      -6.877  -9.744  13.888  0.00  0.00    -0.269 N 
ATOM     13  C   UNL     1      -7.631  -9.307  17.284  0.00  0.00    +0.119 C 
ATOM     14  C   UNL     1      -8.178 -10.629  17.851  0.00  0.00    +0.136 C 
ATOM     15  C   UNL     1      -7.147 -11.543  18.523  0.00  0.00    +0.035 C 
ATOM     16  C   UNL     1      -6.234  -9.359  16.652  0.00  0.00    +0.134 C 
ATOM     17  C   UNL     1      -6.381 -12.422  17.531  0.00  0.00    +0.022 C 
ATOM     18  C   UNL     1      -5.363 -11.673  16.679  0.00  0.00    +0.109 C 
ATOM     19  C   UNL     1      -6.306 -10.833  14.546  0.00  0.00    +0.307 C 
ATOM     42  H   UNL     1      -7.024  -8.889  14.413  0.00  0.00    +0.156 HD
ENDROOT
BRANCH  12  28
ATOM     28  C   UNL     1      -7.320  -9.672  12.544  0.00  0.00    +0.035 A 
ATOM     34  C   UNL     1      -6.423  -9.341  11.530  0.00  0.00    +0.035 A 
ATOM     35  C   UNL     1      -8.655  -9.933  12.236  0.00  0.00    +0.023 A 
ATOM     36  C   UNL     1      -6.860  -9.270  10.207  0.00  0.00    +0.057 A 
ATOM     37  C   UNL     1      -9.093  -9.862  10.913  0.00  0.00    +0.002 A 
ATOM     38  C   UNL     1      -8.194  -9.531   9.899  0.00  0.00    +0.012 A 
BRANCH  36  39
ATOM      1  F   UNL     1      -5.132  -7.822   9.406  0.00  0.00    -0.166 F 
ATOM      2  F   UNL     1      -6.525  -8.626   7.943  0.00  0.00    -0.166 F 
ATOM      3  F   UNL     1      -5.011  -9.910   8.831  0.00  0.00    -0.166 F 
ATOM     39  C   UNL     1      -5.900  -8.915   9.121  0.00  0.00    +0.417 C 
ENDBRANCH  36  39
ENDBRANCH  12  28
BRANCH  13  10
ATOM      7  O   UNL     1      -9.850  -7.597  17.912  0.00  0.00    -0.270 OA
ATOM     10  N   UNL     1      -8.595  -8.761  16.348  0.00  0.00    -0.305 N 
ATOM     20  C   UNL     1      -9.633  -7.943  16.754  0.00  0.00    +0.244 C 
ATOM     40  H   UNL     1      -8.416  -8.909  15.361  0.00  0.00    +0.149 HD
BRANCH  20  23
ATOM     23  C   UNL     1     -10.550  -7.488  15.677  0.00  0.00    +0.037 A 
ATOM     29  C   UNL     1     -10.948  -8.378  14.679  0.00  0.00    +0.016 A 
ATOM     30  C   UNL     1     -11.012  -6.172  15.663  0.00  0.00    +0.016 A 
ATOM     31  C   UNL     1     -12.269  -6.635  13.652  0.00  0.00    +0.121 A 
ATOM     32  C   UNL     1     -11.808  -7.952  13.666  0.00  0.00    +0.046 A 
ATOM     33  C   UNL     1     -11.871  -5.745  14.651  0.00  0.00    +0.046 A 
BRANCH  31   8
ATOM      8  O   UNL     1     -13.108  -6.218  12.665  0.00  0.00    -0.491 OA
BRANCH   8  27
ATOM     27  C   UNL     1     -12.955  -4.875  12.207  0.00  0.00    +0.244 C 
BRANCH  27  24
ATOM     24  C   UNL     1     -12.944  -4.875  10.688  0.00  0.00    +0.125 C 
BRANCH  24  11
ATOM      6  O   UNL     1      -9.742  -5.616   8.077  0.00  0.00    -0.377 OA
ATOM     11  N   UNL     1     -11.600  -5.150  10.182  0.00  0.00    -0.295 NA
ATOM     21  C   UNL     1     -11.137  -4.061   9.311  0.00  0.00    +0.112 C 
ATOM     22  C   UNL     1     -11.568  -6.426   9.453  0.00  0.00    +0.112 C 
ATOM     25  C   UNL     1      -9.739  -4.376   8.786  0.00  0.00    +0.175 C 
ATOM     26  C   UNL     1     -10.160  -6.685   8.926  0.00  0.00    +0.175 C 
ENDBRANCH  24  11
ENDBRANCH  27  24
ENDBRANCH   8  27
ENDBRANCH  31   8
ENDBRANCH  20  23
ENDBRANCH  13  10
BRANCH  14   4
ATOM      4  O   UNL     1      -9.160 -10.305  18.844  0.00  0.00    -0.390 OA
ATOM     41  H   UNL     1     -10.022 -10.241  18.397  0.00  0.00    +0.210 HD
ENDBRANCH  14   4
TORSDOF 9
ENDMDL
MODEL 7
REMARK VINA RESULT:      -6.8      1.667      2.110
REMARK  Name = 45360392
REMARK  9 active torsions:
REMARK  status: ('A' for Active; 'I' for Inactive)
REMARK    1  A    between atoms: O_4  and  C_14
REMARK    2  A    between atoms: O_8  and  C_27
REMARK    3  A    between atoms: O_8  and  C_31
REMARK    4  A    between atoms: N_10  and  C_13
REMARK    5  A    between atoms: N_11  and  C_24
REMARK    6  A    between atoms: N_12  and  C_28
REMARK    7  A    between atoms: C_20  and  C_23
REMARK    8  A    between atoms: C_24  and  C_27
REMARK    9  A    between atoms: C_36  and  C_39
REMARK                            x       y       z     vdW  Elec       q    Type
REMARK                         _______ _______ _______ _____ _____    ______ ____
ROOT
ATOM      5  O   UNL     1      -8.512 -10.335  18.459  0.00  0.00    -0.252 OA
ATOM      9  N   UNL     1      -7.007 -12.052  18.095  0.00  0.00    -0.284 N 
ATOM     12  N   UNL     1      -8.132 -11.040  16.278  0.00  0.00    -0.269 N 
ATOM     13  C   UNL     1      -4.893 -12.297  16.749  0.00  0.00    +0.119 C 
ATOM     14  C   UNL     1      -4.148 -11.403  17.756  0.00  0.00    +0.136 C 
ATOM     15  C   UNL     1      -4.198 -11.861  19.217  0.00  0.00    +0.035 C 
ATOM     16  C   UNL     1      -6.203 -12.929  17.233  0.00  0.00    +0.134 C 
ATOM     17  C   UNL     1      -5.469 -11.422  19.947  0.00  0.00    +0.022 C 
ATOM     18  C   UNL     1      -6.729 -12.171  19.527  0.00  0.00    +0.109 C 
ATOM     19  C   UNL     1      -7.937 -11.078  17.659  0.00  0.00    +0.307 C 
ATOM     42  H   UNL     1      -7.594 -11.676  15.700  0.00  0.00    +0.156 HD
ENDROOT
BRANCH  12  28
ATOM     28  C   UNL     1      -8.989 -10.185  15.542  0.00  0.00    +0.035 A 
ATOM     34  C   UNL     1      -9.451  -8.999  16.113  0.00  0.00    +0.035 A 
ATOM     35  C   UNL     1      -9.369 -10.528  14.245  0.00  0.00    +0.023 A 
ATOM     36  C   UNL     1     -10.294  -8.158  15.387  0.00  0.00    +0.057 A 
ATOM     37  C   UNL     1     -10.213  -9.687  13.519  0.00  0.00    +0.002 A 
ATOM     38  C   UNL     1     -10.675  -8.502  14.091  0.00  0.00    +0.012 A 
BRANCH  36  39
ATOM      1  F   UNL     1     -12.097  -6.619  15.711  0.00  0.00    -0.166 F 
ATOM      2  F   UNL     1     -10.089  -5.797  15.580  0.00  0.00    -0.166 F 
ATOM      3  F   UNL     1     -10.714  -6.875  17.362  0.00  0.00    -0.166 F 
ATOM     39  C   UNL     1     -10.790  -6.890  15.998  0.00  0.00    +0.417 C 
ENDBRANCH  36  39
ENDBRANCH  12  28
BRANCH  13  10
ATOM      7  O   UNL     1      -3.098 -12.114  14.515  0.00  0.00    -0.270 OA
ATOM     10  N   UNL     1      -5.108 -11.550  15.524  0.00  0.00    -0.305 N 
ATOM     20  C   UNL     1      -4.177 -11.526  14.503  0.00  0.00    +0.244 C 
ATOM     40  H   UNL     1      -6.022 -11.131  15.392  0.00  0.00    +0.149 HD
BRANCH  20  23
ATOM     23  C   UNL     1      -4.535 -10.692  13.327  0.00  0.00    +0.037 A 
ATOM     29  C   UNL     1      -5.726  -9.965  13.325  0.00  0.00    +0.016 A 
ATOM     30  C   UNL     1      -3.682 -10.635  12.225  0.00  0.00    +0.016 A 
ATOM     31  C   UNL     1      -5.211  -9.127  11.119  0.00  0.00    +0.121 A 
ATOM     32  C   UNL     1      -6.064  -9.182  12.221  0.00  0.00    +0.046 A 
ATOM     33  C   UNL     1      -4.020  -9.854  11.120  0.00  0.00    +0.046 A 
BRANCH  31   8
ATOM      8  O   UNL     1      -5.540  -8.364  10.040  0.00  0.00    -0.491 OA
BRANCH   8  27
ATOM     27  C   UNL     1      -6.894  -8.422   9.593  0.00  0.00    +0.244 C 
BRANCH  27  24
ATOM     24  C   UNL     1      -7.097  -9.709   8.812  0.00  0.00    +0.125 C 
BRANCH  24  11
ATOM      6  O   UNL     1      -7.109  -8.048   4.957  0.00  0.00    -0.377 OA
ATOM     11  N   UNL     1      -7.462  -9.420   7.426  0.00  0.00    -0.295 NA
ATOM     21  C   UNL     1      -6.356  -9.748   6.516  0.00  0.00    +0.112 C 
ATOM     22  C   UNL     1      -7.839  -8.008   7.270  0.00  0.00    +0.112 C 
ATOM     25  C   UNL     1      -6.755  -9.427   5.078  0.00  0.00    +0.175 C 
ATOM     26  C   UNL     1      -8.205  -7.729   5.815  0.00  0.00    +0.175 C 
ENDBRANCH  24  11
ENDBRANCH  27  24
ENDBRANCH   8  27
ENDBRANCH  31   8
ENDBRANCH  20  23
ENDBRANCH  13  10
BRANCH  14   4
ATOM      4  O   UNL     1      -2.766 -11.371  17.374  0.00  0.00    -0.390 OA
ATOM     41  H   UNL     1      -2.431 -12.284  17.404  0.00  0.00    +0.210 HD
ENDBRANCH  14   4
TORSDOF 9
ENDMDL
MODEL 8
REMARK VINA RESULT:      -6.8      3.522      7.243
REMARK  Name = 45360392
REMARK  9 active torsions:
REMARK  status: ('A' for Active; 'I' for Inactive)
REMARK    1  A    between atoms: O_4  and  C_14
REMARK    2  A    between atoms: O_8  and  C_27
REMARK    3  A    between atoms: O_8  and  C_31
REMARK    4  A    between atoms: N_10  and  C_13
REMARK    5  A    between atoms: N_11  and  C_24
REMARK    6  A    between atoms: N_12  and  C_28
REMARK    7  A    between atoms: C_20  and  C_23
REMARK    8  A    between atoms: C_24  and  C_27
REMARK    9  A    between atoms: C_36  and  C_39
REMARK                            x       y       z     vdW  Elec       q    Type
REMARK                         _______ _______ _______ _____ _____    ______ ____
ROOT
ATOM      5  O   UNL     1     -10.453  -9.003  12.091  0.00  0.00    -0.252 OA
ATOM      9  N   UNL     1     -10.871  -9.712  14.251  0.00  0.00    -0.284 N 
ATOM     12  N   UNL     1      -8.983 -10.510  13.074  0.00  0.00    -0.269 N 
ATOM     13  C   UNL     1      -9.587  -9.643  16.417  0.00  0.00    +0.119 C 
ATOM     14  C   UNL     1      -9.822  -8.124  16.507  0.00  0.00    +0.136 C 
ATOM     15  C   UNL     1     -11.285  -7.672  16.456  0.00  0.00    +0.035 C 
ATOM     16  C   UNL     1     -10.522 -10.426  15.487  0.00  0.00    +0.134 C 
ATOM     17  C   UNL     1     -11.832  -7.553  15.031  0.00  0.00    +0.022 C 
ATOM     18  C   UNL     1     -12.078  -8.887  14.336  0.00  0.00    +0.109 C 
ATOM     19  C   UNL     1     -10.114  -9.695  13.055  0.00  0.00    +0.307 C 
ATOM     42  H   UNL     1      -8.774 -11.023  13.923  0.00  0.00    +0.156 HD
ENDROOT
BRANCH  12  28
ATOM     28  C   UNL     1      -8.033 -10.706  12.041  0.00  0.00    +0.035 A 
ATOM     34  C   UNL     1      -6.967  -9.820  11.895  0.00  0.00    +0.035 A 
ATOM     35  C   UNL     1      -8.164 -11.788  11.170  0.00  0.00    +0.023 A 
ATOM     36  C   UNL     1      -6.032 -10.014  10.877  0.00  0.00    +0.057 A 
ATOM     37  C   UNL     1      -7.230 -11.983  10.153  0.00  0.00    +0.002 A 
ATOM     38  C   UNL     1      -6.163 -11.095  10.007  0.00  0.00    +0.012 A 
BRANCH  36  39
ATOM      1  F   UNL     1      -4.439  -8.962   9.436  0.00  0.00    -0.166 F 
ATOM      2  F   UNL     1      -3.805  -9.423  11.463  0.00  0.00    -0.166 F 
ATOM      3  F   UNL     1      -5.189  -7.786  11.097  0.00  0.00    -0.166 F 
ATOM     39  C   UNL     1      -4.892  -9.065  10.720  0.00  0.00    +0.417 C 
ENDBRANCH  36  39
ENDBRANCH  12  28
BRANCH  13  10
ATOM      7  O   UNL     1      -7.417 -10.101  18.240  0.00  0.00    -0.270 OA
ATOM     10  N   UNL     1      -8.200  -9.885  16.068  0.00  0.00    -0.305 N 
ATOM     20  C   UNL     1      -7.226 -10.095  17.026  0.00  0.00    +0.244 C 
ATOM     40  H   UNL     1      -7.984 -10.007  15.085  0.00  0.00    +0.149 HD
BRANCH  20  23
ATOM     23  C   UNL     1      -5.849 -10.302  16.508  0.00  0.00    +0.037 A 
ATOM     29  C   UNL     1      -5.618 -10.319  15.132  0.00  0.00    +0.016 A 
ATOM     30  C   UNL     1      -4.788 -10.480  17.395  0.00  0.00    +0.016 A 
ATOM     31  C   UNL     1      -3.265 -10.693  15.532  0.00  0.00    +0.121 A 
ATOM     32  C   UNL     1      -4.326 -10.514  14.644  0.00  0.00    +0.046 A 
ATOM     33  C   UNL     1      -3.496 -10.676  16.908  0.00  0.00    +0.046 A 
BRANCH  31   8
ATOM      8  O   UNL     1      -2.004 -10.883  15.056  0.00  0.00    -0.491 OA
BRANCH   8  27
ATOM     27  C   UNL     1      -1.879 -11.334  13.708  0.00  0.00    +0.244 C 
BRANCH  27  24
ATOM     24  C   UNL     1      -1.455 -12.793  13.717  0.00  0.00    +0.125 C 
BRANCH  24  11
ATOM      6  O   UNL     1      -4.995 -14.165  11.927  0.00  0.00    -0.377 OA
ATOM     11  N   UNL     1      -2.401 -13.610  12.958  0.00  0.00    -0.295 NA
ATOM     21  C   UNL     1      -2.958 -12.851  11.831  0.00  0.00    +0.112 C 
ATOM     22  C   UNL     1      -3.486 -14.092  13.825  0.00  0.00    +0.112 C 
ATOM     25  C   UNL     1      -3.950 -13.718  11.062  0.00  0.00    +0.175 C 
ATOM     26  C   UNL     1      -4.464 -14.932  13.009  0.00  0.00    +0.175 C 
ENDBRANCH  24  11
ENDBRANCH  27  24
ENDBRANCH   8  27
ENDBRANCH  31   8
ENDBRANCH  20  23
ENDBRANCH  13  10
BRANCH  14   4
ATOM      4  O   UNL     1      -9.288  -7.673  17.759  0.00  0.00    -0.390 OA
ATOM     41  H   UNL     1      -9.748  -8.157  18.467  0.00  0.00    +0.210 HD
ENDBRANCH  14   4
TORSDOF 9
ENDMDL
MODEL 9
REMARK VINA RESULT:      -6.8     26.904     30.211
REMARK  Name = 45360392
REMARK  9 active torsions:
REMARK  status: ('A' for Active; 'I' for Inactive)
REMARK    1  A    between atoms: O_4  and  C_14
REMARK    2  A    between atoms: O_8  and  C_27
REMARK    3  A    between atoms: O_8  and  C_31
REMARK    4  A    between atoms: N_10  and  C_13
REMARK    5  A    between atoms: N_11  and  C_24
REMARK    6  A    between atoms: N_12  and  C_28
REMARK    7  A    between atoms: C_20  and  C_23
REMARK    8  A    between atoms: C_24  and  C_27
REMARK    9  A    between atoms: C_36  and  C_39
REMARK                            x       y       z     vdW  Elec       q    Type
REMARK                         _______ _______ _______ _____ _____    ______ ____
ROOT
ATOM      5  O   UNL     1      14.863  -6.843  26.869  0.00  0.00    -0.252 OA
ATOM      9  N   UNL     1      15.953  -6.704  28.902  0.00  0.00    -0.284 N 
ATOM     12  N   UNL     1      17.046  -6.049  26.911  0.00  0.00    -0.269 N 
ATOM     13  C   UNL     1      17.043  -4.843  30.204  0.00  0.00    +0.119 C 
ATOM     14  C   UNL     1      15.656  -4.253  30.521  0.00  0.00    +0.136 C 
ATOM     15  C   UNL     1      14.669  -5.205  31.204  0.00  0.00    +0.035 C 
ATOM     16  C   UNL     1      17.077  -6.311  29.763  0.00  0.00    +0.134 C 
ATOM     17  C   UNL     1      13.927  -6.115  30.221  0.00  0.00    +0.022 C 
ATOM     18  C   UNL     1      14.783  -7.220  29.615  0.00  0.00    +0.109 C 
ATOM     19  C   UNL     1      15.884  -6.550  27.497  0.00  0.00    +0.307 C 
ATOM     42  H   UNL     1      17.826  -5.815  27.515  0.00  0.00    +0.156 HD
ENDROOT
BRANCH  12  28
ATOM     28  C   UNL     1      17.288  -5.786  25.540  0.00  0.00    +0.035 A 
ATOM     34  C   UNL     1      16.925  -4.557  24.991  0.00  0.00    +0.035 A 
ATOM     35  C   UNL     1      17.890  -6.756  24.740  0.00  0.00    +0.023 A 
ATOM     36  C   UNL     1      17.163  -4.298  23.640  0.00  0.00    +0.057 A 
ATOM     37  C   UNL     1      18.129  -6.498  23.390  0.00  0.00    +0.002 A 
ATOM     38  C   UNL     1      17.765  -5.269  22.841  0.00  0.00    +0.012 A 
BRANCH  36  39
ATOM      1  F   UNL     1      16.674  -1.980  23.972  0.00  0.00    -0.166 F 
ATOM      2  F   UNL     1      15.561  -3.028  22.426  0.00  0.00    -0.166 F 
ATOM      3  F   UNL     1      17.653  -2.523  22.114  0.00  0.00    -0.166 F 
ATOM     39  C   UNL     1      16.773  -2.984  23.052  0.00  0.00    +0.417 C 
ENDBRANCH  36  39
ENDBRANCH  12  28
BRANCH  13  10
ATOM      7  O   UNL     1      19.513  -3.421  30.547  0.00  0.00    -0.270 OA
ATOM     10  N   UNL     1      17.699  -4.000  29.223  0.00  0.00    -0.305 N 
ATOM     20  C   UNL     1      18.894  -3.355  29.488  0.00  0.00    +0.244 C 
ATOM     40  H   UNL     1      17.308  -3.986  28.288  0.00  0.00    +0.149 HD
BRANCH  20  23
ATOM     23  C   UNL     1      19.423  -2.507  28.389  0.00  0.00    +0.037 A 
ATOM     29  C   UNL     1      18.836  -2.558  27.125  0.00  0.00    +0.016 A 
ATOM     30  C   UNL     1      20.507  -1.661  28.621  0.00  0.00    +0.016 A 
ATOM     31  C   UNL     1      20.417  -0.918  26.324  0.00  0.00    +0.121 A 
ATOM     32  C   UNL     1      19.333  -1.763  26.092  0.00  0.00    +0.046 A 
ATOM     33  C   UNL     1      21.005  -0.866  27.589  0.00  0.00    +0.046 A 
BRANCH  31   8
ATOM      8  O   UNL     1      20.904  -0.141  25.317  0.00  0.00    -0.491 OA
BRANCH   8  27
ATOM     27  C   UNL     1      22.294   0.176  25.354  0.00  0.00    +0.244 C 
BRANCH  27  24
ATOM     24  C   UNL     1      22.453   1.686  25.295  0.00  0.00    +0.125 C 
BRANCH  24  11
ATOM      6  O   UNL     1      24.002   1.997  21.407  0.00  0.00    -0.377 OA
ATOM     11  N   UNL     1      23.291   2.073  24.162  0.00  0.00    -0.295 NA
ATOM     21  C   UNL     1      22.501   2.779  23.145  0.00  0.00    +0.112 C 
ATOM     22  C   UNL     1      23.940   0.895  23.567  0.00  0.00    +0.112 C 
ATOM     25  C   UNL     1      23.393   3.162  21.968  0.00  0.00    +0.175 C 
ATOM     26  C   UNL     1      24.799   1.323  22.381  0.00  0.00    +0.175 C 
ENDBRANCH  24  11
ENDBRANCH  27  24
ENDBRANCH   8  27
ENDBRANCH  31   8
ENDBRANCH  20  23
ENDBRANCH  13  10
BRANCH  14   4
ATOM      4  O   UNL     1      15.847  -3.142  31.406  0.00  0.00    -0.390 OA
ATOM     41  H   UNL     1      16.797  -2.931  31.416  0.00  0.00    +0.210 HD
ENDBRANCH  14   4
TORSDOF 9
ENDMDL
MODEL 10
REMARK VINA RESULT:      -6.8     26.943     30.068
REMARK  Name = 45360392
REMARK  9 active torsions:
REMARK  status: ('A' for Active; 'I' for Inactive)
REMARK    1  A    between atoms: O_4  and  C_14
REMARK    2  A    between atoms: O_8  and  C_27
REMARK    3  A    between atoms: O_8  and  C_31
REMARK    4  A    between atoms: N_10  and  C_13
REMARK    5  A    between atoms: N_11  and  C_24
REMARK    6  A    between atoms: N_12  and  C_28
REMARK    7  A    between atoms: C_20  and  C_23
REMARK    8  A    between atoms: C_24  and  C_27
REMARK    9  A    between atoms: C_36  and  C_39
REMARK                            x       y       z     vdW  Elec       q    Type
REMARK                         _______ _______ _______ _____ _____    ______ ____
ROOT
ATOM      5  O   UNL     1       9.371   6.426   3.319  0.00  0.00    -0.252 OA
ATOM      9  N   UNL     1       9.938   6.224   5.551  0.00  0.00    -0.284 N 
ATOM     12  N   UNL     1      11.605   6.122   3.879  0.00  0.00    -0.269 N 
ATOM     13  C   UNL     1      11.469   7.477   7.109  0.00  0.00    +0.119 C 
ATOM     14  C   UNL     1      10.490   8.666   7.114  0.00  0.00    +0.136 C 
ATOM     15  C   UNL     1       9.052   8.342   7.531  0.00  0.00    +0.035 C 
ATOM     16  C   UNL     1      10.903   6.127   6.655  0.00  0.00    +0.134 C 
ATOM     17  C   UNL     1       8.198   7.795   6.384  0.00  0.00    +0.022 C 
ATOM     18  C   UNL     1       8.541   6.371   5.965  0.00  0.00    +0.109 C 
ATOM     19  C   UNL     1      10.250   6.268   4.171  0.00  0.00    +0.307 C 
ATOM     42  H   UNL     1      12.255   6.021   4.650  0.00  0.00    +0.156 HD
ENDROOT
BRANCH  12  28
ATOM     28  C   UNL     1      12.228   6.122   2.605  0.00  0.00    +0.035 A 
ATOM     34  C   UNL     1      12.786   4.949   2.101  0.00  0.00    +0.035 A 
ATOM     35  C   UNL     1      12.279   7.297   1.855  0.00  0.00    +0.023 A 
ATOM     36  C   UNL     1      13.399   4.950   0.847  0.00  0.00    +0.057 A 
ATOM     37  C   UNL     1      12.891   7.299   0.601  0.00  0.00    +0.002 A 
ATOM     38  C   UNL     1      13.450   6.124   0.098  0.00  0.00    +0.012 A 
BRANCH  36  39
ATOM      1  F   UNL     1      13.080   2.717   0.048  0.00  0.00    -0.166 F 
ATOM      2  F   UNL     1      14.897   3.132   1.167  0.00  0.00    -0.166 F 
ATOM      3  F   UNL     1      14.674   3.871  -0.866  0.00  0.00    -0.166 F 
ATOM     39  C   UNL     1      13.998   3.694   0.308  0.00  0.00    +0.417 C 
ENDBRANCH  36  39
ENDBRANCH  12  28
BRANCH  13  10
ATOM      7  O   UNL     1      14.095   6.338   7.333  0.00  0.00    -0.270 OA
ATOM     10  N   UNL     1      12.636   7.832   6.325  0.00  0.00    -0.305 N 
ATOM     20  C   UNL     1      13.862   7.221   6.511  0.00  0.00    +0.244 C 
ATOM     40  H   UNL     1      12.497   8.472   5.550  0.00  0.00    +0.149 HD
BRANCH  20  23
ATOM     23  C   UNL     1      14.964   7.716   5.646  0.00  0.00    +0.037 A 
ATOM     29  C   UNL     1      15.061   7.283   4.324  0.00  0.00    +0.016 A 
ATOM     30  C   UNL     1      15.903   8.613   6.157  0.00  0.00    +0.016 A 
ATOM     31  C   UNL     1      17.035   8.643   4.023  0.00  0.00    +0.121 A 
ATOM     32  C   UNL     1      16.096   7.747   3.511  0.00  0.00    +0.046 A 
ATOM     33  C   UNL     1      16.938   9.076   5.346  0.00  0.00    +0.046 A 
BRANCH  31   8
ATOM      8  O   UNL     1      18.046   9.096   3.232  0.00  0.00    -0.491 OA
BRANCH   8  27
ATOM     27  C   UNL     1      18.478   8.238   2.176  0.00  0.00    +0.244 C 
BRANCH  27  24
ATOM     24  C   UNL     1      19.990   8.098   2.248  0.00  0.00    +0.125 C 
BRANCH  24  11
ATOM      6  O   UNL     1      22.377   8.228   5.698  0.00  0.00    -0.377 OA
ATOM     11  N   UNL     1      20.474   8.418   3.590  0.00  0.00    -0.295 NA
ATOM     21  C   UNL     1      21.763   9.119   3.526  0.00  0.00    +0.112 C 
ATOM     22  C   UNL     1      20.603   7.199   4.402  0.00  0.00    +0.112 C 
ATOM     25  C   UNL     1      22.254   9.431   4.937  0.00  0.00    +0.175 C 
ATOM     26  C   UNL     1      21.120   7.557   5.792  0.00  0.00    +0.175 C 
ENDBRANCH  24  11
ENDBRANCH  27  24
ENDBRANCH   8  27
ENDBRANCH  31   8
ENDBRANCH  20  23
ENDBRANCH  13  10
BRANCH  14   4
ATOM      4  O   UNL     1      10.987   9.637   8.045  0.00  0.00    -0.390 OA
ATOM     41  H   UNL     1      10.410  10.419   7.992  0.00  0.00    +0.210 HD
ENDBRANCH  14   4
TORSDOF 9
ENDMDL
