MODEL 1
REMARK VINA RESULT:      -5.6      0.000      0.000
REMARK  Name = 75536904
REMARK  5 active torsions:
REMARK  status: ('A' for Active; 'I' for Inactive)
REMARK    1  A    between atoms: O_2  and  C_8
REMARK    2  A    between atoms: O_2  and  C_15
REMARK    3  A    between atoms: O_4  and  C_14
REMARK    4  A    between atoms: O_4  and  C_17
REMARK    5  A    between atoms: C_13  and  C_14
REMARK                            x       y       z     vdW  Elec       q    Type
REMARK                         _______ _______ _______ _____ _____    ______ ____
ROOT
ATOM      1  O   UNL     1      11.457   6.887  21.704  0.00  0.00    -0.375 OA
ATOM      3  O   UNL     1      13.544   7.334  17.283  0.00  0.00    -0.273 OA
ATOM      5  N   UNL     1      12.854   8.332  19.275  0.00  0.00    -0.294 N 
ATOM      8  C   UNL     1      11.782   9.288  21.391  0.00  0.00    +0.218 C 
ATOM      9  C   UNL     1      12.273   9.493  19.956  0.00  0.00    +0.154 C 
ATOM     10  C   UNL     1      13.261   7.177  20.081  0.00  0.00    +0.136 C 
ATOM     11  C   UNL     1      10.793   8.134  21.526  0.00  0.00    +0.206 C 
ATOM     12  C   UNL     1      12.056   6.361  20.526  0.00  0.00    +0.179 C 
ATOM     13  C   UNL     1      13.048   8.288  17.887  0.00  0.00    +0.241 C 
ENDROOT
BRANCH   8   2
ATOM      2  O   UNL     1      11.114  10.484  21.799  0.00  0.00    -0.468 OA
BRANCH   2  15
ATOM      6  N   UNL     1      10.606  11.246  23.935  0.00  0.00    -0.219 NA
ATOM      7  N   UNL     1      13.300  11.940  24.296  0.00  0.00    -0.256 NA
ATOM     15  C   UNL     1      11.529  11.044  22.974  0.00  0.00    +0.234 A 
ATOM     16  C   UNL     1      12.853  11.385  23.151  0.00  0.00    +0.177 A 
ATOM     18  C   UNL     1      11.053  11.800  25.079  0.00  0.00    +0.134 A 
ATOM     19  C   UNL     1      12.376  12.141  25.256  0.00  0.00    +0.130 A 
ENDBRANCH   2  15
ENDBRANCH   8   2
BRANCH  13  14
ATOM     14  C   UNL     1      12.600   9.502  17.108  0.00  0.00    +0.255 C 
BRANCH  14   4
ATOM      4  O   UNL     1      12.071   9.027  15.896  0.00  0.00    -0.374 OA
ATOM     17  C   UNL     1      10.648   8.924  15.936  0.00  0.00    +0.194 C 
ENDBRANCH  14   4
ENDBRANCH  13  14
TORSDOF 4
ENDMDL
MODEL 2
REMARK VINA RESULT:      -5.3      3.010      6.410
REMARK  Name = 75536904
REMARK  5 active torsions:
REMARK  status: ('A' for Active; 'I' for Inactive)
REMARK    1  A    between atoms: O_2  and  C_8
REMARK    2  A    between atoms: O_2  and  C_15
REMARK    3  A    between atoms: O_4  and  C_14
REMARK    4  A    between atoms: O_4  and  C_17
REMARK    5  A    between atoms: C_13  and  C_14
REMARK                            x       y       z     vdW  Elec       q    Type
REMARK                         _______ _______ _______ _____ _____    ______ ____
ROOT
ATOM      1  O   UNL     1      13.843   9.360  17.424  0.00  0.00    -0.375 OA
ATOM      3  O   UNL     1      11.607  11.617  21.167  0.00  0.00    -0.273 OA
ATOM      5  N   UNL     1      13.099   9.986  20.423  0.00  0.00    -0.294 N 
ATOM      8  C   UNL     1      14.471   8.081  19.408  0.00  0.00    +0.218 C 
ATOM      9  C   UNL     1      13.662   8.642  20.581  0.00  0.00    +0.154 C 
ATOM     10  C   UNL     1      13.619  10.843  19.354  0.00  0.00    +0.136 C 
ATOM     11  C   UNL     1      13.707   8.107  18.087  0.00  0.00    +0.206 C 
ATOM     12  C   UNL     1      13.082  10.418  17.994  0.00  0.00    +0.179 C 
ATOM     13  C   UNL     1      12.095  10.488  21.263  0.00  0.00    +0.241 C 
ENDROOT
BRANCH   8   2
ATOM      2  O   UNL     1      14.782   6.718  19.705  0.00  0.00    -0.468 OA
BRANCH   2  15
ATOM      6  N   UNL     1      16.722   5.787  18.825  0.00  0.00    -0.219 NA
ATOM      7  N   UNL     1      18.076   6.450  21.189  0.00  0.00    -0.256 NA
ATOM     15  C   UNL     1      16.106   6.411  19.849  0.00  0.00    +0.234 A 
ATOM     16  C   UNL     1      16.771   6.737  21.010  0.00  0.00    +0.177 A 
ATOM     18  C   UNL     1      18.025   5.501  19.004  0.00  0.00    +0.134 A 
ATOM     19  C   UNL     1      18.692   5.826  20.165  0.00  0.00    +0.130 A 
ENDBRANCH   2  15
ENDBRANCH   8   2
BRANCH  13  14
ATOM     14  C   UNL     1      11.592   9.556  22.340  0.00  0.00    +0.255 C 
BRANCH  14   4
ATOM      4  O   UNL     1      10.456   8.915  21.816  0.00  0.00    -0.374 OA
ATOM     17  C   UNL     1      10.477   7.508  22.055  0.00  0.00    +0.194 C 
ENDBRANCH  14   4
ENDBRANCH  13  14
TORSDOF 4
ENDMDL
MODEL 3
REMARK VINA RESULT:      -5.1      2.641      3.615
REMARK  Name = 75536904
REMARK  5 active torsions:
REMARK  status: ('A' for Active; 'I' for Inactive)
REMARK    1  A    between atoms: O_2  and  C_8
REMARK    2  A    between atoms: O_2  and  C_15
REMARK    3  A    between atoms: O_4  and  C_14
REMARK    4  A    between atoms: O_4  and  C_17
REMARK    5  A    between atoms: C_13  and  C_14
REMARK                            x       y       z     vdW  Elec       q    Type
REMARK                         _______ _______ _______ _____ _____    ______ ____
ROOT
ATOM      1  O   UNL     1      10.825   7.624  20.494  0.00  0.00    -0.375 OA
ATOM      3  O   UNL     1      15.559   6.385  20.892  0.00  0.00    -0.273 OA
ATOM      5  N   UNL     1      13.874   7.964  21.220  0.00  0.00    -0.294 N 
ATOM      8  C   UNL     1      11.957   9.657  21.238  0.00  0.00    +0.218 C 
ATOM      9  C   UNL     1      13.460   9.371  21.213  0.00  0.00    +0.154 C 
ATOM     10  C   UNL     1      12.893   6.947  21.607  0.00  0.00    +0.136 C 
ATOM     11  C   UNL     1      11.194   8.948  20.122  0.00  0.00    +0.206 C 
ATOM     12  C   UNL     1      11.895   6.686  20.487  0.00  0.00    +0.179 C 
ATOM     13  C   UNL     1      15.173   7.557  20.885  0.00  0.00    +0.241 C 
ENDROOT
BRANCH   8   2
ATOM      2  O   UNL     1      11.777  11.064  21.062  0.00  0.00    -0.468 OA
BRANCH   2  15
ATOM      6  N   UNL     1      10.991  13.060  21.955  0.00  0.00    -0.219 NA
ATOM      7  N   UNL     1      10.529  11.753  24.393  0.00  0.00    -0.256 NA
ATOM     15  C   UNL     1      11.262  11.751  22.125  0.00  0.00    +0.234 A 
ATOM     16  C   UNL     1      11.035  11.108  23.322  0.00  0.00    +0.177 A 
ATOM     18  C   UNL     1      10.485  13.704  23.025  0.00  0.00    +0.134 A 
ATOM     19  C   UNL     1      10.257  13.062  24.222  0.00  0.00    +0.130 A 
ENDBRANCH   2  15
ENDBRANCH   8   2
BRANCH  13  14
ATOM     14  C   UNL     1      16.137   8.648  20.485  0.00  0.00    +0.255 C 
BRANCH  14   4
ATOM      4  O   UNL     1      16.982   8.861  21.589  0.00  0.00    -0.374 OA
ATOM     17  C   UNL     1      17.950   9.878  21.336  0.00  0.00    +0.194 C 
ENDBRANCH  14   4
ENDBRANCH  13  14
TORSDOF 4
ENDMDL
MODEL 4
REMARK VINA RESULT:      -5.1     13.529     18.596
REMARK  Name = 75536904
REMARK  5 active torsions:
REMARK  status: ('A' for Active; 'I' for Inactive)
REMARK    1  A    between atoms: O_2  and  C_8
REMARK    2  A    between atoms: O_2  and  C_15
REMARK    3  A    between atoms: O_4  and  C_14
REMARK    4  A    between atoms: O_4  and  C_17
REMARK    5  A    between atoms: C_13  and  C_14
REMARK                            x       y       z     vdW  Elec       q    Type
REMARK                         _______ _______ _______ _____ _____    ______ ____
ROOT
ATOM      1  O   UNL     1      10.244   7.967   3.122  0.00  0.00    -0.375 OA
ATOM      3  O   UNL     1      10.587   7.125   7.947  0.00  0.00    -0.273 OA
ATOM      5  N   UNL     1      10.779   6.329   5.764  0.00  0.00    -0.294 N 
ATOM      8  C   UNL     1      10.659   5.568   3.324  0.00  0.00    +0.218 C 
ATOM      9  C   UNL     1      10.604   5.225   4.815  0.00  0.00    +0.154 C 
ATOM     10  C   UNL     1      11.342   7.591   5.274  0.00  0.00    +0.136 C 
ATOM     11  C   UNL     1       9.684   6.672   2.928  0.00  0.00    +0.206 C 
ATOM     12  C   UNL     1      10.313   8.385   4.481  0.00  0.00    +0.179 C 
ATOM     13  C   UNL     1      10.442   6.221   7.119  0.00  0.00    +0.241 C 
ENDROOT
BRANCH   8   2
ATOM      2  O   UNL     1      10.306   4.392   2.593  0.00  0.00    -0.468 OA
BRANCH   2  15
ATOM      6  N   UNL     1      10.651   4.140   0.308  0.00  0.00    -0.219 NA
ATOM      7  N   UNL     1      13.261   3.255   0.830  0.00  0.00    -0.256 NA
ATOM     15  C   UNL     1      11.134   4.043   1.563  0.00  0.00    +0.234 A 
ATOM     16  C   UNL     1      12.416   3.608   1.819  0.00  0.00    +0.177 A 
ATOM     18  C   UNL     1      11.496   3.787  -0.681  0.00  0.00    +0.134 A 
ATOM     19  C   UNL     1      12.778   3.353  -0.425  0.00  0.00    +0.130 A 
ENDBRANCH   2  15
ENDBRANCH   8   2
BRANCH  13  14
ATOM     14  C   UNL     1       9.857   4.902   7.564  0.00  0.00    +0.255 C 
BRANCH  14   4
ATOM      4  O   UNL     1      10.293   4.696   8.885  0.00  0.00    -0.374 OA
ATOM     17  C   UNL     1       9.201   4.539   9.791  0.00  0.00    +0.194 C 
ENDBRANCH  14   4
ENDBRANCH  13  14
TORSDOF 4
ENDMDL
MODEL 5
REMARK VINA RESULT:      -4.9      2.680      6.110
REMARK  Name = 75536904
REMARK  5 active torsions:
REMARK  status: ('A' for Active; 'I' for Inactive)
REMARK    1  A    between atoms: O_2  and  C_8
REMARK    2  A    between atoms: O_2  and  C_15
REMARK    3  A    between atoms: O_4  and  C_14
REMARK    4  A    between atoms: O_4  and  C_17
REMARK    5  A    between atoms: C_13  and  C_14
REMARK                            x       y       z     vdW  Elec       q    Type
REMARK                         _______ _______ _______ _____ _____    ______ ____
ROOT
ATOM      1  O   UNL     1      10.200   9.042  22.154  0.00  0.00    -0.375 OA
ATOM      3  O   UNL     1      14.592  10.786  23.485  0.00  0.00    -0.273 OA
ATOM      5  N   UNL     1      13.218   9.895  21.825  0.00  0.00    -0.294 N 
ATOM      8  C   UNL     1      11.652   8.655  20.228  0.00  0.00    +0.218 C 
ATOM      9  C   UNL     1      13.075   9.025  20.654  0.00  0.00    +0.154 C 
ATOM     10  C   UNL     1      12.045  10.640  22.292  0.00  0.00    +0.136 C 
ATOM     11  C   UNL     1      10.829   8.043  21.358  0.00  0.00    +0.206 C 
ATOM     12  C   UNL     1      11.075   9.733  23.038  0.00  0.00    +0.179 C 
ATOM     13  C   UNL     1      14.432  10.054  22.505  0.00  0.00    +0.241 C 
ENDROOT
BRANCH   8   2
ATOM      2  O   UNL     1      11.748   7.683  19.184  0.00  0.00    -0.468 OA
BRANCH   2  15
ATOM      6  N   UNL     1      11.754   9.069  17.318  0.00  0.00    -0.219 NA
ATOM      7  N   UNL     1      14.148   7.875  16.476  0.00  0.00    -0.256 NA
ATOM     15  C   UNL     1      12.350   8.089  18.026  0.00  0.00    +0.234 A 
ATOM     16  C   UNL     1      13.526   7.502  17.612  0.00  0.00    +0.177 A 
ATOM     18  C   UNL     1      12.376   9.442  16.183  0.00  0.00    +0.134 A 
ATOM     19  C   UNL     1      13.553   8.856  15.769  0.00  0.00    +0.130 A 
ENDBRANCH   2  15
ENDBRANCH   8   2
BRANCH  13  14
ATOM     14  C   UNL     1      15.603   9.255  21.984  0.00  0.00    +0.255 C 
BRANCH  14   4
ATOM      4  O   UNL     1      16.719  10.110  22.018  0.00  0.00    -0.374 OA
ATOM     17  C   UNL     1      17.421  10.126  20.776  0.00  0.00    +0.194 C 
ENDBRANCH  14   4
ENDBRANCH  13  14
TORSDOF 4
ENDMDL
MODEL 6
REMARK VINA RESULT:      -4.8      3.467      6.658
REMARK  Name = 75536904
REMARK  5 active torsions:
REMARK  status: ('A' for Active; 'I' for Inactive)
REMARK    1  A    between atoms: O_2  and  C_8
REMARK    2  A    between atoms: O_2  and  C_15
REMARK    3  A    between atoms: O_4  and  C_14
REMARK    4  A    between atoms: O_4  and  C_17
REMARK    5  A    between atoms: C_13  and  C_14
REMARK                            x       y       z     vdW  Elec       q    Type
REMARK                         _______ _______ _______ _____ _____    ______ ____
ROOT
ATOM      1  O   UNL     1      11.664   7.671  18.752  0.00  0.00    -0.375 OA
ATOM      3  O   UNL     1      15.112   7.914  22.238  0.00  0.00    -0.273 OA
ATOM      5  N   UNL     1      14.426   8.430  20.070  0.00  0.00    -0.294 N 
ATOM      8  C   UNL     1      13.613   8.654  17.655  0.00  0.00    +0.218 C 
ATOM      9  C   UNL     1      14.771   8.593  18.655  0.00  0.00    +0.154 C 
ATOM     10  C   UNL     1      13.046   8.693  20.490  0.00  0.00    +0.136 C 
ATOM     11  C   UNL     1      12.667   7.461  17.763  0.00  0.00    +0.206 C 
ATOM     12  C   UNL     1      12.121   7.550  20.094  0.00  0.00    +0.179 C 
ATOM     13  C   UNL     1      15.364   8.048  21.038  0.00  0.00    +0.241 C 
ENDROOT
BRANCH   8   2
ATOM      2  O   UNL     1      14.172   8.649  16.340  0.00  0.00    -0.468 OA
BRANCH   2  15
ATOM      6  N   UNL     1      15.153   9.898  14.642  0.00  0.00    -0.219 NA
ATOM      7  N   UNL     1      14.233  12.242  15.876  0.00  0.00    -0.256 NA
ATOM     15  C   UNL     1      14.440   9.869  15.786  0.00  0.00    +0.234 A 
ATOM     16  C   UNL     1      13.987  11.021  16.392  0.00  0.00    +0.177 A 
ATOM     18  C   UNL     1      15.397  11.118  14.127  0.00  0.00    +0.134 A 
ATOM     19  C   UNL     1      14.945  12.270  14.732  0.00  0.00    +0.130 A 
ENDBRANCH   2  15
ENDBRANCH   8   2
BRANCH  13  14
ATOM     14  C   UNL     1      16.767   7.782  20.546  0.00  0.00    +0.255 C 
BRANCH  14   4
ATOM      4  O   UNL     1      16.907   6.385  20.472  0.00  0.00    -0.374 OA
ATOM     17  C   UNL     1      17.483   5.969  19.234  0.00  0.00    +0.194 C 
ENDBRANCH  14   4
ENDBRANCH  13  14
TORSDOF 4
ENDMDL
MODEL 7
REMARK VINA RESULT:      -4.8     25.625     27.851
REMARK  Name = 75536904
REMARK  5 active torsions:
REMARK  status: ('A' for Active; 'I' for Inactive)
REMARK    1  A    between atoms: O_2  and  C_8
REMARK    2  A    between atoms: O_2  and  C_15
REMARK    3  A    between atoms: O_4  and  C_14
REMARK    4  A    between atoms: O_4  and  C_17
REMARK    5  A    between atoms: C_13  and  C_14
REMARK                            x       y       z     vdW  Elec       q    Type
REMARK                         _______ _______ _______ _____ _____    ______ ____
ROOT
ATOM      1  O   UNL     1      -5.971 -12.170  19.372  0.00  0.00    -0.375 OA
ATOM      3  O   UNL     1     -10.254 -10.217  17.979  0.00  0.00    -0.273 OA
ATOM      5  N   UNL     1      -7.994 -10.588  17.542  0.00  0.00    -0.294 N 
ATOM      8  C   UNL     1      -5.455 -10.855  17.379  0.00  0.00    +0.218 C 
ATOM      9  C   UNL     1      -6.725 -10.087  17.004  0.00  0.00    +0.154 C 
ATOM     10  C   UNL     1      -8.037 -11.949  18.084  0.00  0.00    +0.136 C 
ATOM     11  C   UNL     1      -5.280 -11.024  18.886  0.00  0.00    +0.206 C 
ATOM     12  C   UNL     1      -7.384 -12.019  19.457  0.00  0.00    +0.179 C 
ATOM     13  C   UNL     1      -9.168  -9.823  17.546  0.00  0.00    +0.241 C 
ENDROOT
BRANCH   8   2
ATOM      2  O   UNL     1      -4.336 -10.112  16.891  0.00  0.00    -0.468 OA
BRANCH   2  15
ATOM      6  N   UNL     1      -2.167 -10.384  16.101  0.00  0.00    -0.219 NA
ATOM      7  N   UNL     1      -3.041 -12.538  14.533  0.00  0.00    -0.256 NA
ATOM     15  C   UNL     1      -3.453 -10.788  16.098  0.00  0.00    +0.234 A 
ATOM     16  C   UNL     1      -3.882 -11.847  15.328  0.00  0.00    +0.177 A 
ATOM     18  C   UNL     1      -1.327 -11.075  15.308  0.00  0.00    +0.134 A 
ATOM     19  C   UNL     1      -1.755 -12.134  14.537  0.00  0.00    +0.130 A 
ENDBRANCH   2  15
ENDBRANCH   8   2
BRANCH  13  14
ATOM     14  C   UNL     1      -9.061  -8.425  16.984  0.00  0.00    +0.255 C 
BRANCH  14   4
ATOM      4  O   UNL     1     -10.133  -7.693  17.526  0.00  0.00    -0.374 OA
ATOM     17  C   UNL     1     -10.868  -6.997  16.520  0.00  0.00    +0.194 C 
ENDBRANCH  14   4
ENDBRANCH  13  14
TORSDOF 4
ENDMDL
MODEL 8
REMARK VINA RESULT:      -4.8      3.544      5.969
REMARK  Name = 75536904
REMARK  5 active torsions:
REMARK  status: ('A' for Active; 'I' for Inactive)
REMARK    1  A    between atoms: O_2  and  C_8
REMARK    2  A    between atoms: O_2  and  C_15
REMARK    3  A    between atoms: O_4  and  C_14
REMARK    4  A    between atoms: O_4  and  C_17
REMARK    5  A    between atoms: C_13  and  C_14
REMARK                            x       y       z     vdW  Elec       q    Type
REMARK                         _______ _______ _______ _____ _____    ______ ____
ROOT
ATOM      1  O   UNL     1      14.456   7.939  17.459  0.00  0.00    -0.375 OA
ATOM      3  O   UNL     1      10.543   8.828  20.286  0.00  0.00    -0.273 OA
ATOM      5  N   UNL     1      12.820   8.355  20.122  0.00  0.00    -0.294 N 
ATOM      8  C   UNL     1      15.222   7.561  19.747  0.00  0.00    +0.218 C 
ATOM      9  C   UNL     1      13.994   7.659  20.656  0.00  0.00    +0.154 C 
ATOM     10  C   UNL     1      12.988   9.211  18.943  0.00  0.00    +0.136 C 
ATOM     11  C   UNL     1      14.910   6.955  18.382  0.00  0.00    +0.206 C 
ATOM     12  C   UNL     1      13.121   8.382  17.673  0.00  0.00    +0.179 C 
ATOM     13  C   UNL     1      11.549   8.247  20.701  0.00  0.00    +0.241 C 
ENDROOT
BRANCH   8   2
ATOM      2  O   UNL     1      16.176   6.714  20.392  0.00  0.00    -0.468 OA
BRANCH   2  15
ATOM      6  N   UNL     1      18.298   6.542  21.324  0.00  0.00    -0.219 NA
ATOM      7  N   UNL     1      18.405   9.337  21.522  0.00  0.00    -0.256 NA
ATOM     15  C   UNL     1      17.280   7.325  20.915  0.00  0.00    +0.234 A 
ATOM     16  C   UNL     1      17.333   8.699  21.012  0.00  0.00    +0.177 A 
ATOM     18  C   UNL     1      19.369   7.180  21.833  0.00  0.00    +0.134 A 
ATOM     19  C   UNL     1      19.422   8.553  21.931  0.00  0.00    +0.130 A 
ENDBRANCH   2  15
ENDBRANCH   8   2
BRANCH  13  14
ATOM     14  C   UNL     1      11.434   7.345  21.907  0.00  0.00    +0.255 C 
BRANCH  14   4
ATOM      4  O   UNL     1      10.422   6.413  21.614  0.00  0.00    -0.374 OA
ATOM     17  C   UNL     1      10.918   5.075  21.589  0.00  0.00    +0.194 C 
ENDBRANCH  14   4
ENDBRANCH  13  14
TORSDOF 4
ENDMDL
MODEL 9
REMARK VINA RESULT:      -4.7      2.436      6.071
REMARK  Name = 75536904
REMARK  5 active torsions:
REMARK  status: ('A' for Active; 'I' for Inactive)
REMARK    1  A    between atoms: O_2  and  C_8
REMARK    2  A    between atoms: O_2  and  C_15
REMARK    3  A    between atoms: O_4  and  C_14
REMARK    4  A    between atoms: O_4  and  C_17
REMARK    5  A    between atoms: C_13  and  C_14
REMARK                            x       y       z     vdW  Elec       q    Type
REMARK                         _______ _______ _______ _____ _____    ______ ____
ROOT
ATOM      1  O   UNL     1      11.741   6.391  20.273  0.00  0.00    -0.375 OA
ATOM      3  O   UNL     1      10.859  10.097  23.369  0.00  0.00    -0.273 OA
ATOM      5  N   UNL     1      11.838   9.337  21.395  0.00  0.00    -0.294 N 
ATOM      8  C   UNL     1      13.068   8.260  19.427  0.00  0.00    +0.218 C 
ATOM      9  C   UNL     1      12.962   9.390  20.455  0.00  0.00    +0.154 C 
ATOM     10  C   UNL     1      10.710   8.452  21.089  0.00  0.00    +0.136 C 
ATOM     11  C   UNL     1      13.065   6.872  20.061  0.00  0.00    +0.206 C 
ATOM     12  C   UNL     1      11.058   6.996  21.365  0.00  0.00    +0.179 C 
ATOM     13  C   UNL     1      11.793  10.107  22.564  0.00  0.00    +0.241 C 
ENDROOT
BRANCH   8   2
ATOM      2  O   UNL     1      14.307   8.418  18.732  0.00  0.00    -0.468 OA
BRANCH   2  15
ATOM      6  N   UNL     1      16.041   8.586  20.270  0.00  0.00    -0.219 NA
ATOM      7  N   UNL     1      16.935   6.043  19.495  0.00  0.00    -0.256 NA
ATOM     15  C   UNL     1      15.411   7.868  19.320  0.00  0.00    +0.234 A 
ATOM     16  C   UNL     1      15.850   6.618  18.939  0.00  0.00    +0.177 A 
ATOM     18  C   UNL     1      17.125   8.011  20.826  0.00  0.00    +0.134 A 
ATOM     19  C   UNL     1      17.565   6.762  20.446  0.00  0.00    +0.130 A 
ENDBRANCH   2  15
ENDBRANCH   8   2
BRANCH  13  14
ATOM     14  C   UNL     1      12.987  10.992  22.831  0.00  0.00    +0.255 C 
BRANCH  14   4
ATOM      4  O   UNL     1      12.578  11.938  23.789  0.00  0.00    -0.374 OA
ATOM     17  C   UNL     1      13.447  11.964  24.921  0.00  0.00    +0.194 C 
ENDBRANCH  14   4
ENDBRANCH  13  14
TORSDOF 4
ENDMDL
MODEL 10
REMARK VINA RESULT:      -4.5     26.031     27.993
REMARK  Name = 75536904
REMARK  5 active torsions:
REMARK  status: ('A' for Active; 'I' for Inactive)
REMARK    1  A    between atoms: O_2  and  C_8
REMARK    2  A    between atoms: O_2  and  C_15
REMARK    3  A    between atoms: O_4  and  C_14
REMARK    4  A    between atoms: O_4  and  C_17
REMARK    5  A    between atoms: C_13  and  C_14
REMARK                            x       y       z     vdW  Elec       q    Type
REMARK                         _______ _______ _______ _____ _____    ______ ____
ROOT
ATOM      1  O   UNL     1      -8.442 -11.736  18.871  0.00  0.00    -0.375 OA
ATOM      3  O   UNL     1      -3.533 -11.814  18.849  0.00  0.00    -0.273 OA
ATOM      5  N   UNL     1      -5.518 -10.876  18.062  0.00  0.00    -0.294 N 
ATOM      8  C   UNL     1      -7.786 -10.174  17.111  0.00  0.00    +0.218 C 
ATOM      9  C   UNL     1      -6.268 -10.290  16.947  0.00  0.00    +0.154 C 
ATOM     10  C   UNL     1      -6.172 -10.979  19.370  0.00  0.00    +0.136 C 
ATOM     11  C   UNL     1      -8.453 -11.500  17.467  0.00  0.00    +0.206 C 
ATOM     12  C   UNL     1      -7.177 -12.121  19.398  0.00  0.00    +0.179 C 
ATOM     13  C   UNL     1      -4.198 -11.328  17.931  0.00  0.00    +0.241 C 
ENDROOT
BRANCH   8   2
ATOM      2  O   UNL     1      -8.326  -9.736  15.862  0.00  0.00    -0.468 OA
BRANCH   2  15
ATOM      6  N   UNL     1     -10.169  -8.754  14.841  0.00  0.00    -0.219 NA
ATOM      7  N   UNL     1     -10.614  -7.246  17.163  0.00  0.00    -0.256 NA
ATOM     15  C   UNL     1      -9.374  -8.860  15.924  0.00  0.00    +0.234 A 
ATOM     16  C   UNL     1      -9.592  -8.120  17.065  0.00  0.00    +0.177 A 
ATOM     18  C   UNL     1     -11.190  -7.881  14.940  0.00  0.00    +0.134 A 
ATOM     19  C   UNL     1     -11.410  -7.140  16.080  0.00  0.00    +0.130 A 
ENDBRANCH   2  15
ENDBRANCH   8   2
BRANCH  13  14
ATOM     14  C   UNL     1      -3.580 -11.205  16.558  0.00  0.00    +0.255 C 
BRANCH  14   4
ATOM      4  O   UNL     1      -2.254 -10.780  16.753  0.00  0.00    -0.374 OA
ATOM     17  C   UNL     1      -1.450 -10.978  15.590  0.00  0.00    +0.194 C 
ENDBRANCH  14   4
ENDBRANCH  13  14
TORSDOF 4
ENDMDL
