MODEL 1
REMARK VINA RESULT:      -8.1      0.000      0.000
REMARK  Name = 40780200
REMARK  5 active torsions:
REMARK  status: ('A' for Active; 'I' for Inactive)
REMARK    1  A    between atoms: N_4  and  C_14
REMARK    2  A    between atoms: N_6  and  C_21
REMARK    3  A    between atoms: N_7  and  C_29
REMARK    4  A    between atoms: C_9  and  C_14
REMARK    5  A    between atoms: C_11  and  C_21
REMARK                            x       y       z     vdW  Elec       q    Type
REMARK                         _______ _______ _______ _____ _____    ______ ____
ROOT
ATOM      3  N   UNL     1     -11.255  -9.320  16.889  0.00  0.00    -0.298 NA
ATOM      8  C   UNL     1      -9.302 -10.165  15.394  0.00  0.00    -0.003 C 
ATOM      9  C   UNL     1      -8.929 -10.253  16.892  0.00  0.00    +0.020 C 
ATOM     10  C   UNL     1      -9.678  -8.713  15.047  0.00  0.00    +0.024 C 
ATOM     11  C   UNL     1     -10.931  -8.303  15.853  0.00  0.00    +0.074 C 
ATOM     12  C   UNL     1     -10.062  -9.608  17.721  0.00  0.00    +0.089 C 
ATOM     13  C   UNL     1     -10.567 -11.023  15.197  0.00  0.00    +0.019 C 
ATOM     15  C   UNL     1     -11.647 -10.570  16.194  0.00  0.00    +0.085 C 
ENDROOT
BRANCH   9  14
ATOM     14  C   UNL     1      -7.579  -9.634  17.211  0.00  0.00    +0.089 C 
BRANCH  14   4
ATOM      1  O   UNL     1      -4.113 -13.095  13.485  0.00  0.00    -0.268 OA
ATOM      4  N   UNL     1      -6.511 -10.630  17.141  0.00  0.00    -0.301 NA
ATOM      5  N   UNL     1      -4.203 -12.271  15.674  0.00  0.00    -0.312 N 
ATOM     16  C   UNL     1      -5.922 -13.052  17.404  0.00  0.00    +0.024 C 
ATOM     17  C   UNL     1      -4.280 -11.339  18.013  0.00  0.00    +0.050 C 
ATOM     18  C   UNL     1      -7.028 -11.977  17.414  0.00  0.00    +0.089 C 
ATOM     19  C   UNL     1      -5.408 -10.283  18.049  0.00  0.00    +0.094 C 
ATOM     20  C   UNL     1      -4.842 -12.699  18.418  0.00  0.00    +0.017 C 
ATOM     22  C   UNL     1      -5.271 -13.215  16.024  0.00  0.00    +0.130 C 
ATOM     23  C   UNL     1      -3.658 -11.406  16.630  0.00  0.00    +0.026 A 
ATOM     24  C   UNL     1      -2.607 -10.628  16.317  0.00  0.00    +0.022 A 
ATOM     25  C   UNL     1      -3.690 -12.347  14.366  0.00  0.00    +0.251 A 
ATOM     26  C   UNL     1      -2.041 -10.656  14.998  0.00  0.00    +0.007 A 
ATOM     27  C   UNL     1      -2.540 -11.453  14.051  0.00  0.00    +0.070 A 
ENDBRANCH  14   4
ENDBRANCH   9  14
BRANCH  11  21
ATOM     21  C   UNL     1     -10.794  -6.896  16.439  0.00  0.00    +0.124 C 
BRANCH  21   6
ATOM      2  O   UNL     1     -13.051  -6.315  14.774  0.00  0.00    -0.253 OA
ATOM      6  N   UNL     1     -10.865  -5.891  15.391  0.00  0.00    -0.298 N 
ATOM      7  N   UNL     1     -11.784  -4.655  13.702  0.00  0.00    -0.269 N 
ATOM     28  C   UNL     1     -12.010  -5.677  14.627  0.00  0.00    +0.304 C 
ATOM     35  H   UNL     1     -10.040  -5.328  15.209  0.00  0.00    +0.150 HD
ATOM     36  H   UNL     1     -10.862  -4.227  13.711  0.00  0.00    +0.156 HD
BRANCH   7  29
ATOM     29  C   UNL     1     -12.687  -4.134  12.745  0.00  0.00    +0.035 A 
ATOM     30  C   UNL     1     -12.305  -4.037  11.406  0.00  0.00    +0.023 A 
ATOM     31  C   UNL     1     -13.958  -3.718  13.140  0.00  0.00    +0.023 A 
ATOM     32  C   UNL     1     -13.195  -3.524  10.463  0.00  0.00    +0.002 A 
ATOM     33  C   UNL     1     -14.848  -3.204  12.196  0.00  0.00    +0.002 A 
ATOM     34  C   UNL     1     -14.466  -3.108  10.858  0.00  0.00    +0.000 A 
ENDBRANCH   7  29
ENDBRANCH  21   6
ENDBRANCH  11  21
TORSDOF 5
ENDMDL
MODEL 2
REMARK VINA RESULT:      -8.0     26.015     29.575
REMARK  Name = 40780200
REMARK  5 active torsions:
REMARK  status: ('A' for Active; 'I' for Inactive)
REMARK    1  A    between atoms: N_4  and  C_14
REMARK    2  A    between atoms: N_6  and  C_21
REMARK    3  A    between atoms: N_7  and  C_29
REMARK    4  A    between atoms: C_9  and  C_14
REMARK    5  A    between atoms: C_11  and  C_21
REMARK                            x       y       z     vdW  Elec       q    Type
REMARK                         _______ _______ _______ _____ _____    ______ ____
ROOT
ATOM      3  N   UNL     1      12.081   5.299   0.072  0.00  0.00    -0.298 NA
ATOM      8  C   UNL     1      11.036   4.354   2.258  0.00  0.00    -0.003 C 
ATOM      9  C   UNL     1      11.076   5.900   2.288  0.00  0.00    +0.020 C 
ATOM     10  C   UNL     1      12.460   3.812   2.045  0.00  0.00    +0.024 C 
ATOM     11  C   UNL     1      12.986   4.280   0.669  0.00  0.00    +0.074 C 
ATOM     12  C   UNL     1      11.833   6.397   1.037  0.00  0.00    +0.089 C 
ATOM     13  C   UNL     1      10.205   3.952   1.024  0.00  0.00    +0.019 C 
ATOM     15  C   UNL     1      10.785   4.641  -0.224  0.00  0.00    +0.085 C 
ENDROOT
BRANCH   9  14
ATOM     14  C   UNL     1      11.677   6.459   3.566  0.00  0.00    +0.089 C 
BRANCH  14   4
ATOM      1  O   UNL     1      10.327   9.868   8.509  0.00  0.00    -0.268 OA
ATOM      4  N   UNL     1      10.635   6.839   4.518  0.00  0.00    -0.301 NA
ATOM      5  N   UNL     1       9.318   8.704   6.746  0.00  0.00    -0.312 N 
ATOM     16  C   UNL     1       9.338   6.151   6.550  0.00  0.00    +0.024 C 
ATOM     17  C   UNL     1       8.241   7.493   4.818  0.00  0.00    +0.050 C 
ATOM     18  C   UNL     1      10.468   5.813   5.555  0.00  0.00    +0.089 C 
ATOM     19  C   UNL     1       9.367   7.117   3.827  0.00  0.00    +0.094 C 
ATOM     20  C   UNL     1       8.025   6.346   5.802  0.00  0.00    +0.017 C 
ATOM     22  C   UNL     1       9.634   7.414   7.371  0.00  0.00    +0.130 C 
ATOM     23  C   UNL     1       8.588   8.774   5.554  0.00  0.00    +0.026 A 
ATOM     24  C   UNL     1       8.216   9.967   5.058  0.00  0.00    +0.022 A 
ATOM     25  C   UNL     1       9.698   9.861   7.450  0.00  0.00    +0.251 A 
ATOM     26  C   UNL     1       8.577  11.185   5.727  0.00  0.00    +0.007 A 
ATOM     27  C   UNL     1       9.288  11.165   6.857  0.00  0.00    +0.070 A 
ENDBRANCH  14   4
ENDBRANCH   9  14
BRANCH  11  21
ATOM     21  C   UNL     1      14.436   4.761   0.749  0.00  0.00    +0.124 C 
BRANCH  21   6
ATOM      2  O   UNL     1      15.093   7.374   1.719  0.00  0.00    -0.253 OA
ATOM      6  N   UNL     1      14.787   5.118   2.113  0.00  0.00    -0.298 N 
ATOM      7  N   UNL     1      15.391   6.461   3.861  0.00  0.00    -0.269 N 
ATOM     28  C   UNL     1      15.094   6.422   2.496  0.00  0.00    +0.304 C 
ATOM     35  H   UNL     1      14.813   4.381   2.811  0.00  0.00    +0.150 HD
ATOM     36  H   UNL     1      15.346   5.578   4.364  0.00  0.00    +0.156 HD
BRANCH   7  29
ATOM     29  C   UNL     1      15.751   7.587   4.640  0.00  0.00    +0.035 A 
ATOM     30  C   UNL     1      14.811   8.181   5.483  0.00  0.00    +0.023 A 
ATOM     31  C   UNL     1      17.045   8.101   4.565  0.00  0.00    +0.023 A 
ATOM     32  C   UNL     1      15.166   9.290   6.250  0.00  0.00    +0.002 A 
ATOM     33  C   UNL     1      17.399   9.211   5.333  0.00  0.00    +0.002 A 
ATOM     34  C   UNL     1      16.460   9.805   6.175  0.00  0.00    +0.000 A 
ENDBRANCH   7  29
ENDBRANCH  21   6
ENDBRANCH  11  21
TORSDOF 5
ENDMDL
MODEL 3
REMARK VINA RESULT:      -8.0      3.489      6.034
REMARK  Name = 40780200
REMARK  5 active torsions:
REMARK  status: ('A' for Active; 'I' for Inactive)
REMARK    1  A    between atoms: N_4  and  C_14
REMARK    2  A    between atoms: N_6  and  C_21
REMARK    3  A    between atoms: N_7  and  C_29
REMARK    4  A    between atoms: C_9  and  C_14
REMARK    5  A    between atoms: C_11  and  C_21
REMARK                            x       y       z     vdW  Elec       q    Type
REMARK                         _______ _______ _______ _____ _____    ______ ____
ROOT
ATOM      3  N   UNL     1      -9.463  -8.267  15.874  0.00  0.00    -0.298 NA
ATOM      8  C   UNL     1     -11.914  -8.467  16.722  0.00  0.00    -0.003 C 
ATOM      9  C   UNL     1     -10.913  -8.887  17.823  0.00  0.00    +0.020 C 
ATOM     10  C   UNL     1     -11.688  -9.333  15.470  0.00  0.00    +0.024 C 
ATOM     11  C   UNL     1     -10.269  -9.073  14.917  0.00  0.00    +0.074 C 
ATOM     12  C   UNL     1      -9.490  -8.886  17.221  0.00  0.00    +0.089 C 
ATOM     13  C   UNL     1     -11.574  -7.013  16.339  0.00  0.00    +0.019 C 
ATOM     15  C   UNL     1     -10.082  -6.922  15.971  0.00  0.00    +0.085 C 
ENDROOT
BRANCH   9  14
ATOM     14  C   UNL     1     -11.251 -10.223  18.462  0.00  0.00    +0.089 C 
BRANCH  14   4
ATOM      1  O   UNL     1      -5.886 -11.429  15.699  0.00  0.00    -0.268 OA
ATOM      4  N   UNL     1     -10.127 -11.152  18.370  0.00  0.00    -0.301 NA
ATOM      5  N   UNL     1      -7.154 -11.999  17.582  0.00  0.00    -0.312 N 
ATOM     16  C   UNL     1      -9.328 -13.347  17.460  0.00  0.00    +0.024 C 
ATOM     17  C   UNL     1      -8.502 -12.570  19.632  0.00  0.00    +0.050 C 
ATOM     18  C   UNL     1     -10.471 -12.313  17.539  0.00  0.00    +0.089 C 
ATOM     19  C   UNL     1      -9.672 -11.562  19.707  0.00  0.00    +0.094 C 
ATOM     20  C   UNL     1      -8.946 -13.810  18.860  0.00  0.00    +0.017 C 
ATOM     22  C   UNL     1      -8.078 -12.793  16.763  0.00  0.00    +0.130 C 
ATOM     23  C   UNL     1      -7.293 -11.932  18.973  0.00  0.00    +0.026 A 
ATOM     24  C   UNL     1      -6.372 -11.290  19.714  0.00  0.00    +0.022 A 
ATOM     25  C   UNL     1      -6.073 -11.394  16.916  0.00  0.00    +0.251 A 
ATOM     26  C   UNL     1      -5.248 -10.648  19.094  0.00  0.00    +0.007 A 
ATOM     27  C   UNL     1      -5.087 -10.673  17.768  0.00  0.00    +0.070 A 
ENDBRANCH  14   4
ENDBRANCH   9  14
BRANCH  11  21
ATOM     21  C   UNL     1      -9.568 -10.372  14.515  0.00  0.00    +0.124 C 
BRANCH  21   6
ATOM      2  O   UNL     1      -8.279 -10.019  11.983  0.00  0.00    -0.253 OA
ATOM      6  N   UNL     1      -8.151 -10.146  14.286  0.00  0.00    -0.298 N 
ATOM      7  N   UNL     1      -6.229  -9.784  13.102  0.00  0.00    -0.269 N 
ATOM     28  C   UNL     1      -7.609  -9.984  13.013  0.00  0.00    +0.304 C 
ATOM     35  H   UNL     1      -7.534 -10.110  15.092  0.00  0.00    +0.150 HD
ATOM     36  H   UNL     1      -5.828  -9.784  14.037  0.00  0.00    +0.156 HD
BRANCH   7  29
ATOM     29  C   UNL     1      -5.311  -9.579  12.046  0.00  0.00    +0.035 A 
ATOM     30  C   UNL     1      -5.577  -8.622  11.066  0.00  0.00    +0.023 A 
ATOM     31  C   UNL     1      -4.139 -10.334  11.985  0.00  0.00    +0.023 A 
ATOM     32  C   UNL     1      -4.671  -8.421  10.025  0.00  0.00    +0.002 A 
ATOM     33  C   UNL     1      -3.234 -10.132  10.943  0.00  0.00    +0.002 A 
ATOM     34  C   UNL     1      -3.500  -9.175   9.964  0.00  0.00    +0.000 A 
ENDBRANCH   7  29
ENDBRANCH  21   6
ENDBRANCH  11  21
TORSDOF 5
ENDMDL
MODEL 4
REMARK VINA RESULT:      -7.9      4.744      7.410
REMARK  Name = 40780200
REMARK  5 active torsions:
REMARK  status: ('A' for Active; 'I' for Inactive)
REMARK    1  A    between atoms: N_4  and  C_14
REMARK    2  A    between atoms: N_6  and  C_21
REMARK    3  A    between atoms: N_7  and  C_29
REMARK    4  A    between atoms: C_9  and  C_14
REMARK    5  A    between atoms: C_11  and  C_21
REMARK                            x       y       z     vdW  Elec       q    Type
REMARK                         _______ _______ _______ _____ _____    ______ ____
ROOT
ATOM      3  N   UNL     1      -5.393  -9.375  10.019  0.00  0.00    -0.298 NA
ATOM      8  C   UNL     1      -3.533 -10.711  11.252  0.00  0.00    -0.003 C 
ATOM      9  C   UNL     1      -4.255 -11.600  10.213  0.00  0.00    +0.020 C 
ATOM     10  C   UNL     1      -4.564 -10.149  12.247  0.00  0.00    +0.024 C 
ATOM     11  C   UNL     1      -5.564  -9.245  11.491  0.00  0.00    +0.074 C 
ATOM     12  C   UNL     1      -5.436 -10.802   9.618  0.00  0.00    +0.089 C 
ATOM     13  C   UNL     1      -2.942  -9.513  10.482  0.00  0.00    +0.019 C 
ATOM     15  C   UNL     1      -4.057  -8.836   9.666  0.00  0.00    +0.085 C 
ENDROOT
BRANCH   9  14
ATOM     14  C   UNL     1      -4.708 -12.935  10.779  0.00  0.00    +0.089 C 
BRANCH  14   4
ATOM      1  O   UNL     1      -0.915 -10.780  15.119  0.00  0.00    -0.268 OA
ATOM      4  N   UNL     1      -4.041 -13.225  12.047  0.00  0.00    -0.301 NA
ATOM      5  N   UNL     1      -2.516 -12.444  14.737  0.00  0.00    -0.312 N 
ATOM     16  C   UNL     1      -2.140 -14.424  13.156  0.00  0.00    +0.024 C 
ATOM     17  C   UNL     1      -4.276 -14.200  14.336  0.00  0.00    +0.050 C 
ATOM     18  C   UNL     1      -2.844 -14.048  11.836  0.00  0.00    +0.089 C 
ATOM     19  C   UNL     1      -4.969 -13.857  12.997  0.00  0.00    +0.094 C 
ATOM     20  C   UNL     1      -3.110 -15.152  14.077  0.00  0.00    +0.017 C 
ATOM     22  C   UNL     1      -1.580 -13.200  13.895  0.00  0.00    +0.130 C 
ATOM     23  C   UNL     1      -3.794 -12.936  15.023  0.00  0.00    +0.026 A 
ATOM     24  C   UNL     1      -4.593 -12.282  15.885  0.00  0.00    +0.022 A 
ATOM     25  C   UNL     1      -2.032 -11.258  15.318  0.00  0.00    +0.251 A 
ATOM     26  C   UNL     1      -4.159 -11.064  16.507  0.00  0.00    +0.007 A 
ATOM     27  C   UNL     1      -2.954 -10.549  16.249  0.00  0.00    +0.070 A 
ENDBRANCH  14   4
ENDBRANCH   9  14
BRANCH  11  21
ATOM     21  C   UNL     1      -7.006  -9.497  11.935  0.00  0.00    +0.124 C 
BRANCH  21   6
ATOM      2  O   UNL     1      -7.583 -11.332  14.057  0.00  0.00    -0.253 OA
ATOM      6  N   UNL     1      -7.177  -9.173  13.342  0.00  0.00    -0.298 N 
ATOM      7  N   UNL     1      -7.568  -9.533  15.565  0.00  0.00    -0.269 N 
ATOM     28  C   UNL     1      -7.458 -10.136  14.309  0.00  0.00    +0.304 C 
ATOM     35  H   UNL     1      -7.092  -8.202  13.624  0.00  0.00    +0.150 HD
ATOM     36  H   UNL     1      -7.435  -8.525  15.601  0.00  0.00    +0.156 HD
BRANCH   7  29
ATOM     29  C   UNL     1      -7.843 -10.155  16.806  0.00  0.00    +0.035 A 
ATOM     30  C   UNL     1      -8.987 -10.941  16.954  0.00  0.00    +0.023 A 
ATOM     31  C   UNL     1      -6.970  -9.984  17.880  0.00  0.00    +0.023 A 
ATOM     32  C   UNL     1      -9.258 -11.553  18.177  0.00  0.00    +0.002 A 
ATOM     33  C   UNL     1      -7.242 -10.598  19.104  0.00  0.00    +0.002 A 
ATOM     34  C   UNL     1      -8.385 -11.382  19.251  0.00  0.00    +0.000 A 
ENDBRANCH   7  29
ENDBRANCH  21   6
ENDBRANCH  11  21
TORSDOF 5
ENDMDL
MODEL 5
REMARK VINA RESULT:      -7.7     26.320     29.345
REMARK  Name = 40780200
REMARK  5 active torsions:
REMARK  status: ('A' for Active; 'I' for Inactive)
REMARK    1  A    between atoms: N_4  and  C_14
REMARK    2  A    between atoms: N_6  and  C_21
REMARK    3  A    between atoms: N_7  and  C_29
REMARK    4  A    between atoms: C_9  and  C_14
REMARK    5  A    between atoms: C_11  and  C_21
REMARK                            x       y       z     vdW  Elec       q    Type
REMARK                         _______ _______ _______ _____ _____    ______ ____
ROOT
ATOM      3  N   UNL     1      14.808   9.554   4.050  0.00  0.00    -0.298 NA
ATOM      8  C   UNL     1      15.041   7.447   5.557  0.00  0.00    -0.003 C 
ATOM      9  C   UNL     1      13.555   7.743   5.247  0.00  0.00    +0.020 C 
ATOM     10  C   UNL     1      15.677   8.679   6.225  0.00  0.00    +0.024 C 
ATOM     11  C   UNL     1      15.646   9.868   5.238  0.00  0.00    +0.074 C 
ATOM     12  C   UNL     1      13.469   9.078   4.474  0.00  0.00    +0.089 C 
ATOM     13  C   UNL     1      15.749   7.245   4.203  0.00  0.00    +0.019 C 
ATOM     15  C   UNL     1      15.472   8.460   3.300  0.00  0.00    +0.085 C 
ENDROOT
BRANCH   9  14
ATOM     14  C   UNL     1      12.675   7.753   6.485  0.00  0.00    +0.089 C 
BRANCH  14   4
ATOM      1  O   UNL     1       7.208  10.132   4.962  0.00  0.00    -0.268 OA
ATOM      4  N   UNL     1      11.285   7.455   6.148  0.00  0.00    -0.301 NA
ATOM      5  N   UNL     1       8.415   8.127   4.928  0.00  0.00    -0.312 N 
ATOM     16  C   UNL     1       9.031   6.818   7.041  0.00  0.00    +0.024 C 
ATOM     17  C   UNL     1       9.738   5.985   4.848  0.00  0.00    +0.050 C 
ATOM     18  C   UNL     1      10.495   7.191   7.357  0.00  0.00    +0.089 C 
ATOM     19  C   UNL     1      11.202   6.337   5.196  0.00  0.00    +0.094 C 
ATOM     20  C   UNL     1       8.989   5.604   6.123  0.00  0.00    +0.017 C 
ATOM     22  C   UNL     1       8.259   7.967   6.379  0.00  0.00    +0.130 C 
ATOM     23  C   UNL     1       9.061   7.154   4.157  0.00  0.00    +0.026 A 
ATOM     24  C   UNL     1       9.095   7.267   2.817  0.00  0.00    +0.022 A 
ATOM     25  C   UNL     1       7.802   9.250   4.343  0.00  0.00    +0.251 A 
ATOM     26  C   UNL     1       8.493   8.391   2.160  0.00  0.00    +0.007 A 
ATOM     27  C   UNL     1       7.883   9.352   2.858  0.00  0.00    +0.070 A 
ENDBRANCH  14   4
ENDBRANCH   9  14
BRANCH  11  21
ATOM     21  C   UNL     1      15.219  11.167   5.927  0.00  0.00    +0.124 C 
BRANCH  21   6
ATOM      2  O   UNL     1      12.567  12.022   6.584  0.00  0.00    -0.253 OA
ATOM      6  N   UNL     1      14.495  10.885   7.155  0.00  0.00    -0.298 N 
ATOM      7  N   UNL     1      12.765  10.922   8.648  0.00  0.00    -0.269 N 
ATOM     28  C   UNL     1      13.201  11.345   7.390  0.00  0.00    +0.304 C 
ATOM     35  H   UNL     1      14.959  10.335   7.871  0.00  0.00    +0.150 HD
ATOM     36  H   UNL     1      13.417  10.365   9.194  0.00  0.00    +0.156 HD
BRANCH   7  29
ATOM     29  C   UNL     1      11.516  11.174   9.264  0.00  0.00    +0.035 A 
ATOM     30  C   UNL     1      11.446  11.999  10.387  0.00  0.00    +0.023 A 
ATOM     31  C   UNL     1      10.355  10.598   8.748  0.00  0.00    +0.023 A 
ATOM     32  C   UNL     1      10.215  12.246  10.994  0.00  0.00    +0.002 A 
ATOM     33  C   UNL     1       9.124  10.846   9.356  0.00  0.00    +0.002 A 
ATOM     34  C   UNL     1       9.054  11.670  10.478  0.00  0.00    +0.000 A 
ENDBRANCH   7  29
ENDBRANCH  21   6
ENDBRANCH  11  21
TORSDOF 5
ENDMDL
MODEL 6
REMARK VINA RESULT:      -7.6     25.437     28.796
REMARK  Name = 40780200
REMARK  5 active torsions:
REMARK  status: ('A' for Active; 'I' for Inactive)
REMARK    1  A    between atoms: N_4  and  C_14
REMARK    2  A    between atoms: N_6  and  C_21
REMARK    3  A    between atoms: N_7  and  C_29
REMARK    4  A    between atoms: C_9  and  C_14
REMARK    5  A    between atoms: C_11  and  C_21
REMARK                            x       y       z     vdW  Elec       q    Type
REMARK                         _______ _______ _______ _____ _____    ______ ____
ROOT
ATOM      3  N   UNL     1      13.990   7.159   5.837  0.00  0.00    -0.298 NA
ATOM      8  C   UNL     1      14.311   9.661   5.205  0.00  0.00    -0.003 C 
ATOM      9  C   UNL     1      13.221   9.501   6.291  0.00  0.00    +0.020 C 
ATOM     10  C   UNL     1      13.928   8.823   3.972  0.00  0.00    +0.024 C 
ATOM     11  C   UNL     1      13.891   7.328   4.362  0.00  0.00    +0.074 C 
ATOM     12  C   UNL     1      12.973   7.994   6.521  0.00  0.00    +0.089 C 
ATOM     13  C   UNL     1      15.608   9.061   5.781  0.00  0.00    +0.019 C 
ATOM     15  C   UNL     1      15.333   7.625   6.260  0.00  0.00    +0.085 C 
ENDROOT
BRANCH   9  14
ATOM     14  C   UNL     1      11.934  10.238   5.961  0.00  0.00    +0.089 C 
BRANCH  14   4
ATOM      1  O   UNL     1      10.168   4.367   5.426  0.00  0.00    -0.268 OA
ATOM      4  N   UNL     1      10.796   9.322   5.925  0.00  0.00    -0.301 NA
ATOM      5  N   UNL     1       9.400   6.461   6.135  0.00  0.00    -0.312 N 
ATOM     16  C   UNL     1       8.924   8.403   4.534  0.00  0.00    +0.024 C 
ATOM     17  C   UNL     1       8.598   8.708   6.943  0.00  0.00    +0.050 C 
ATOM     18  C   UNL     1      10.165   9.317   4.599  0.00  0.00    +0.089 C 
ATOM     19  C   UNL     1       9.826   9.647   6.982  0.00  0.00    +0.094 C 
ATOM     20  C   UNL     1       7.908   8.827   5.586  0.00  0.00    +0.017 C 
ATOM     22  C   UNL     1       9.270   6.923   4.747  0.00  0.00    +0.130 C 
ATOM     23  C   UNL     1       9.017   7.274   7.209  0.00  0.00    +0.026 A 
ATOM     24  C   UNL     1       9.041   6.791   8.463  0.00  0.00    +0.022 A 
ATOM     25  C   UNL     1       9.832   5.136   6.327  0.00  0.00    +0.251 A 
ATOM     26  C   UNL     1       9.476   5.449   8.725  0.00  0.00    +0.007 A 
ATOM     27  C   UNL     1       9.867   4.646   7.733  0.00  0.00    +0.070 A 
ENDBRANCH  14   4
ENDBRANCH   9  14
BRANCH  11  21
ATOM     21  C   UNL     1      12.670   6.618   3.773  0.00  0.00    +0.124 C 
BRANCH  21   6
ATOM      2  O   UNL     1      11.348   4.597   2.234  0.00  0.00    -0.253 OA
ATOM      6  N   UNL     1      12.871   6.329   2.363  0.00  0.00    -0.298 N 
ATOM      7  N   UNL     1      12.580   5.276   0.355  0.00  0.00    -0.269 N 
ATOM     28  C   UNL     1      12.181   5.321   1.694  0.00  0.00    +0.304 C 
ATOM     35  H   UNL     1      13.549   6.885   1.851  0.00  0.00    +0.150 HD
ATOM     36  H   UNL     1      13.284   5.950   0.066  0.00  0.00    +0.156 HD
BRANCH   7  29
ATOM     29  C   UNL     1      12.122   4.402  -0.659  0.00  0.00    +0.035 A 
ATOM     30  C   UNL     1      11.000   4.740  -1.417  0.00  0.00    +0.023 A 
ATOM     31  C   UNL     1      12.793   3.203  -0.901  0.00  0.00    +0.023 A 
ATOM     32  C   UNL     1      10.549   3.878  -2.416  0.00  0.00    +0.002 A 
ATOM     33  C   UNL     1      12.341   2.341  -1.901  0.00  0.00    +0.002 A 
ATOM     34  C   UNL     1      11.220   2.679  -2.658  0.00  0.00    +0.000 A 
ENDBRANCH   7  29
ENDBRANCH  21   6
ENDBRANCH  11  21
TORSDOF 5
ENDMDL
MODEL 7
REMARK VINA RESULT:      -7.6     26.118     29.570
REMARK  Name = 40780200
REMARK  5 active torsions:
REMARK  status: ('A' for Active; 'I' for Inactive)
REMARK    1  A    between atoms: N_4  and  C_14
REMARK    2  A    between atoms: N_6  and  C_21
REMARK    3  A    between atoms: N_7  and  C_29
REMARK    4  A    between atoms: C_9  and  C_14
REMARK    5  A    between atoms: C_11  and  C_21
REMARK                            x       y       z     vdW  Elec       q    Type
REMARK                         _______ _______ _______ _____ _____    ______ ____
ROOT
ATOM      3  N   UNL     1      15.709   8.826   5.693  0.00  0.00    -0.298 NA
ATOM      8  C   UNL     1      13.132   9.063   5.431  0.00  0.00    -0.003 C 
ATOM      9  C   UNL     1      13.483   8.073   6.566  0.00  0.00    +0.020 C 
ATOM     10  C   UNL     1      13.781   8.585   4.119  0.00  0.00    +0.024 C 
ATOM     11  C   UNL     1      15.319   8.598   4.276  0.00  0.00    +0.074 C 
ATOM     12  C   UNL     1      15.013   7.863   6.581  0.00  0.00    +0.089 C 
ATOM     13  C   UNL     1      13.781  10.412   5.796  0.00  0.00    +0.019 C 
ATOM     15  C   UNL     1      15.280  10.195   6.070  0.00  0.00    +0.085 C 
ENDROOT
BRANCH   9  14
ATOM     14  C   UNL     1      12.736   6.754   6.463  0.00  0.00    +0.089 C 
BRANCH  14   4
ATOM      1  O   UNL     1       8.452  10.923   5.003  0.00  0.00    -0.268 OA
ATOM      4  N   UNL     1      11.330   6.967   6.126  0.00  0.00    -0.301 NA
ATOM      5  N   UNL     1       8.881   8.623   4.928  0.00  0.00    -0.312 N 
ATOM     16  C   UNL     1       8.993   7.143   7.015  0.00  0.00    +0.024 C 
ATOM     17  C   UNL     1       9.371   6.156   4.805  0.00  0.00    +0.050 C 
ATOM     18  C   UNL     1      10.494   6.975   7.332  0.00  0.00    +0.089 C 
ATOM     19  C   UNL     1      10.865   5.967   5.154  0.00  0.00    +0.094 C 
ATOM     20  C   UNL     1       8.532   6.037   6.074  0.00  0.00    +0.017 C 
ATOM     22  C   UNL     1       8.675   8.502   6.376  0.00  0.00    +0.130 C 
ATOM     23  C   UNL     1       9.148   7.500   4.136  0.00  0.00    +0.026 A 
ATOM     24  C   UNL     1       9.224   7.618   2.799  0.00  0.00    +0.022 A 
ATOM     25  C   UNL     1       8.702   9.900   4.365  0.00  0.00    +0.251 A 
ATOM     26  C   UNL     1       9.055   8.894   2.164  0.00  0.00    +0.007 A 
ATOM     27  C   UNL     1       8.817   9.994   2.882  0.00  0.00    +0.070 A 
ENDBRANCH  14   4
ENDBRANCH   9  14
BRANCH  11  21
ATOM     21  C   UNL     1      15.960   7.339   3.689  0.00  0.00    +0.124 C 
BRANCH  21   6
ATOM      2  O   UNL     1      14.952   6.699   1.086  0.00  0.00    -0.253 OA
ATOM      6  N   UNL     1      14.949   6.345   3.369  0.00  0.00    -0.298 N 
ATOM      7  N   UNL     1      13.544   5.098   2.068  0.00  0.00    -0.269 N 
ATOM     28  C   UNL     1      14.517   6.101   2.068  0.00  0.00    +0.304 C 
ATOM     35  H   UNL     1      14.540   5.814   4.132  0.00  0.00    +0.150 HD
ATOM     36  H   UNL     1      13.295   4.703   2.971  0.00  0.00    +0.156 HD
BRANCH   7  29
ATOM     29  C   UNL     1      12.854   4.557   0.957  0.00  0.00    +0.035 A 
ATOM     30  C   UNL     1      13.474   3.605   0.146  0.00  0.00    +0.023 A 
ATOM     31  C   UNL     1      11.554   4.974   0.674  0.00  0.00    +0.023 A 
ATOM     32  C   UNL     1      12.794   3.072  -0.948  0.00  0.00    +0.002 A 
ATOM     33  C   UNL     1      10.873   4.440  -0.422  0.00  0.00    +0.002 A 
ATOM     34  C   UNL     1      11.493   3.490  -1.231  0.00  0.00    +0.000 A 
ENDBRANCH   7  29
ENDBRANCH  21   6
ENDBRANCH  11  21
TORSDOF 5
ENDMDL
MODEL 8
REMARK VINA RESULT:      -7.6     26.202     29.553
REMARK  Name = 40780200
REMARK  5 active torsions:
REMARK  status: ('A' for Active; 'I' for Inactive)
REMARK    1  A    between atoms: N_4  and  C_14
REMARK    2  A    between atoms: N_6  and  C_21
REMARK    3  A    between atoms: N_7  and  C_29
REMARK    4  A    between atoms: C_9  and  C_14
REMARK    5  A    between atoms: C_11  and  C_21
REMARK                            x       y       z     vdW  Elec       q    Type
REMARK                         _______ _______ _______ _____ _____    ______ ____
ROOT
ATOM      3  N   UNL     1      14.133  11.382   5.977  0.00  0.00    -0.298 NA
ATOM      8  C   UNL     1      11.752  10.338   5.890  0.00  0.00    -0.003 C 
ATOM      9  C   UNL     1      12.615   9.656   6.976  0.00  0.00    +0.020 C 
ATOM     10  C   UNL     1      12.460  10.219   4.528  0.00  0.00    +0.024 C 
ATOM     11  C   UNL     1      13.805  10.977   4.583  0.00  0.00    +0.074 C 
ATOM     12  C   UNL     1      14.053  10.213   6.886  0.00  0.00    +0.089 C 
ATOM     13  C   UNL     1      11.691  11.837   6.243  0.00  0.00    +0.019 C 
ATOM     15  C   UNL     1      13.122  12.376   6.413  0.00  0.00    +0.085 C 
ENDROOT
BRANCH   9  14
ATOM     14  C   UNL     1      12.595   8.139   6.892  0.00  0.00    +0.089 C 
BRANCH  14   4
ATOM      1  O   UNL     1       7.004   9.743   4.880  0.00  0.00    -0.268 OA
ATOM      4  N   UNL     1      11.293   7.652   6.438  0.00  0.00    -0.301 NA
ATOM      5  N   UNL     1       8.475   7.924   4.968  0.00  0.00    -0.312 N 
ATOM     16  C   UNL     1       9.080   6.706   7.138  0.00  0.00    +0.024 C 
ATOM     17  C   UNL     1      10.083   5.987   5.022  0.00  0.00    +0.050 C 
ATOM     18  C   UNL     1      10.445   7.277   7.576  0.00  0.00    +0.089 C 
ATOM     19  C   UNL     1      11.450   6.537   5.492  0.00  0.00    +0.094 C 
ATOM     20  C   UNL     1       9.286   5.501   6.230  0.00  0.00    +0.017 C 
ATOM     22  C   UNL     1       8.217   7.740   6.402  0.00  0.00    +0.130 C 
ATOM     23  C   UNL     1       9.314   7.053   4.264  0.00  0.00    +0.026 A 
ATOM     24  C   UNL     1       9.449   7.174   2.932  0.00  0.00    +0.022 A 
ATOM     25  C   UNL     1       7.767   8.954   4.322  0.00  0.00    +0.251 A 
ATOM     26  C   UNL     1       8.757   8.207   2.215  0.00  0.00    +0.007 A 
ATOM     27  C   UNL     1       7.961   9.071   2.850  0.00  0.00    +0.070 A 
ENDBRANCH  14   4
ENDBRANCH   9  14
BRANCH  11  21
ATOM     21  C   UNL     1      14.934  10.180   3.926  0.00  0.00    +0.124 C 
BRANCH  21   6
ATOM      2  O   UNL     1      14.781   7.337   4.237  0.00  0.00    -0.253 OA
ATOM      6  N   UNL     1      14.402   9.228   2.965  0.00  0.00    -0.298 N 
ATOM      7  N   UNL     1      13.805   7.195   2.107  0.00  0.00    -0.269 N 
ATOM     28  C   UNL     1      14.367   7.856   3.202  0.00  0.00    +0.304 C 
ATOM     35  H   UNL     1      14.046   9.584   2.083  0.00  0.00    +0.150 HD
ATOM     36  H   UNL     1      13.512   7.776   1.325  0.00  0.00    +0.156 HD
BRANCH   7  29
ATOM     29  C   UNL     1      13.589   5.806   1.947  0.00  0.00    +0.035 A 
ATOM     30  C   UNL     1      12.303   5.281   2.074  0.00  0.00    +0.023 A 
ATOM     31  C   UNL     1      14.663   4.963   1.661  0.00  0.00    +0.023 A 
ATOM     32  C   UNL     1      12.091   3.912   1.917  0.00  0.00    +0.002 A 
ATOM     33  C   UNL     1      14.450   3.592   1.504  0.00  0.00    +0.002 A 
ATOM     34  C   UNL     1      13.164   3.068   1.631  0.00  0.00    +0.000 A 
ENDBRANCH   7  29
ENDBRANCH  21   6
ENDBRANCH  11  21
TORSDOF 5
ENDMDL
MODEL 9
REMARK VINA RESULT:      -7.5      2.996      5.427
REMARK  Name = 40780200
REMARK  5 active torsions:
REMARK  status: ('A' for Active; 'I' for Inactive)
REMARK    1  A    between atoms: N_4  and  C_14
REMARK    2  A    between atoms: N_6  and  C_21
REMARK    3  A    between atoms: N_7  and  C_29
REMARK    4  A    between atoms: C_9  and  C_14
REMARK    5  A    between atoms: C_11  and  C_21
REMARK                            x       y       z     vdW  Elec       q    Type
REMARK                         _______ _______ _______ _____ _____    ______ ____
ROOT
ATOM      3  N   UNL     1      -6.662 -10.754  18.396  0.00  0.00    -0.298 NA
ATOM      8  C   UNL     1      -5.024 -12.568  17.504  0.00  0.00    -0.003 C 
ATOM      9  C   UNL     1      -5.340 -11.521  16.410  0.00  0.00    +0.020 C 
ATOM     10  C   UNL     1      -6.338 -13.201  17.997  0.00  0.00    +0.024 C 
ATOM     11  C   UNL     1      -7.218 -12.111  18.649  0.00  0.00    +0.074 C 
ATOM     12  C   UNL     1      -6.421 -10.558  16.946  0.00  0.00    +0.089 C 
ATOM     13  C   UNL     1      -4.413 -11.801  18.693  0.00  0.00    +0.019 C 
ATOM     15  C   UNL     1      -5.359 -10.657  19.099  0.00  0.00    +0.085 C 
ENDROOT
BRANCH   9  14
ATOM     14  C   UNL     1      -5.750 -12.144  15.086  0.00  0.00    +0.089 C 
BRANCH  14   4
ATOM      1  O   UNL     1      -4.082 -13.191   9.256  0.00  0.00    -0.268 OA
ATOM      4  N   UNL     1      -4.647 -12.122  14.128  0.00  0.00    -0.301 NA
ATOM      5  N   UNL     1      -3.384 -12.087  11.198  0.00  0.00    -0.312 N 
ATOM     16  C   UNL     1      -2.596 -13.308  13.307  0.00  0.00    +0.024 C 
ATOM     17  C   UNL     1      -2.665 -10.860  13.277  0.00  0.00    +0.050 C 
ATOM     18  C   UNL     1      -3.806 -13.318  14.265  0.00  0.00    +0.089 C 
ATOM     19  C   UNL     1      -3.856 -10.889  14.262  0.00  0.00    +0.094 C 
ATOM     20  C   UNL     1      -1.757 -12.059  13.538  0.00  0.00    +0.017 C 
ATOM     22  C   UNL     1      -3.014 -13.359  11.831  0.00  0.00    +0.130 C 
ATOM     23  C   UNL     1      -3.162 -10.864  11.843  0.00  0.00    +0.026 A 
ATOM     24  C   UNL     1      -3.407  -9.708  11.202  0.00  0.00    +0.022 A 
ATOM     25  C   UNL     1      -3.878 -12.151   9.883  0.00  0.00    +0.251 A 
ATOM     26  C   UNL     1      -3.916  -9.706   9.860  0.00  0.00    +0.007 A 
ATOM     27  C   UNL     1      -4.159 -10.850   9.214  0.00  0.00    +0.070 A 
ENDBRANCH  14   4
ENDBRANCH   9  14
BRANCH  11  21
ATOM     21  C   UNL     1      -8.682 -12.231  18.221  0.00  0.00    +0.124 C 
BRANCH  21   6
ATOM      2  O   UNL     1     -10.053 -10.730  16.204  0.00  0.00    -0.253 OA
ATOM      6  N   UNL     1      -9.378 -10.968  18.400  0.00  0.00    -0.298 N 
ATOM      7  N   UNL     1     -10.598  -9.122  17.825  0.00  0.00    -0.269 N 
ATOM     28  C   UNL     1     -10.020 -10.305  17.357  0.00  0.00    +0.304 C 
ATOM     35  H   UNL     1      -9.388 -10.553  19.327  0.00  0.00    +0.150 HD
ATOM     36  H   UNL     1     -10.477  -8.915  18.814  0.00  0.00    +0.156 HD
BRANCH   7  29
ATOM     29  C   UNL     1     -11.337  -8.166  17.090  0.00  0.00    +0.035 A 
ATOM     30  C   UNL     1     -10.734  -6.972  16.694  0.00  0.00    +0.023 A 
ATOM     31  C   UNL     1     -12.669  -8.419  16.760  0.00  0.00    +0.023 A 
ATOM     32  C   UNL     1     -11.464  -6.030  15.969  0.00  0.00    +0.002 A 
ATOM     33  C   UNL     1     -13.398  -7.475  16.035  0.00  0.00    +0.002 A 
ATOM     34  C   UNL     1     -12.795  -6.282  15.639  0.00  0.00    +0.000 A 
ENDBRANCH   7  29
ENDBRANCH  21   6
ENDBRANCH  11  21
TORSDOF 5
ENDMDL
MODEL 10
REMARK VINA RESULT:      -7.4     26.733     30.106
REMARK  Name = 40780200
REMARK  5 active torsions:
REMARK  status: ('A' for Active; 'I' for Inactive)
REMARK    1  A    between atoms: N_4  and  C_14
REMARK    2  A    between atoms: N_6  and  C_21
REMARK    3  A    between atoms: N_7  and  C_29
REMARK    4  A    between atoms: C_9  and  C_14
REMARK    5  A    between atoms: C_11  and  C_21
REMARK                            x       y       z     vdW  Elec       q    Type
REMARK                         _______ _______ _______ _____ _____    ______ ____
ROOT
ATOM      3  N   UNL     1      16.676   9.031   3.905  0.00  0.00    -0.298 NA
ATOM      8  C   UNL     1      15.242   7.741   2.159  0.00  0.00    -0.003 C 
ATOM      9  C   UNL     1      14.687   9.166   2.385  0.00  0.00    +0.020 C 
ATOM     10  C   UNL     1      15.286   6.992   3.504  0.00  0.00    +0.024 C 
ATOM     11  C   UNL     1      16.261   7.715   4.460  0.00  0.00    +0.074 C 
ATOM     12  C   UNL     1      15.485   9.831   3.529  0.00  0.00    +0.089 C 
ATOM     13  C   UNL     1      16.698   7.899   1.678  0.00  0.00    +0.019 C 
ATOM     15  C   UNL     1      17.469   8.779   2.677  0.00  0.00    +0.085 C 
ENDROOT
BRANCH   9  14
ATOM     14  C   UNL     1      13.192   9.191   2.656  0.00  0.00    +0.089 C 
BRANCH  14   4
ATOM      1  O   UNL     1      13.823   4.633  -1.430  0.00  0.00    -0.268 OA
ATOM      4  N   UNL     1      12.496   8.174   1.871  0.00  0.00    -0.301 NA
ATOM      5  N   UNL     1      12.320   5.499   0.141  0.00  0.00    -0.312 N 
ATOM     16  C   UNL     1      11.096   7.728  -0.161  0.00  0.00    +0.024 C 
ATOM     17  C   UNL     1      10.729   6.407   1.870  0.00  0.00    +0.050 C 
ATOM     18  C   UNL     1      11.888   8.760   0.669  0.00  0.00    +0.089 C 
ATOM     19  C   UNL     1      11.499   7.469   2.689  0.00  0.00    +0.094 C 
ATOM     20  C   UNL     1      10.018   7.084   0.700  0.00  0.00    +0.017 C 
ATOM     22  C   UNL     1      11.992   6.626  -0.741  0.00  0.00    +0.130 C 
ATOM     23  C   UNL     1      11.676   5.331   1.373  0.00  0.00    +0.026 A 
ATOM     24  C   UNL     1      11.911   4.234   2.114  0.00  0.00    +0.022 A 
ATOM     25  C   UNL     1      13.235   4.551  -0.351  0.00  0.00    +0.251 A 
ATOM     26  C   UNL     1      12.837   3.232   1.669  0.00  0.00    +0.007 A 
ATOM     27  C   UNL     1      13.487   3.361   0.510  0.00  0.00    +0.070 A 
ENDBRANCH  14   4
ENDBRANCH   9  14
BRANCH  11  21
ATOM     21  C   UNL     1      15.688   7.832   5.874  0.00  0.00    +0.124 C 
BRANCH  21   6
ATOM      2  O   UNL     1      12.954   8.663   6.067  0.00  0.00    -0.253 OA
ATOM      6  N   UNL     1      14.527   6.972   6.034  0.00  0.00    -0.298 N 
ATOM      7  N   UNL     1      12.324   6.411   6.269  0.00  0.00    -0.269 N 
ATOM     28  C   UNL     1      13.228   7.466   6.119  0.00  0.00    +0.304 C 
ATOM     35  H   UNL     1      14.677   5.969   6.090  0.00  0.00    +0.150 HD
ATOM     36  H   UNL     1      12.717   5.474   6.294  0.00  0.00    +0.156 HD
BRANCH   7  29
ATOM     29  C   UNL     1      10.916   6.484   6.391  0.00  0.00    +0.035 A 
ATOM     30  C   UNL     1      10.101   5.817   5.475  0.00  0.00    +0.023 A 
ATOM     31  C   UNL     1      10.344   7.222   7.427  0.00  0.00    +0.023 A 
ATOM     32  C   UNL     1       8.714   5.890   5.596  0.00  0.00    +0.002 A 
ATOM     33  C   UNL     1       8.955   7.294   7.546  0.00  0.00    +0.002 A 
ATOM     34  C   UNL     1       8.141   6.628   6.632  0.00  0.00    +0.000 A 
ENDBRANCH   7  29
ENDBRANCH  21   6
ENDBRANCH  11  21
TORSDOF 5
ENDMDL
