MODEL 1
REMARK VINA RESULT:      -7.3      0.000      0.000
REMARK  Name = 7165080
REMARK  5 active torsions:
REMARK  status: ('A' for Active; 'I' for Inactive)
REMARK    1  A    between atoms: S_2  and  N_8
REMARK    2  A    between atoms: S_2  and  C_17
REMARK    3  A    between atoms: O_7  and  C_28
REMARK    4  A    between atoms: O_7  and  C_29
REMARK    5  A    between atoms: N_10  and  C_18
REMARK                            x       y       z     vdW  Elec       q    Type
REMARK                         _______ _______ _______ _____ _____    ______ ____
ROOT
ATOM      3  O   UNL     1      -5.667  -9.904  13.864  0.00  0.00    -0.273 OA
ATOM      6  O   UNL     1      -5.452 -12.842  17.533  0.00  0.00    -0.252 OA
ATOM      8  N   UNL     1      -3.168 -10.545  13.189  0.00  0.00    -0.163 NA
ATOM      9  N   UNL     1      -3.689 -12.623  16.138  0.00  0.00    -0.294 N 
ATOM     10  N   UNL     1      -5.630 -11.312  15.750  0.00  0.00    -0.193 N 
ATOM     11  C   UNL     1      -3.007 -12.055  15.013  0.00  0.00    +0.103 C 
ATOM     12  C   UNL     1      -3.959 -11.570  13.940  0.00  0.00    +0.186 C 
ATOM     13  C   UNL     1      -2.179 -10.823  15.339  0.00  0.00    +0.041 C 
ATOM     14  C   UNL     1      -1.920 -10.247  13.956  0.00  0.00    +0.112 C 
ATOM     15  C   UNL     1      -5.167 -10.838  14.497  0.00  0.00    +0.248 C 
ATOM     16  C   UNL     1      -4.959 -12.276  16.551  0.00  0.00    +0.313 C 
ATOM     35  H   UNL     1      -3.190 -13.311  16.694  0.00  0.00    +0.151 HD
ENDROOT
BRANCH  10  18
ATOM     18  C   UNL     1      -6.883 -10.783  16.249  0.00  0.00    +0.046 A 
ATOM     21  C   UNL     1      -8.082 -11.303  15.779  0.00  0.00    +0.027 A 
ATOM     22  C   UNL     1      -6.868  -9.763  17.190  0.00  0.00    +0.027 A 
ATOM     25  C   UNL     1      -9.288 -10.791  16.259  0.00  0.00    +0.048 A 
ATOM     26  C   UNL     1      -8.074  -9.251  17.669  0.00  0.00    +0.048 A 
ATOM     28  C   UNL     1      -9.284  -9.766  17.204  0.00  0.00    +0.129 A 
BRANCH  28   7
ATOM      7  O   UNL     1     -10.460  -9.269  17.674  0.00  0.00    -0.456 OA
BRANCH   7  29
ATOM     29  C   UNL     1     -11.076  -8.269  16.940  0.00  0.00    +0.128 A 
ATOM     30  C   UNL     1     -10.340  -7.159  16.563  0.00  0.00    +0.046 A 
ATOM     31  C   UNL     1     -12.411  -8.404  16.603  0.00  0.00    +0.046 A 
ATOM     32  C   UNL     1     -10.960  -6.152  15.824  0.00  0.00    +0.004 A 
ATOM     33  C   UNL     1     -13.031  -7.397  15.864  0.00  0.00    +0.004 A 
ATOM     34  C   UNL     1     -12.305  -6.271  15.474  0.00  0.00    +0.000 A 
ENDBRANCH   7  29
ENDBRANCH  28   7
ENDBRANCH  10  18
BRANCH   8   2
ATOM      2  S   UNL     1      -3.024 -10.732  11.505  0.00  0.00    +0.062 S 
ATOM      4  O   UNL     1      -2.991 -12.145  11.177  0.00  0.00    -0.153 OA
ATOM      5  O   UNL     1      -1.997  -9.836  11.007  0.00  0.00    -0.153 OA
BRANCH   2  17
ATOM      1 CL   UNL     1      -8.560  -8.495   9.638  0.00  0.00    -0.084 Cl
ATOM     17  C   UNL     1      -4.589 -10.100  10.979  0.00  0.00    +0.106 A 
ATOM     19  C   UNL     1      -5.640 -10.978  10.778  0.00  0.00    +0.030 A 
ATOM     20  C   UNL     1      -4.733  -8.738  10.776  0.00  0.00    +0.030 A 
ATOM     23  C   UNL     1      -6.874 -10.479  10.362  0.00  0.00    +0.022 A 
ATOM     24  C   UNL     1      -5.967  -8.240  10.360  0.00  0.00    +0.022 A 
ATOM     27  C   UNL     1      -7.038  -9.110  10.152  0.00  0.00    +0.041 A 
ENDBRANCH   2  17
ENDBRANCH   8   2
TORSDOF 5
ENDMDL
MODEL 2
REMARK VINA RESULT:      -7.3     25.882     29.696
REMARK  Name = 7165080
REMARK  5 active torsions:
REMARK  status: ('A' for Active; 'I' for Inactive)
REMARK    1  A    between atoms: S_2  and  N_8
REMARK    2  A    between atoms: S_2  and  C_17
REMARK    3  A    between atoms: O_7  and  C_28
REMARK    4  A    between atoms: O_7  and  C_29
REMARK    5  A    between atoms: N_10  and  C_18
REMARK                            x       y       z     vdW  Elec       q    Type
REMARK                         _______ _______ _______ _____ _____    ______ ____
ROOT
ATOM      3  O   UNL     1      13.461   6.579   3.224  0.00  0.00    -0.273 OA
ATOM      6  O   UNL     1      11.715   9.424   6.538  0.00  0.00    -0.252 OA
ATOM      8  N   UNL     1      11.095   5.371   2.996  0.00  0.00    -0.163 NA
ATOM      9  N   UNL     1      10.400   7.875   5.552  0.00  0.00    -0.294 N 
ATOM     10  N   UNL     1      12.686   8.010   4.924  0.00  0.00    -0.193 N 
ATOM     11  C   UNL     1      10.154   6.790   4.649  0.00  0.00    +0.103 C 
ATOM     12  C   UNL     1      11.096   6.793   3.465  0.00  0.00    +0.186 C 
ATOM     13  C   UNL     1      10.350   5.411   5.259  0.00  0.00    +0.041 C 
ATOM     14  C   UNL     1      10.408   4.529   4.021  0.00  0.00    +0.112 C 
ATOM     15  C   UNL     1      12.533   7.105   3.843  0.00  0.00    +0.248 C 
ATOM     16  C   UNL     1      11.623   8.487   5.738  0.00  0.00    +0.313 C 
ATOM     35  H   UNL     1       9.625   8.200   6.121  0.00  0.00    +0.151 HD
ENDROOT
BRANCH  10  18
ATOM     18  C   UNL     1      14.021   8.492   5.215  0.00  0.00    +0.046 A 
ATOM     21  C   UNL     1      14.815   7.802   6.121  0.00  0.00    +0.027 A 
ATOM     22  C   UNL     1      14.486   9.637   4.584  0.00  0.00    +0.027 A 
ATOM     25  C   UNL     1      16.100   8.268   6.401  0.00  0.00    +0.048 A 
ATOM     26  C   UNL     1      15.771  10.103   4.866  0.00  0.00    +0.048 A 
ATOM     28  C   UNL     1      16.578   9.418   5.774  0.00  0.00    +0.129 A 
BRANCH  28   7
ATOM      7  O   UNL     1      17.832   9.871   6.046  0.00  0.00    -0.456 OA
BRANCH   7  29
ATOM     29  C   UNL     1      18.890   9.002   5.837  0.00  0.00    +0.128 A 
ATOM     30  C   UNL     1      19.040   8.409   4.596  0.00  0.00    +0.046 A 
ATOM     31  C   UNL     1      19.768   8.747   6.875  0.00  0.00    +0.046 A 
ATOM     32  C   UNL     1      20.105   7.533   4.386  0.00  0.00    +0.004 A 
ATOM     33  C   UNL     1      20.832   7.870   6.666  0.00  0.00    +0.004 A 
ATOM     34  C   UNL     1      21.001   7.264   5.420  0.00  0.00    +0.000 A 
ENDBRANCH   7  29
ENDBRANCH  28   7
ENDBRANCH  10  18
BRANCH   8   2
ATOM      2  S   UNL     1      10.719   5.075   1.363  0.00  0.00    +0.062 S 
ATOM      4  O   UNL     1      10.224   6.294   0.752  0.00  0.00    -0.153 OA
ATOM      5  O   UNL     1       9.966   3.840   1.259  0.00  0.00    -0.153 OA
BRANCH   2  17
ATOM      1 CL   UNL     1      16.443   4.013  -0.931  0.00  0.00    -0.084 Cl
ATOM     17  C   UNL     1      12.336   4.774   0.714  0.00  0.00    +0.106 A 
ATOM     19  C   UNL     1      13.145   3.832   1.325  0.00  0.00    +0.030 A 
ATOM     20  C   UNL     1      12.763   5.486  -0.393  0.00  0.00    +0.030 A 
ATOM     23  C   UNL     1      14.421   3.595   0.814  0.00  0.00    +0.022 A 
ATOM     24  C   UNL     1      14.039   5.250  -0.904  0.00  0.00    +0.022 A 
ATOM     27  C   UNL     1      14.868   4.304  -0.301  0.00  0.00    +0.041 A 
ENDBRANCH   2  17
ENDBRANCH   8   2
TORSDOF 5
ENDMDL
MODEL 3
REMARK VINA RESULT:      -7.1      2.137      3.047
REMARK  Name = 7165080
REMARK  5 active torsions:
REMARK  status: ('A' for Active; 'I' for Inactive)
REMARK    1  A    between atoms: S_2  and  N_8
REMARK    2  A    between atoms: S_2  and  C_17
REMARK    3  A    between atoms: O_7  and  C_28
REMARK    4  A    between atoms: O_7  and  C_29
REMARK    5  A    between atoms: N_10  and  C_18
REMARK                            x       y       z     vdW  Elec       q    Type
REMARK                         _______ _______ _______ _____ _____    ______ ____
ROOT
ATOM      3  O   UNL     1      -6.782 -10.788  15.169  0.00  0.00    -0.273 OA
ATOM      6  O   UNL     1      -7.630 -11.263  19.772  0.00  0.00    -0.252 OA
ATOM      8  N   UNL     1      -4.318 -11.748  15.511  0.00  0.00    -0.163 NA
ATOM      9  N   UNL     1      -5.636 -11.878  18.907  0.00  0.00    -0.294 N 
ATOM     10  N   UNL     1      -7.276 -10.945  17.465  0.00  0.00    -0.193 N 
ATOM     11  C   UNL     1      -4.694 -12.028  17.837  0.00  0.00    +0.103 C 
ATOM     12  C   UNL     1      -5.365 -12.182  16.490  0.00  0.00    +0.186 C 
ATOM     13  C   UNL     1      -3.772 -10.835  17.643  0.00  0.00    +0.041 C 
ATOM     14  C   UNL     1      -3.196 -11.110  16.262  0.00  0.00    +0.112 C 
ATOM     15  C   UNL     1      -6.537 -11.239  16.291  0.00  0.00    +0.248 C 
ATOM     16  C   UNL     1      -6.898 -11.333  18.779  0.00  0.00    +0.313 C 
ATOM     35  H   UNL     1      -5.343 -12.164  19.836  0.00  0.00    +0.151 HD
ENDROOT
BRANCH  10  18
ATOM     18  C   UNL     1      -8.510 -10.201  17.316  0.00  0.00    +0.046 A 
ATOM     21  C   UNL     1      -8.486  -8.814  17.369  0.00  0.00    +0.027 A 
ATOM     22  C   UNL     1      -9.701 -10.888  17.123  0.00  0.00    +0.027 A 
ATOM     25  C   UNL     1      -9.676  -8.100  17.226  0.00  0.00    +0.048 A 
ATOM     26  C   UNL     1     -10.891 -10.173  16.980  0.00  0.00    +0.048 A 
ATOM     28  C   UNL     1     -10.878  -8.780  17.032  0.00  0.00    +0.129 A 
BRANCH  28   7
ATOM      7  O   UNL     1     -12.038  -8.083  16.890  0.00  0.00    -0.456 OA
BRANCH   7  29
ATOM     29  C   UNL     1     -12.261  -7.441  15.683  0.00  0.00    +0.128 A 
ATOM     30  C   UNL     1     -12.659  -8.186  14.587  0.00  0.00    +0.046 A 
ATOM     31  C   UNL     1     -12.078  -6.072  15.603  0.00  0.00    +0.046 A 
ATOM     32  C   UNL     1     -12.882  -7.540  13.372  0.00  0.00    +0.004 A 
ATOM     33  C   UNL     1     -12.301  -5.426  14.388  0.00  0.00    +0.004 A 
ATOM     34  C   UNL     1     -12.703  -6.161  13.271  0.00  0.00    +0.000 A 
ENDBRANCH   7  29
ENDBRANCH  28   7
ENDBRANCH  10  18
BRANCH   8   2
ATOM      2  S   UNL     1      -3.908 -12.825  14.259  0.00  0.00    +0.062 S 
ATOM      4  O   UNL     1      -5.008 -13.743  14.031  0.00  0.00    -0.153 OA
ATOM      5  O   UNL     1      -2.563 -13.325  14.477  0.00  0.00    -0.153 OA
BRANCH   2  17
ATOM      1 CL   UNL     1      -3.699  -8.888   9.401  0.00  0.00    -0.084 Cl
ATOM     17  C   UNL     1      -3.849 -11.711  12.888  0.00  0.00    +0.106 A 
ATOM     19  C   UNL     1      -5.029 -11.347  12.262  0.00  0.00    +0.030 A 
ATOM     20  C   UNL     1      -2.624 -11.226  12.464  0.00  0.00    +0.030 A 
ATOM     23  C   UNL     1      -4.982 -10.469  11.178  0.00  0.00    +0.022 A 
ATOM     24  C   UNL     1      -2.578 -10.348  11.381  0.00  0.00    +0.022 A 
ATOM     27  C   UNL     1      -3.756  -9.970  10.738  0.00  0.00    +0.041 A 
ENDBRANCH   2  17
ENDBRANCH   8   2
TORSDOF 5
ENDMDL
MODEL 4
REMARK VINA RESULT:      -7.0      2.696      6.520
REMARK  Name = 7165080
REMARK  5 active torsions:
REMARK  status: ('A' for Active; 'I' for Inactive)
REMARK    1  A    between atoms: S_2  and  N_8
REMARK    2  A    between atoms: S_2  and  C_17
REMARK    3  A    between atoms: O_7  and  C_28
REMARK    4  A    between atoms: O_7  and  C_29
REMARK    5  A    between atoms: N_10  and  C_18
REMARK                            x       y       z     vdW  Elec       q    Type
REMARK                         _______ _______ _______ _____ _____    ______ ____
ROOT
ATOM      3  O   UNL     1      -6.085 -10.572  13.702  0.00  0.00    -0.273 OA
ATOM      6  O   UNL     1      -2.195 -10.353  11.065  0.00  0.00    -0.252 OA
ATOM      8  N   UNL     1      -4.764 -11.957  15.558  0.00  0.00    -0.163 NA
ATOM      9  N   UNL     1      -2.161 -11.392  13.071  0.00  0.00    -0.294 N 
ATOM     10  N   UNL     1      -4.201 -10.457  12.296  0.00  0.00    -0.193 N 
ATOM     11  C   UNL     1      -2.766 -11.863  14.281  0.00  0.00    +0.103 C 
ATOM     12  C   UNL     1      -3.964 -11.034  14.693  0.00  0.00    +0.186 C 
ATOM     13  C   UNL     1      -3.322 -13.275  14.194  0.00  0.00    +0.041 C 
ATOM     14  C   UNL     1      -4.207 -13.337  15.430  0.00  0.00    +0.112 C 
ATOM     15  C   UNL     1      -4.867 -10.666  13.530  0.00  0.00    +0.248 C 
ATOM     16  C   UNL     1      -2.824 -10.722  12.063  0.00  0.00    +0.313 C 
ATOM     35  H   UNL     1      -1.175 -11.592  12.928  0.00  0.00    +0.151 HD
ENDROOT
BRANCH  10  18
ATOM     18  C   UNL     1      -4.976  -9.926  11.194  0.00  0.00    +0.046 A 
ATOM     21  C   UNL     1      -5.658 -10.796  10.354  0.00  0.00    +0.027 A 
ATOM     22  C   UNL     1      -5.026  -8.553  10.992  0.00  0.00    +0.027 A 
ATOM     25  C   UNL     1      -6.404 -10.283   9.292  0.00  0.00    +0.048 A 
ATOM     26  C   UNL     1      -5.771  -8.041   9.930  0.00  0.00    +0.048 A 
ATOM     28  C   UNL     1      -6.460  -8.905   9.080  0.00  0.00    +0.129 A 
BRANCH  28   7
ATOM      7  O   UNL     1      -7.189  -8.405   8.045  0.00  0.00    -0.456 OA
BRANCH   7  29
ATOM     29  C   UNL     1      -8.261  -7.583   8.351  0.00  0.00    +0.128 A 
ATOM     30  C   UNL     1      -9.378  -8.130   8.958  0.00  0.00    +0.046 A 
ATOM     31  C   UNL     1      -8.188  -6.237   8.042  0.00  0.00    +0.046 A 
ATOM     32  C   UNL     1     -10.458  -7.303   9.265  0.00  0.00    +0.004 A 
ATOM     33  C   UNL     1      -9.268  -5.409   8.349  0.00  0.00    +0.004 A 
ATOM     34  C   UNL     1     -10.403  -5.943   8.961  0.00  0.00    +0.000 A 
ENDBRANCH   7  29
ENDBRANCH  28   7
ENDBRANCH  10  18
BRANCH   8   2
ATOM      2  S   UNL     1      -5.175 -11.423  17.120  0.00  0.00    +0.062 S 
ATOM      4  O   UNL     1      -4.379 -10.256  17.457  0.00  0.00    -0.153 OA
ATOM      5  O   UNL     1      -5.231 -12.561  18.019  0.00  0.00    -0.153 OA
BRANCH   2  17
ATOM      1 CL   UNL     1     -11.044  -9.486  16.148  0.00  0.00    -0.084 Cl
ATOM     17  C   UNL     1      -6.833 -10.875  16.844  0.00  0.00    +0.106 A 
ATOM     19  C   UNL     1      -7.122  -9.524  16.933  0.00  0.00    +0.030 A 
ATOM     20  C   UNL     1      -7.811 -11.808  16.545  0.00  0.00    +0.030 A 
ATOM     23  C   UNL     1      -8.431  -9.092  16.717  0.00  0.00    +0.022 A 
ATOM     24  C   UNL     1      -9.119 -11.376  16.329  0.00  0.00    +0.022 A 
ATOM     27  C   UNL     1      -9.429 -10.019  16.415  0.00  0.00    +0.041 A 
ENDBRANCH   2  17
ENDBRANCH   8   2
TORSDOF 5
ENDMDL
MODEL 5
REMARK VINA RESULT:      -6.8      3.892      8.076
REMARK  Name = 7165080
REMARK  5 active torsions:
REMARK  status: ('A' for Active; 'I' for Inactive)
REMARK    1  A    between atoms: S_2  and  N_8
REMARK    2  A    between atoms: S_2  and  C_17
REMARK    3  A    between atoms: O_7  and  C_28
REMARK    4  A    between atoms: O_7  and  C_29
REMARK    5  A    between atoms: N_10  and  C_18
REMARK                            x       y       z     vdW  Elec       q    Type
REMARK                         _______ _______ _______ _____ _____    ______ ____
ROOT
ATOM      3  O   UNL     1      -9.392  -9.073  15.777  0.00  0.00    -0.273 OA
ATOM      6  O   UNL     1      -9.218 -10.950  20.087  0.00  0.00    -0.252 OA
ATOM      8  N   UNL     1     -11.962  -8.459  16.133  0.00  0.00    -0.163 NA
ATOM      9  N   UNL     1     -11.130 -10.023  19.319  0.00  0.00    -0.294 N 
ATOM     10  N   UNL     1      -9.228 -10.077  17.899  0.00  0.00    -0.193 N 
ATOM     11  C   UNL     1     -11.930  -9.375  18.323  0.00  0.00    +0.103 C 
ATOM     12  C   UNL     1     -11.104  -8.554  17.356  0.00  0.00    +0.186 C 
ATOM     13  C   UNL     1     -12.696 -10.327  17.418  0.00  0.00    +0.041 C 
ATOM     14  C   UNL     1     -13.106  -9.409  16.277  0.00  0.00    +0.112 C 
ATOM     15  C   UNL     1      -9.828  -9.249  16.917  0.00  0.00    +0.248 C 
ATOM     16  C   UNL     1      -9.815 -10.406  19.151  0.00  0.00    +0.313 C 
ATOM     35  H   UNL     1     -11.571 -10.245  20.207  0.00  0.00    +0.151 HD
ENDROOT
BRANCH  10  18
ATOM     18  C   UNL     1      -7.917 -10.622  17.610  0.00  0.00    +0.046 A 
ATOM     21  C   UNL     1      -6.783  -9.894  17.944  0.00  0.00    +0.027 A 
ATOM     22  C   UNL     1      -7.813 -11.866  17.002  0.00  0.00    +0.027 A 
ATOM     25  C   UNL     1      -5.522 -10.420  17.664  0.00  0.00    +0.048 A 
ATOM     26  C   UNL     1      -6.551 -12.391  16.723  0.00  0.00    +0.048 A 
ATOM     28  C   UNL     1      -5.406 -11.668  17.054  0.00  0.00    +0.129 A 
BRANCH  28   7
ATOM      7  O   UNL     1      -4.175 -12.182  16.783  0.00  0.00    -0.456 OA
BRANCH   7  29
ATOM     29  C   UNL     1      -3.371 -11.490  15.892  0.00  0.00    +0.128 A 
ATOM     30  C   UNL     1      -3.779 -11.362  14.576  0.00  0.00    +0.046 A 
ATOM     31  C   UNL     1      -2.180 -10.948  16.340  0.00  0.00    +0.046 A 
ATOM     32  C   UNL     1      -2.968 -10.666  13.679  0.00  0.00    +0.004 A 
ATOM     33  C   UNL     1      -1.370 -10.252  15.443  0.00  0.00    +0.004 A 
ATOM     34  C   UNL     1      -1.764 -10.111  14.112  0.00  0.00    +0.000 A 
ENDBRANCH   7  29
ENDBRANCH  28   7
ENDBRANCH  10  18
BRANCH   8   2
ATOM      2  S   UNL     1     -12.306  -6.909  15.524  0.00  0.00    +0.062 S 
ATOM      4  O   UNL     1     -11.119  -6.080  15.613  0.00  0.00    -0.153 OA
ATOM      5  O   UNL     1     -13.570  -6.448  16.068  0.00  0.00    -0.153 OA
BRANCH   2  17
ATOM      1 CL   UNL     1     -13.222  -8.255   9.483  0.00  0.00    -0.084 Cl
ATOM     17  C   UNL     1     -12.564  -7.288  13.816  0.00  0.00    +0.106 A 
ATOM     19  C   UNL     1     -13.598  -6.670  13.135  0.00  0.00    +0.030 A 
ATOM     20  C   UNL     1     -11.727  -8.197  13.193  0.00  0.00    +0.030 A 
ATOM     23  C   UNL     1     -13.803  -6.970  11.788  0.00  0.00    +0.022 A 
ATOM     24  C   UNL     1     -11.932  -8.498  11.846  0.00  0.00    +0.022 A 
ATOM     27  C   UNL     1     -12.969  -7.884  11.144  0.00  0.00    +0.041 A 
ENDBRANCH   2  17
ENDBRANCH   8   2
TORSDOF 5
ENDMDL
MODEL 6
REMARK VINA RESULT:      -6.7     25.512     27.940
REMARK  Name = 7165080
REMARK  5 active torsions:
REMARK  status: ('A' for Active; 'I' for Inactive)
REMARK    1  A    between atoms: S_2  and  N_8
REMARK    2  A    between atoms: S_2  and  C_17
REMARK    3  A    between atoms: O_7  and  C_28
REMARK    4  A    between atoms: O_7  and  C_29
REMARK    5  A    between atoms: N_10  and  C_18
REMARK                            x       y       z     vdW  Elec       q    Type
REMARK                         _______ _______ _______ _____ _____    ______ ____
ROOT
ATOM      3  O   UNL     1      10.394   5.011   4.021  0.00  0.00    -0.273 OA
ATOM      6  O   UNL     1      13.853   7.538   2.074  0.00  0.00    -0.252 OA
ATOM      8  N   UNL     1      10.519   6.513   6.221  0.00  0.00    -0.163 NA
ATOM      9  N   UNL     1      13.089   8.044   4.139  0.00  0.00    -0.294 N 
ATOM     10  N   UNL     1      12.152   6.189   2.990  0.00  0.00    -0.193 N 
ATOM     11  C   UNL     1      12.253   7.834   5.284  0.00  0.00    +0.103 C 
ATOM     12  C   UNL     1      10.952   7.145   4.935  0.00  0.00    +0.186 C 
ATOM     13  C   UNL     1      12.861   6.933   6.347  0.00  0.00    +0.041 C 
ATOM     14  C   UNL     1      11.647   6.593   7.197  0.00  0.00    +0.112 C 
ATOM     15  C   UNL     1      11.122   6.004   3.948  0.00  0.00    +0.248 C 
ATOM     16  C   UNL     1      13.093   7.255   3.007  0.00  0.00    +0.313 C 
ATOM     35  H   UNL     1      13.752   8.812   4.174  0.00  0.00    +0.151 HD
ENDROOT
BRANCH  10  18
ATOM     18  C   UNL     1      12.248   5.229   1.910  0.00  0.00    +0.046 A 
ATOM     21  C   UNL     1      11.382   5.323   0.829  0.00  0.00    +0.027 A 
ATOM     22  C   UNL     1      13.205   4.225   1.972  0.00  0.00    +0.027 A 
ATOM     25  C   UNL     1      11.475   4.397  -0.209  0.00  0.00    +0.048 A 
ATOM     26  C   UNL     1      13.297   3.298   0.933  0.00  0.00    +0.048 A 
ATOM     28  C   UNL     1      12.433   3.384  -0.157  0.00  0.00    +0.129 A 
BRANCH  28   7
ATOM      7  O   UNL     1      12.524   2.481  -1.171  0.00  0.00    -0.456 OA
BRANCH   7  29
ATOM     29  C   UNL     1      12.321   2.941  -2.462  0.00  0.00    +0.128 A 
ATOM     30  C   UNL     1      11.140   2.627  -3.111  0.00  0.00    +0.046 A 
ATOM     31  C   UNL     1      13.304   3.700  -3.070  0.00  0.00    +0.046 A 
ATOM     32  C   UNL     1      10.936   3.088  -4.411  0.00  0.00    +0.004 A 
ATOM     33  C   UNL     1      13.100   4.162  -4.370  0.00  0.00    +0.004 A 
ATOM     34  C   UNL     1      11.915   3.856  -5.041  0.00  0.00    +0.000 A 
ENDBRANCH   7  29
ENDBRANCH  28   7
ENDBRANCH  10  18
BRANCH   8   2
ATOM      2  S   UNL     1       8.959   6.875   6.797  0.00  0.00    +0.062 S 
ATOM      4  O   UNL     1       8.897   6.611   8.222  0.00  0.00    -0.153 OA
ATOM      5  O   UNL     1       7.971   6.309   5.898  0.00  0.00    -0.153 OA
BRANCH   2  17
ATOM      1 CL   UNL     1       8.883  13.084   6.027  0.00  0.00    -0.084 Cl
ATOM     17  C   UNL     1       8.939   8.630   6.579  0.00  0.00    +0.106 A 
ATOM     19  C   UNL     1       9.543   9.436   7.528  0.00  0.00    +0.030 A 
ATOM     20  C   UNL     1       8.319   9.164   5.462  0.00  0.00    +0.030 A 
ATOM     23  C   UNL     1       9.526  10.820   7.357  0.00  0.00    +0.022 A 
ATOM     24  C   UNL     1       8.302  10.548   5.291  0.00  0.00    +0.022 A 
ATOM     27  C   UNL     1       8.905  11.376   6.238  0.00  0.00    +0.041 A 
ENDBRANCH   2  17
ENDBRANCH   8   2
TORSDOF 5
ENDMDL
MODEL 7
REMARK VINA RESULT:      -6.7      4.127      7.284
REMARK  Name = 7165080
REMARK  5 active torsions:
REMARK  status: ('A' for Active; 'I' for Inactive)
REMARK    1  A    between atoms: S_2  and  N_8
REMARK    2  A    between atoms: S_2  and  C_17
REMARK    3  A    between atoms: O_7  and  C_28
REMARK    4  A    between atoms: O_7  and  C_29
REMARK    5  A    between atoms: N_10  and  C_18
REMARK                            x       y       z     vdW  Elec       q    Type
REMARK                         _______ _______ _______ _____ _____    ______ ____
ROOT
ATOM      3  O   UNL     1      -5.025 -10.418  11.364  0.00  0.00    -0.273 OA
ATOM      6  O   UNL     1      -4.405 -13.364   7.748  0.00  0.00    -0.252 OA
ATOM      8  N   UNL     1      -3.815 -12.146  12.996  0.00  0.00    -0.163 NA
ATOM      9  N   UNL     1      -3.644 -13.903   9.806  0.00  0.00    -0.294 N 
ATOM     10  N   UNL     1      -4.803 -11.851   9.510  0.00  0.00    -0.193 N 
ATOM     11  C   UNL     1      -3.457 -13.664  11.207  0.00  0.00    +0.103 C 
ATOM     12  C   UNL     1      -3.436 -12.190  11.548  0.00  0.00    +0.186 C 
ATOM     13  C   UNL     1      -4.563 -14.219  12.090  0.00  0.00    +0.041 C 
ATOM     14  C   UNL     1      -4.304 -13.498  13.403  0.00  0.00    +0.112 C 
ATOM     15  C   UNL     1      -4.497 -11.389  10.816  0.00  0.00    +0.248 C 
ATOM     16  C   UNL     1      -4.314 -13.059   8.943  0.00  0.00    +0.313 C 
ATOM     35  H   UNL     1      -3.285 -14.772   9.424  0.00  0.00    +0.151 HD
ENDROOT
BRANCH  10  18
ATOM     18  C   UNL     1      -5.668 -11.029   8.690  0.00  0.00    +0.046 A 
ATOM     21  C   UNL     1      -7.044 -11.191   8.768  0.00  0.00    +0.027 A 
ATOM     22  C   UNL     1      -5.108 -10.088   7.835  0.00  0.00    +0.027 A 
ATOM     25  C   UNL     1      -7.876 -10.399   7.977  0.00  0.00    +0.048 A 
ATOM     26  C   UNL     1      -5.941  -9.297   7.044  0.00  0.00    +0.048 A 
ATOM     28  C   UNL     1      -7.324  -9.452   7.114  0.00  0.00    +0.129 A 
BRANCH  28   7
ATOM      7  O   UNL     1      -8.137  -8.678   6.344  0.00  0.00    -0.456 OA
BRANCH   7  29
ATOM     29  C   UNL     1      -8.850  -7.670   6.972  0.00  0.00    +0.128 A 
ATOM     30  C   UNL     1      -8.163  -6.689   7.665  0.00  0.00    +0.046 A 
ATOM     31  C   UNL     1     -10.231  -7.671   6.891  0.00  0.00    +0.046 A 
ATOM     32  C   UNL     1      -8.881  -5.675   8.297  0.00  0.00    +0.004 A 
ATOM     33  C   UNL     1     -10.949  -6.656   7.523  0.00  0.00    +0.004 A 
ATOM     34  C   UNL     1     -10.274  -5.658   8.227  0.00  0.00    +0.000 A 
ENDBRANCH   7  29
ENDBRANCH  28   7
ENDBRANCH  10  18
BRANCH   8   2
ATOM      2  S   UNL     1      -2.768 -11.338  14.066  0.00  0.00    +0.062 S 
ATOM      4  O   UNL     1      -2.364 -10.072  13.483  0.00  0.00    -0.153 OA
ATOM      5  O   UNL     1      -1.775 -12.272  14.563  0.00  0.00    -0.153 OA
BRANCH   2  17
ATOM      1 CL   UNL     1      -6.702 -10.074  18.764  0.00  0.00    -0.084 Cl
ATOM     17  C   UNL     1      -3.881 -10.983  15.393  0.00  0.00    +0.106 A 
ATOM     19  C   UNL     1      -5.060 -10.310  15.124  0.00  0.00    +0.030 A 
ATOM     20  C   UNL     1      -3.550 -11.382  16.676  0.00  0.00    +0.030 A 
ATOM     23  C   UNL     1      -5.937 -10.028  16.172  0.00  0.00    +0.022 A 
ATOM     24  C   UNL     1      -4.427 -11.100  17.724  0.00  0.00    +0.022 A 
ATOM     27  C   UNL     1      -5.620 -10.423  17.471  0.00  0.00    +0.041 A 
ENDBRANCH   2  17
ENDBRANCH   8   2
TORSDOF 5
ENDMDL
MODEL 8
REMARK VINA RESULT:      -6.7     25.371     27.219
REMARK  Name = 7165080
REMARK  5 active torsions:
REMARK  status: ('A' for Active; 'I' for Inactive)
REMARK    1  A    between atoms: S_2  and  N_8
REMARK    2  A    between atoms: S_2  and  C_17
REMARK    3  A    between atoms: O_7  and  C_28
REMARK    4  A    between atoms: O_7  and  C_29
REMARK    5  A    between atoms: N_10  and  C_18
REMARK                            x       y       z     vdW  Elec       q    Type
REMARK                         _______ _______ _______ _____ _____    ______ ____
ROOT
ATOM      3  O   UNL     1      10.332   4.693  -0.249  0.00  0.00    -0.273 OA
ATOM      6  O   UNL     1      14.460   3.674   1.763  0.00  0.00    -0.252 OA
ATOM      8  N   UNL     1      11.378   4.235  -2.658  0.00  0.00    -0.163 NA
ATOM      9  N   UNL     1      14.221   3.556  -0.480  0.00  0.00    -0.294 N 
ATOM     10  N   UNL     1      12.371   4.248   0.838  0.00  0.00    -0.193 N 
ATOM     11  C   UNL     1      13.480   3.692  -1.699  0.00  0.00    +0.103 C 
ATOM     12  C   UNL     1      11.990   3.515  -1.497  0.00  0.00    +0.186 C 
ATOM     13  C   UNL     1      13.592   5.061  -2.351  0.00  0.00    +0.041 C 
ATOM     14  C   UNL     1      12.442   5.026  -3.346  0.00  0.00    +0.112 C 
ATOM     15  C   UNL     1      11.467   4.211  -0.253  0.00  0.00    +0.248 C 
ATOM     16  C   UNL     1      13.731   3.838   0.779  0.00  0.00    +0.313 C 
ATOM     35  H   UNL     1      15.190   3.260  -0.548  0.00  0.00    +0.151 HD
ENDROOT
BRANCH  10  18
ATOM     18  C   UNL     1      11.873   4.731   2.110  0.00  0.00    +0.046 A 
ATOM     21  C   UNL     1      12.223   6.002   2.545  0.00  0.00    +0.027 A 
ATOM     22  C   UNL     1      11.051   3.915   2.876  0.00  0.00    +0.027 A 
ATOM     25  C   UNL     1      11.743   6.466   3.770  0.00  0.00    +0.048 A 
ATOM     26  C   UNL     1      10.572   4.379   4.101  0.00  0.00    +0.048 A 
ATOM     28  C   UNL     1      10.917   5.654   4.548  0.00  0.00    +0.129 A 
BRANCH  28   7
ATOM      7  O   UNL     1      10.447   6.107   5.742  0.00  0.00    -0.456 OA
BRANCH   7  29
ATOM     29  C   UNL     1       9.758   7.308   5.749  0.00  0.00    +0.128 A 
ATOM     30  C   UNL     1       8.610   7.431   4.986  0.00  0.00    +0.046 A 
ATOM     31  C   UNL     1      10.236   8.356   6.516  0.00  0.00    +0.046 A 
ATOM     32  C   UNL     1       7.917   8.641   4.992  0.00  0.00    +0.004 A 
ATOM     33  C   UNL     1       9.543   9.566   6.522  0.00  0.00    +0.004 A 
ATOM     34  C   UNL     1       8.383   9.708   5.760  0.00  0.00    +0.000 A 
ENDBRANCH   7  29
ENDBRANCH  28   7
ENDBRANCH  10  18
BRANCH   8   2
ATOM      2  S   UNL     1      10.287   3.374  -3.639  0.00  0.00    +0.062 S 
ATOM      4  O   UNL     1       9.721   2.273  -2.882  0.00  0.00    -0.153 OA
ATOM      5  O   UNL     1      10.889   3.142  -4.939  0.00  0.00    -0.153 OA
BRANCH   2  17
ATOM      1 CL   UNL     1       5.790   7.662  -4.367  0.00  0.00    -0.084 Cl
ATOM     17  C   UNL     1       9.018   4.587  -3.845  0.00  0.00    +0.106 A 
ATOM     19  C   UNL     1       8.741   5.459  -2.807  0.00  0.00    +0.030 A 
ATOM     20  C   UNL     1       8.322   4.640  -5.041  0.00  0.00    +0.030 A 
ATOM     23  C   UNL     1       7.738   6.415  -2.969  0.00  0.00    +0.022 A 
ATOM     24  C   UNL     1       7.320   5.596  -5.203  0.00  0.00    +0.022 A 
ATOM     27  C   UNL     1       7.027   6.483  -4.167  0.00  0.00    +0.041 A 
ENDBRANCH   2  17
ENDBRANCH   8   2
TORSDOF 5
ENDMDL
MODEL 9
REMARK VINA RESULT:      -6.6      6.287      9.202
REMARK  Name = 7165080
REMARK  5 active torsions:
REMARK  status: ('A' for Active; 'I' for Inactive)
REMARK    1  A    between atoms: S_2  and  N_8
REMARK    2  A    between atoms: S_2  and  C_17
REMARK    3  A    between atoms: O_7  and  C_28
REMARK    4  A    between atoms: O_7  and  C_29
REMARK    5  A    between atoms: N_10  and  C_18
REMARK                            x       y       z     vdW  Elec       q    Type
REMARK                         _______ _______ _______ _____ _____    ______ ____
ROOT
ATOM      3  O   UNL     1     -12.268  -6.188  12.285  0.00  0.00    -0.273 OA
ATOM      6  O   UNL     1     -15.367  -6.632  15.797  0.00  0.00    -0.252 OA
ATOM      8  N   UNL     1     -14.251  -5.650  10.586  0.00  0.00    -0.163 NA
ATOM      9  N   UNL     1     -16.066  -6.102  13.715  0.00  0.00    -0.294 N 
ATOM     10  N   UNL     1     -13.751  -6.478  14.089  0.00  0.00    -0.193 N 
ATOM     11  C   UNL     1     -15.859  -5.842  12.321  0.00  0.00    +0.103 C 
ATOM     12  C   UNL     1     -14.473  -5.311  12.027  0.00  0.00    +0.186 C 
ATOM     13  C   UNL     1     -15.967  -7.071  11.432  0.00  0.00    +0.041 C 
ATOM     14  C   UNL     1     -15.336  -6.576  10.140  0.00  0.00    +0.112 C 
ATOM     15  C   UNL     1     -13.379  -6.030  12.796  0.00  0.00    +0.248 C 
ATOM     16  C   UNL     1     -15.073  -6.439  14.612  0.00  0.00    +0.313 C 
ATOM     35  H   UNL     1     -17.018  -6.066  14.065  0.00  0.00    +0.151 HD
ENDROOT
BRANCH  10  18
ATOM     18  C   UNL     1     -12.709  -7.006  14.945  0.00  0.00    +0.046 A 
ATOM     21  C   UNL     1     -11.989  -6.143  15.760  0.00  0.00    +0.027 A 
ATOM     22  C   UNL     1     -12.443  -8.369  14.936  0.00  0.00    +0.027 A 
ATOM     25  C   UNL     1     -10.984  -6.654  16.583  0.00  0.00    +0.048 A 
ATOM     26  C   UNL     1     -11.438  -8.878  15.759  0.00  0.00    +0.048 A 
ATOM     28  C   UNL     1     -10.708  -8.021  16.582  0.00  0.00    +0.129 A 
BRANCH  28   7
ATOM      7  O   UNL     1      -9.729  -8.518  17.386  0.00  0.00    -0.456 OA
BRANCH   7  29
ATOM     29  C   UNL     1     -10.059  -9.569  18.226  0.00  0.00    +0.128 A 
ATOM     30  C   UNL     1     -11.201  -9.480  19.001  0.00  0.00    +0.046 A 
ATOM     31  C   UNL     1      -9.236 -10.681  18.268  0.00  0.00    +0.046 A 
ATOM     32  C   UNL     1     -11.532 -10.538  19.847  0.00  0.00    +0.004 A 
ATOM     33  C   UNL     1      -9.567 -11.739  19.115  0.00  0.00    +0.004 A 
ATOM     34  C   UNL     1     -10.715 -11.668  19.904  0.00  0.00    +0.000 A 
ENDBRANCH   7  29
ENDBRANCH  28   7
ENDBRANCH  10  18
BRANCH   8   2
ATOM      2  S   UNL     1     -13.821  -4.386   9.532  0.00  0.00    +0.062 S 
ATOM      4  O   UNL     1     -13.739  -3.142  10.275  0.00  0.00    -0.153 OA
ATOM      5  O   UNL     1     -14.621  -4.472   8.325  0.00  0.00    -0.153 OA
BRANCH   2  17
ATOM      1 CL   UNL     1      -7.981  -6.087   8.066  0.00  0.00    -0.084 Cl
ATOM     17  C   UNL     1     -12.171  -4.866   9.116  0.00  0.00    +0.106 A 
ATOM     19  C   UNL     1     -11.920  -6.177   8.750  0.00  0.00    +0.030 A 
ATOM     20  C   UNL     1     -11.160  -3.922   9.165  0.00  0.00    +0.030 A 
ATOM     23  C   UNL     1     -10.619  -6.557   8.423  0.00  0.00    +0.022 A 
ATOM     24  C   UNL     1      -9.858  -4.302   8.839  0.00  0.00    +0.022 A 
ATOM     27  C   UNL     1      -9.587  -5.619   8.468  0.00  0.00    +0.041 A 
ENDBRANCH   2  17
ENDBRANCH   8   2
TORSDOF 5
ENDMDL
MODEL 10
REMARK VINA RESULT:      -6.5      3.048      7.672
REMARK  Name = 7165080
REMARK  5 active torsions:
REMARK  status: ('A' for Active; 'I' for Inactive)
REMARK    1  A    between atoms: S_2  and  N_8
REMARK    2  A    between atoms: S_2  and  C_17
REMARK    3  A    between atoms: O_7  and  C_28
REMARK    4  A    between atoms: O_7  and  C_29
REMARK    5  A    between atoms: N_10  and  C_18
REMARK                            x       y       z     vdW  Elec       q    Type
REMARK                         _______ _______ _______ _____ _____    ______ ____
ROOT
ATOM      3  O   UNL     1      -7.605 -11.002  16.160  0.00  0.00    -0.273 OA
ATOM      6  O   UNL     1      -4.176 -11.886  19.258  0.00  0.00    -0.252 OA
ATOM      8  N   UNL     1      -9.435 -11.331  18.072  0.00  0.00    -0.163 NA
ATOM      9  N   UNL     1      -6.338 -11.884  19.914  0.00  0.00    -0.294 N 
ATOM     10  N   UNL     1      -5.830 -11.481  17.630  0.00  0.00    -0.193 N 
ATOM     11  C   UNL     1      -7.748 -11.766  19.684  0.00  0.00    +0.103 C 
ATOM     12  C   UNL     1      -8.071 -10.883  18.498  0.00  0.00    +0.186 C 
ATOM     13  C   UNL     1      -8.439 -13.078  19.351  0.00  0.00    +0.041 C 
ATOM     14  C   UNL     1      -9.770 -12.595  18.794  0.00  0.00    +0.112 C 
ATOM     15  C   UNL     1      -7.163 -11.122  17.306  0.00  0.00    +0.248 C 
ATOM     16  C   UNL     1      -5.366 -11.777  18.940  0.00  0.00    +0.313 C 
ATOM     35  H   UNL     1      -6.031 -12.094  20.859  0.00  0.00    +0.151 HD
ENDROOT
BRANCH  10  18
ATOM     18  C   UNL     1      -4.868 -11.544  16.549  0.00  0.00    +0.046 A 
ATOM     21  C   UNL     1      -4.101 -10.427  16.248  0.00  0.00    +0.027 A 
ATOM     22  C   UNL     1      -4.727 -12.722  15.828  0.00  0.00    +0.027 A 
ATOM     25  C   UNL     1      -3.176 -10.489  15.206  0.00  0.00    +0.048 A 
ATOM     26  C   UNL     1      -3.802 -12.783  14.785  0.00  0.00    +0.048 A 
ATOM     28  C   UNL     1      -3.026 -11.667  14.475  0.00  0.00    +0.129 A 
BRANCH  28   7
ATOM      7  O   UNL     1      -2.122 -11.728  13.459  0.00  0.00    -0.456 OA
BRANCH   7  29
ATOM     29  C   UNL     1      -2.329 -10.907  12.363  0.00  0.00    +0.128 A 
ATOM     30  C   UNL     1      -1.373  -9.962  12.038  0.00  0.00    +0.046 A 
ATOM     31  C   UNL     1      -3.487 -11.054  11.621  0.00  0.00    +0.046 A 
ATOM     32  C   UNL     1      -1.582  -9.135  10.935  0.00  0.00    +0.004 A 
ATOM     33  C   UNL     1      -3.696 -10.228  10.517  0.00  0.00    +0.004 A 
ATOM     34  C   UNL     1      -2.743  -9.268  10.174  0.00  0.00    +0.000 A 
ENDBRANCH   7  29
ENDBRANCH  28   7
ENDBRANCH  10  18
BRANCH   8   2
ATOM      2  S   UNL     1     -10.655 -10.152  17.953  0.00  0.00    +0.062 S 
ATOM      4  O   UNL     1     -10.089  -8.842  18.211  0.00  0.00    -0.153 OA
ATOM      5  O   UNL     1     -11.831 -10.603  18.675  0.00  0.00    -0.153 OA
BRANCH   2  17
ATOM      1 CL   UNL     1     -11.937 -10.480  11.838  0.00  0.00    -0.084 Cl
ATOM     17  C   UNL     1     -11.019 -10.244  16.225  0.00  0.00    +0.106 A 
ATOM     19  C   UNL     1     -11.686 -11.352  15.733  0.00  0.00    +0.030 A 
ATOM     20  C   UNL     1     -10.629  -9.206  15.397  0.00  0.00    +0.030 A 
ATOM     23  C   UNL     1     -11.971 -11.426  14.369  0.00  0.00    +0.022 A 
ATOM     24  C   UNL     1     -10.914  -9.279  14.034  0.00  0.00    +0.022 A 
ATOM     27  C   UNL     1     -11.585 -10.389  13.520  0.00  0.00    +0.041 A 
ENDBRANCH   2  17
ENDBRANCH   8   2
TORSDOF 5
ENDMDL
