MODEL 1
REMARK VINA RESULT:      -7.2      0.000      0.000
REMARK  Name = 25338297
REMARK  8 active torsions:
REMARK  status: ('A' for Active; 'I' for Inactive)
REMARK    1  A    between atoms: S_1  and  N_7
REMARK    2  A    between atoms: S_1  and  C_18
REMARK    3  A    between atoms: O_5  and  C_25
REMARK    4  A    between atoms: O_5  and  C_29
REMARK    5  A    between atoms: N_6  and  C_17
REMARK    6  A    between atoms: N_7  and  C_12
REMARK    7  A    between atoms: C_13  and  C_16
REMARK    8  A    between atoms: C_19  and  C_22
REMARK                            x       y       z     vdW  Elec       q    Type
REMARK                         _______ _______ _______ _____ _____    ______ ____
ROOT
ATOM      6  N   UNL     1     -17.767   1.113  26.772  0.00  0.00    -0.293 NA
ATOM     12  C   UNL     1     -16.662   1.376  28.809  0.00  0.00    +0.092 C 
ATOM     13  C   UNL     1     -17.425   2.547  26.810  0.00  0.00    +0.147 C 
ATOM     14  C   UNL     1     -16.531   2.697  28.056  0.00  0.00    +0.050 C 
ATOM     15  C   UNL     1     -17.858   0.686  28.173  0.00  0.00    +0.105 C 
ATOM     17  C   UNL     1     -18.996   0.834  26.039  0.00  0.00    +0.105 C 
ENDROOT
BRANCH  13  16
ATOM      2  O   UNL     1     -16.580   2.132  24.553  0.00  0.00    -0.336 OA
ATOM      8  N   UNL     1     -16.297   4.237  25.264  0.00  0.00    -0.189 NA
ATOM      9  N   UNL     1     -15.945   2.813  23.508  0.00  0.00    -0.054 NA
ATOM     16  C   UNL     1     -16.751   3.043  25.548  0.00  0.00    +0.245 A 
ATOM     19  C   UNL     1     -15.812   4.048  24.003  0.00  0.00    +0.222 A 
BRANCH  19  22
ATOM     10  N   UNL     1     -15.743   6.340  23.406  0.00  0.00    -0.249 NA
ATOM     11  N   UNL     1     -13.530   5.880  21.745  0.00  0.00    -0.260 NA
ATOM     22  C   UNL     1     -15.201   5.114  23.263  0.00  0.00    +0.129 A 
ATOM     26  C   UNL     1     -14.113   4.889  22.447  0.00  0.00    +0.142 A 
ATOM     27  C   UNL     1     -15.160   7.332  22.704  0.00  0.00    +0.131 A 
ATOM     28  C   UNL     1     -14.072   7.106  21.889  0.00  0.00    +0.130 A 
ENDBRANCH  19  22
ENDBRANCH  13  16
BRANCH  12   7
ATOM      7  N   UNL     1     -15.438   0.557  28.610  0.00  0.00    -0.186 NA
ATOM     30  H   UNL     1     -15.220   0.260  27.651  0.00  0.00    +0.148 HD
BRANCH   7   1
ATOM      1  S   UNL     1     -14.696  -0.188  29.942  0.00  0.00    +0.059 S 
ATOM      3  O   UNL     1     -13.413  -0.730  29.540  0.00  0.00    -0.153 OA
ATOM      4  O   UNL     1     -15.671  -1.033  30.605  0.00  0.00    -0.153 OA
BRANCH   1  18
ATOM     18  C   UNL     1     -14.396   1.189  31.010  0.00  0.00    +0.105 A 
ATOM     20  C   UNL     1     -14.876   1.173  32.320  0.00  0.00    +0.032 A 
ATOM     21  C   UNL     1     -13.682   2.292  30.542  0.00  0.00    +0.032 A 
ATOM     23  C   UNL     1     -14.642   2.260  33.161  0.00  0.00    +0.047 A 
ATOM     24  C   UNL     1     -13.447   3.379  31.384  0.00  0.00    +0.047 A 
ATOM     25  C   UNL     1     -13.928   3.363  32.694  0.00  0.00    +0.120 A 
BRANCH  25   5
ATOM      5  O   UNL     1     -13.699   4.423  33.515  0.00  0.00    -0.495 OA
ATOM     29  C   UNL     1     -14.491   4.511  34.698  0.00  0.00    +0.277 C 
ENDBRANCH  25   5
ENDBRANCH   1  18
ENDBRANCH   7   1
ENDBRANCH  12   7
TORSDOF 6
ENDMDL
MODEL 2
REMARK VINA RESULT:      -7.1     28.625     31.186
REMARK  Name = 25338297
REMARK  8 active torsions:
REMARK  status: ('A' for Active; 'I' for Inactive)
REMARK    1  A    between atoms: S_1  and  N_7
REMARK    2  A    between atoms: S_1  and  C_18
REMARK    3  A    between atoms: O_5  and  C_25
REMARK    4  A    between atoms: O_5  and  C_29
REMARK    5  A    between atoms: N_6  and  C_17
REMARK    6  A    between atoms: N_7  and  C_12
REMARK    7  A    between atoms: C_13  and  C_16
REMARK    8  A    between atoms: C_19  and  C_22
REMARK                            x       y       z     vdW  Elec       q    Type
REMARK                         _______ _______ _______ _____ _____    ______ ____
ROOT
ATOM      6  N   UNL     1      16.569   7.454  21.198  0.00  0.00    -0.293 NA
ATOM     12  C   UNL     1      14.827   6.913  19.745  0.00  0.00    +0.092 C 
ATOM     13  C   UNL     1      16.255   8.730  20.527  0.00  0.00    +0.147 C 
ATOM     14  C   UNL     1      14.985   8.431  19.708  0.00  0.00    +0.050 C 
ATOM     15  C   UNL     1      16.159   6.400  20.265  0.00  0.00    +0.105 C 
ATOM     17  C   UNL     1      17.973   7.331  21.573  0.00  0.00    +0.105 C 
ENDROOT
BRANCH  13  16
ATOM      2  O   UNL     1      17.086  10.789  21.548  0.00  0.00    -0.336 OA
ATOM      8  N   UNL     1      15.064  10.159  22.275  0.00  0.00    -0.189 NA
ATOM      9  N   UNL     1      16.693  11.752  22.486  0.00  0.00    -0.054 NA
ATOM     16  C   UNL     1      16.071   9.888  21.484  0.00  0.00    +0.245 A 
ATOM     19  C   UNL     1      15.491  11.310  22.870  0.00  0.00    +0.222 A 
BRANCH  19  22
ATOM     10  N   UNL     1      14.440  13.302  23.608  0.00  0.00    -0.249 NA
ATOM     11  N   UNL     1      13.456  11.984  25.880  0.00  0.00    -0.260 NA
ATOM     22  C   UNL     1      14.691  11.998  23.843  0.00  0.00    +0.129 A 
ATOM     26  C   UNL     1      14.207  11.351  24.959  0.00  0.00    +0.142 A 
ATOM     27  C   UNL     1      13.688  13.935  24.531  0.00  0.00    +0.131 A 
ATOM     28  C   UNL     1      13.205  13.288  25.647  0.00  0.00    +0.130 A 
ENDBRANCH  19  22
ENDBRANCH  13  16
BRANCH  12   7
ATOM      7  N   UNL     1      13.738   6.542  20.685  0.00  0.00    -0.186 NA
ATOM     30  H   UNL     1      13.974   5.898  21.450  0.00  0.00    +0.148 HD
BRANCH   7   1
ATOM      1  S   UNL     1      12.121   6.832  20.261  0.00  0.00    +0.059 S 
ATOM      3  O   UNL     1      11.272   5.833  20.879  0.00  0.00    -0.153 OA
ATOM      4  O   UNL     1      12.051   7.067  18.831  0.00  0.00    -0.153 OA
BRANCH   1  18
ATOM     18  C   UNL     1      11.807   8.380  21.054  0.00  0.00    +0.105 A 
ATOM     20  C   UNL     1      11.339   8.408  22.369  0.00  0.00    +0.032 A 
ATOM     21  C   UNL     1      12.022   9.574  20.366  0.00  0.00    +0.032 A 
ATOM     23  C   UNL     1      11.088   9.629  22.994  0.00  0.00    +0.047 A 
ATOM     24  C   UNL     1      11.771  10.795  20.991  0.00  0.00    +0.047 A 
ATOM     25  C   UNL     1      11.304  10.822  22.305  0.00  0.00    +0.120 A 
BRANCH  25   5
ATOM      5  O   UNL     1      11.059  12.014  22.916  0.00  0.00    -0.495 OA
ATOM     29  C   UNL     1      10.904  13.155  22.073  0.00  0.00    +0.277 C 
ENDBRANCH  25   5
ENDBRANCH   1  18
ENDBRANCH   7   1
ENDBRANCH  12   7
TORSDOF 6
ENDMDL
MODEL 3
REMARK VINA RESULT:      -7.0     18.863     21.370
REMARK  Name = 25338297
REMARK  8 active torsions:
REMARK  status: ('A' for Active; 'I' for Inactive)
REMARK    1  A    between atoms: S_1  and  N_7
REMARK    2  A    between atoms: S_1  and  C_18
REMARK    3  A    between atoms: O_5  and  C_25
REMARK    4  A    between atoms: O_5  and  C_29
REMARK    5  A    between atoms: N_6  and  C_17
REMARK    6  A    between atoms: N_7  and  C_12
REMARK    7  A    between atoms: C_13  and  C_16
REMARK    8  A    between atoms: C_19  and  C_22
REMARK                            x       y       z     vdW  Elec       q    Type
REMARK                         _______ _______ _______ _____ _____    ______ ____
ROOT
ATOM      6  N   UNL     1      -5.979 -11.772  17.622  0.00  0.00    -0.293 NA
ATOM     12  C   UNL     1      -3.852 -11.210  16.850  0.00  0.00    +0.092 C 
ATOM     13  C   UNL     1      -6.016 -10.302  17.516  0.00  0.00    +0.147 C 
ATOM     14  C   UNL     1      -4.686  -9.932  16.829  0.00  0.00    +0.050 C 
ATOM     15  C   UNL     1      -4.571 -12.124  17.829  0.00  0.00    +0.105 C 
ATOM     17  C   UNL     1      -6.830 -12.294  18.685  0.00  0.00    +0.105 C 
ENDROOT
BRANCH  13  16
ATOM      2  O   UNL     1      -7.333 -10.143  15.463  0.00  0.00    -0.336 OA
ATOM      8  N   UNL     1      -8.194  -9.010  17.192  0.00  0.00    -0.189 NA
ATOM      9  N   UNL     1      -8.508  -9.545  14.990  0.00  0.00    -0.054 NA
ATOM     16  C   UNL     1      -7.222  -9.777  16.767  0.00  0.00    +0.245 A 
ATOM     19  C   UNL     1      -8.957  -8.894  16.068  0.00  0.00    +0.222 A 
BRANCH  19  22
ATOM     10  N   UNL     1     -10.045  -6.812  15.760  0.00  0.00    -0.249 NA
ATOM     11  N   UNL     1     -12.531  -7.985  16.319  0.00  0.00    -0.260 NA
ATOM     22  C   UNL     1     -10.167  -8.123  16.054  0.00  0.00    +0.129 A 
ATOM     26  C   UNL     1     -11.388  -8.699  16.328  0.00  0.00    +0.142 A 
ATOM     27  C   UNL     1     -11.189  -6.099  15.751  0.00  0.00    +0.131 A 
ATOM     28  C   UNL     1     -12.410  -6.675  16.025  0.00  0.00    +0.130 A 
ENDBRANCH  19  22
ENDBRANCH  13  16
BRANCH  12   7
ATOM      7  N   UNL     1      -3.835 -11.825  15.498  0.00  0.00    -0.186 NA
ATOM     30  H   UNL     1      -4.622 -12.437  15.248  0.00  0.00    +0.148 HD
BRANCH   7   1
ATOM      1  S   UNL     1      -2.396 -11.849  14.600  0.00  0.00    +0.059 S 
ATOM      3  O   UNL     1      -2.097 -13.211  14.201  0.00  0.00    -0.153 OA
ATOM      4  O   UNL     1      -1.400 -11.057  15.295  0.00  0.00    -0.153 OA
BRANCH   1  18
ATOM     18  C   UNL     1      -2.855 -10.946  13.151  0.00  0.00    +0.105 A 
ATOM     20  C   UNL     1      -1.880 -10.563  12.230  0.00  0.00    +0.032 A 
ATOM     21  C   UNL     1      -4.191 -10.611  12.932  0.00  0.00    +0.032 A 
ATOM     23  C   UNL     1      -2.241  -9.848  11.088  0.00  0.00    +0.047 A 
ATOM     24  C   UNL     1      -4.553  -9.896  11.790  0.00  0.00    +0.047 A 
ATOM     25  C   UNL     1      -3.577  -9.514  10.869  0.00  0.00    +0.120 A 
BRANCH  25   5
ATOM      5  O   UNL     1      -3.930  -8.816   9.755  0.00  0.00    -0.495 OA
ATOM     29  C   UNL     1      -5.274  -8.344   9.684  0.00  0.00    +0.277 C 
ENDBRANCH  25   5
ENDBRANCH   1  18
ENDBRANCH   7   1
ENDBRANCH  12   7
TORSDOF 6
ENDMDL
MODEL 4
REMARK VINA RESULT:      -6.7     31.000     33.466
REMARK  Name = 25338297
REMARK  8 active torsions:
REMARK  status: ('A' for Active; 'I' for Inactive)
REMARK    1  A    between atoms: S_1  and  N_7
REMARK    2  A    between atoms: S_1  and  C_18
REMARK    3  A    between atoms: O_5  and  C_25
REMARK    4  A    between atoms: O_5  and  C_29
REMARK    5  A    between atoms: N_6  and  C_17
REMARK    6  A    between atoms: N_7  and  C_12
REMARK    7  A    between atoms: C_13  and  C_16
REMARK    8  A    between atoms: C_19  and  C_22
REMARK                            x       y       z     vdW  Elec       q    Type
REMARK                         _______ _______ _______ _____ _____    ______ ____
ROOT
ATOM      6  N   UNL     1      17.087   8.903  20.721  0.00  0.00    -0.293 NA
ATOM     12  C   UNL     1      14.886   8.178  20.990  0.00  0.00    +0.092 C 
ATOM     13  C   UNL     1      17.211   7.685  21.543  0.00  0.00    +0.147 C 
ATOM     14  C   UNL     1      15.789   7.091  21.569  0.00  0.00    +0.050 C 
ATOM     15  C   UNL     1      15.745   9.432  20.988  0.00  0.00    +0.105 C 
ATOM     17  C   UNL     1      18.124   9.890  20.995  0.00  0.00    +0.105 C 
ENDROOT
BRANCH  13  16
ATOM      2  O   UNL     1      17.870   5.941  19.963  0.00  0.00    -0.336 OA
ATOM      8  N   UNL     1      19.457   6.474  21.451  0.00  0.00    -0.189 NA
ATOM      9  N   UNL     1      18.969   5.125  19.669  0.00  0.00    -0.054 NA
ATOM     16  C   UNL     1      18.240   6.704  21.024  0.00  0.00    +0.245 A 
ATOM     19  C   UNL     1      19.864   5.498  20.590  0.00  0.00    +0.222 A 
BRANCH  19  22
ATOM     10  N   UNL     1      21.238   3.623  21.047  0.00  0.00    -0.249 NA
ATOM     11  N   UNL     1      23.538   5.117  20.461  0.00  0.00    -0.260 NA
ATOM     22  C   UNL     1      21.173   4.917  20.673  0.00  0.00    +0.129 A 
ATOM     26  C   UNL     1      22.303   5.651  20.385  0.00  0.00    +0.142 A 
ATOM     27  C   UNL     1      22.474   3.090  21.122  0.00  0.00    +0.131 A 
ATOM     28  C   UNL     1      23.604   3.823  20.834  0.00  0.00    +0.130 A 
ENDBRANCH  19  22
ENDBRANCH  13  16
BRANCH  12   7
ATOM      7  N   UNL     1      14.500   7.824  19.599  0.00  0.00    -0.186 NA
ATOM     30  H   UNL     1      15.255   7.727  18.910  0.00  0.00    +0.148 HD
BRANCH   7   1
ATOM      1  S   UNL     1      12.887   7.996  19.103  0.00  0.00    +0.059 S 
ATOM      3  O   UNL     1      12.268   6.688  19.007  0.00  0.00    -0.153 OA
ATOM      4  O   UNL     1      12.841   8.909  17.977  0.00  0.00    -0.153 OA
BRANCH   1  18
ATOM     18  C   UNL     1      12.168   8.838  20.481  0.00  0.00    +0.105 A 
ATOM     20  C   UNL     1      12.157  10.233  20.517  0.00  0.00    +0.032 A 
ATOM     21  C   UNL     1      11.616   8.109  21.534  0.00  0.00    +0.032 A 
ATOM     23  C   UNL     1      11.594  10.898  21.606  0.00  0.00    +0.047 A 
ATOM     24  C   UNL     1      11.052   8.774  22.622  0.00  0.00    +0.047 A 
ATOM     25  C   UNL     1      11.041  10.168  22.659  0.00  0.00    +0.120 A 
BRANCH  25   5
ATOM      5  O   UNL     1      10.490  10.817  23.721  0.00  0.00    -0.495 OA
ATOM     29  C   UNL     1      11.081  12.059  24.100  0.00  0.00    +0.277 C 
ENDBRANCH  25   5
ENDBRANCH   1  18
ENDBRANCH   7   1
ENDBRANCH  12   7
TORSDOF 6
ENDMDL
MODEL 5
REMARK VINA RESULT:      -6.7      3.601      9.243
REMARK  Name = 25338297
REMARK  8 active torsions:
REMARK  status: ('A' for Active; 'I' for Inactive)
REMARK    1  A    between atoms: S_1  and  N_7
REMARK    2  A    between atoms: S_1  and  C_18
REMARK    3  A    between atoms: O_5  and  C_25
REMARK    4  A    between atoms: O_5  and  C_29
REMARK    5  A    between atoms: N_6  and  C_17
REMARK    6  A    between atoms: N_7  and  C_12
REMARK    7  A    between atoms: C_13  and  C_16
REMARK    8  A    between atoms: C_19  and  C_22
REMARK                            x       y       z     vdW  Elec       q    Type
REMARK                         _______ _______ _______ _____ _____    ______ ____
ROOT
ATOM      6  N   UNL     1     -17.566   6.358  25.781  0.00  0.00    -0.293 NA
ATOM     12  C   UNL     1     -16.853   5.661  23.673  0.00  0.00    +0.092 C 
ATOM     13  C   UNL     1     -17.643   4.887  25.847  0.00  0.00    +0.147 C 
ATOM     14  C   UNL     1     -16.997   4.408  24.532  0.00  0.00    +0.050 C 
ATOM     15  C   UNL     1     -17.716   6.704  24.364  0.00  0.00    +0.105 C 
ATOM     17  C   UNL     1     -18.562   7.024  26.611  0.00  0.00    +0.105 C 
ENDROOT
BRANCH  13  16
ATOM      2  O   UNL     1     -16.694   5.160  28.083  0.00  0.00    -0.336 OA
ATOM      8  N   UNL     1     -16.619   3.060  27.307  0.00  0.00    -0.189 NA
ATOM      9  N   UNL     1     -16.088   4.396  29.087  0.00  0.00    -0.054 NA
ATOM     16  C   UNL     1     -16.975   4.298  27.071  0.00  0.00    +0.245 A 
ATOM     19  C   UNL     1     -16.079   3.170  28.555  0.00  0.00    +0.222 A 
BRANCH  19  22
ATOM     10  N   UNL     1     -14.285   2.155  29.724  0.00  0.00    -0.249 NA
ATOM     11  N   UNL     1     -15.780  -0.195  30.054  0.00  0.00    -0.260 NA
ATOM     22  C   UNL     1     -15.540   2.034  29.246  0.00  0.00    +0.129 A 
ATOM     26  C   UNL     1     -16.274   0.879  29.408  0.00  0.00    +0.142 A 
ATOM     27  C   UNL     1     -13.791   1.080  30.370  0.00  0.00    +0.131 A 
ATOM     28  C   UNL     1     -14.525  -0.075  30.532  0.00  0.00    +0.130 A 
ENDBRANCH  19  22
ENDBRANCH  13  16
BRANCH  12   7
ATOM      7  N   UNL     1     -15.435   6.103  23.658  0.00  0.00    -0.186 NA
ATOM     30  H   UNL     1     -15.230   7.044  24.017  0.00  0.00    +0.148 HD
BRANCH   7   1
ATOM      1  S   UNL     1     -14.300   5.266  22.715  0.00  0.00    +0.059 S 
ATOM      3  O   UNL     1     -14.991   4.458  21.730  0.00  0.00    -0.153 OA
ATOM      4  O   UNL     1     -13.318   4.662  23.595  0.00  0.00    -0.153 OA
BRANCH   1  18
ATOM     18  C   UNL     1     -13.488   6.586  21.864  0.00  0.00    +0.105 A 
ATOM     20  C   UNL     1     -12.319   6.337  21.144  0.00  0.00    +0.032 A 
ATOM     21  C   UNL     1     -14.013   7.877  21.916  0.00  0.00    +0.032 A 
ATOM     23  C   UNL     1     -11.677   7.378  20.475  0.00  0.00    +0.047 A 
ATOM     24  C   UNL     1     -13.371   8.919  21.248  0.00  0.00    +0.047 A 
ATOM     25  C   UNL     1     -12.202   8.669  20.528  0.00  0.00    +0.120 A 
BRANCH  25   5
ATOM      5  O   UNL     1     -11.576   9.686  19.874  0.00  0.00    -0.495 OA
ATOM     29  C   UNL     1     -10.242   9.445  19.427  0.00  0.00    +0.277 C 
ENDBRANCH  25   5
ENDBRANCH   1  18
ENDBRANCH   7   1
ENDBRANCH  12   7
TORSDOF 6
ENDMDL
MODEL 6
REMARK VINA RESULT:      -6.6     19.478     21.942
REMARK  Name = 25338297
REMARK  8 active torsions:
REMARK  status: ('A' for Active; 'I' for Inactive)
REMARK    1  A    between atoms: S_1  and  N_7
REMARK    2  A    between atoms: S_1  and  C_18
REMARK    3  A    between atoms: O_5  and  C_25
REMARK    4  A    between atoms: O_5  and  C_29
REMARK    5  A    between atoms: N_6  and  C_17
REMARK    6  A    between atoms: N_7  and  C_12
REMARK    7  A    between atoms: C_13  and  C_16
REMARK    8  A    between atoms: C_19  and  C_22
REMARK                            x       y       z     vdW  Elec       q    Type
REMARK                         _______ _______ _______ _____ _____    ______ ____
ROOT
ATOM      6  N   UNL     1      -5.706 -11.783  17.770  0.00  0.00    -0.293 NA
ATOM     12  C   UNL     1      -3.575 -11.261  16.979  0.00  0.00    +0.092 C 
ATOM     13  C   UNL     1      -5.764 -10.330  17.522  0.00  0.00    +0.147 C 
ATOM     14  C   UNL     1      -4.429 -10.006  16.823  0.00  0.00    +0.050 C 
ATOM     15  C   UNL     1      -4.295 -12.089  18.031  0.00  0.00    +0.105 C 
ATOM     17  C   UNL     1      -6.566 -12.214  18.866  0.00  0.00    +0.105 C 
ENDROOT
BRANCH  13  16
ATOM      2  O   UNL     1      -7.886  -9.131  17.346  0.00  0.00    -0.336 OA
ATOM      8  N   UNL     1      -7.260 -10.165  15.461  0.00  0.00    -0.189 NA
ATOM      9  N   UNL     1      -8.889  -8.866  16.406  0.00  0.00    -0.054 NA
ATOM     16  C   UNL     1      -6.966  -9.901  16.709  0.00  0.00    +0.245 A 
ATOM     19  C   UNL     1      -8.448  -9.510  15.320  0.00  0.00    +0.222 A 
BRANCH  19  22
ATOM     10  N   UNL     1      -8.491  -9.914  12.986  0.00  0.00    -0.249 NA
ATOM     11  N   UNL     1     -11.182  -9.132  12.862  0.00  0.00    -0.260 NA
ATOM     22  C   UNL     1      -9.171  -9.516  14.081  0.00  0.00    +0.129 A 
ATOM     26  C   UNL     1     -10.492  -9.132  14.020  0.00  0.00    +0.142 A 
ATOM     27  C   UNL     1      -9.182  -9.914  11.828  0.00  0.00    +0.131 A 
ATOM     28  C   UNL     1     -10.504  -9.530  11.767  0.00  0.00    +0.130 A 
ENDBRANCH  19  22
ENDBRANCH  13  16
BRANCH  12   7
ATOM      7  N   UNL     1      -3.526 -12.003  15.694  0.00  0.00    -0.186 NA
ATOM     30  H   UNL     1      -4.181 -12.786  15.575  0.00  0.00    +0.148 HD
BRANCH   7   1
ATOM      1  S   UNL     1      -2.186 -11.828  14.669  0.00  0.00    +0.059 S 
ATOM      3  O   UNL     1      -1.738 -13.136  14.231  0.00  0.00    -0.153 OA
ATOM      4  O   UNL     1      -1.250 -10.903  15.280  0.00  0.00    -0.153 OA
BRANCH   1  18
ATOM     18  C   UNL     1      -2.895 -11.001  13.277  0.00  0.00    +0.105 A 
ATOM     20  C   UNL     1      -2.095 -10.663  12.185  0.00  0.00    +0.032 A 
ATOM     21  C   UNL     1      -4.253 -10.682  13.272  0.00  0.00    +0.032 A 
ATOM     23  C   UNL     1      -2.654 -10.007  11.088  0.00  0.00    +0.047 A 
ATOM     24  C   UNL     1      -4.811 -10.027  12.175  0.00  0.00    +0.047 A 
ATOM     25  C   UNL     1      -4.012  -9.688  11.083  0.00  0.00    +0.120 A 
BRANCH  25   5
ATOM      5  O   UNL     1      -4.557  -9.049  10.013  0.00  0.00    -0.495 OA
ATOM     29  C   UNL     1      -5.926  -8.660  10.118  0.00  0.00    +0.277 C 
ENDBRANCH  25   5
ENDBRANCH   1  18
ENDBRANCH   7   1
ENDBRANCH  12   7
TORSDOF 6
ENDMDL
MODEL 7
REMARK VINA RESULT:      -6.5     19.644     22.470
REMARK  Name = 25338297
REMARK  8 active torsions:
REMARK  status: ('A' for Active; 'I' for Inactive)
REMARK    1  A    between atoms: S_1  and  N_7
REMARK    2  A    between atoms: S_1  and  C_18
REMARK    3  A    between atoms: O_5  and  C_25
REMARK    4  A    between atoms: O_5  and  C_29
REMARK    5  A    between atoms: N_6  and  C_17
REMARK    6  A    between atoms: N_7  and  C_12
REMARK    7  A    between atoms: C_13  and  C_16
REMARK    8  A    between atoms: C_19  and  C_22
REMARK                            x       y       z     vdW  Elec       q    Type
REMARK                         _______ _______ _______ _____ _____    ______ ____
ROOT
ATOM      6  N   UNL     1      -4.242 -12.682  15.611  0.00  0.00    -0.293 NA
ATOM     12  C   UNL     1      -2.550 -11.312  14.771  0.00  0.00    +0.092 C 
ATOM     13  C   UNL     1      -3.950 -11.755  16.720  0.00  0.00    +0.147 C 
ATOM     14  C   UNL     1      -2.973 -10.727  16.116  0.00  0.00    +0.050 C 
ATOM     15  C   UNL     1      -3.009 -12.761  14.820  0.00  0.00    +0.105 C 
ATOM     17  C   UNL     1      -4.683 -13.996  16.060  0.00  0.00    +0.105 C 
ENDROOT
BRANCH  13  16
ATOM      2  O   UNL     1      -5.162 -10.862  18.646  0.00  0.00    -0.336 OA
ATOM      8  N   UNL     1      -6.292 -10.740  16.716  0.00  0.00    -0.189 NA
ATOM      9  N   UNL     1      -6.393 -10.270  18.953  0.00  0.00    -0.054 NA
ATOM     16  C   UNL     1      -5.184 -11.107  17.309  0.00  0.00    +0.245 A 
ATOM     19  C   UNL     1      -7.003 -10.233  17.764  0.00  0.00    +0.222 A 
BRANCH  19  22
ATOM     10  N   UNL     1      -9.288 -10.186  18.391  0.00  0.00    -0.249 NA
ATOM     11  N   UNL     1      -9.813  -8.206  16.475  0.00  0.00    -0.260 NA
ATOM     22  C   UNL     1      -8.321  -9.693  17.590  0.00  0.00    +0.129 A 
ATOM     26  C   UNL     1      -8.579  -8.720  16.649  0.00  0.00    +0.142 A 
ATOM     27  C   UNL     1     -10.521  -9.671  18.216  0.00  0.00    +0.131 A 
ATOM     28  C   UNL     1     -10.779  -8.698  17.276  0.00  0.00    +0.130 A 
ENDBRANCH  19  22
ENDBRANCH  13  16
BRANCH  12   7
ATOM      7  N   UNL     1      -3.243 -10.597  13.669  0.00  0.00    -0.186 NA
ATOM     30  H   UNL     1      -4.213 -10.299  13.836  0.00  0.00    +0.148 HD
BRANCH   7   1
ATOM      1  S   UNL     1      -2.610 -10.655  12.097  0.00  0.00    +0.059 S 
ATOM      3  O   UNL     1      -2.572 -12.030  11.640  0.00  0.00    -0.153 OA
ATOM      4  O   UNL     1      -1.414  -9.836  12.046  0.00  0.00    -0.153 OA
BRANCH   1  18
ATOM     18  C   UNL     1      -3.855  -9.808  11.170  0.00  0.00    +0.105 A 
ATOM     20  C   UNL     1      -3.595  -9.401   9.861  0.00  0.00    +0.032 A 
ATOM     21  C   UNL     1      -5.095  -9.541  11.749  0.00  0.00    +0.032 A 
ATOM     23  C   UNL     1      -4.575  -8.730   9.131  0.00  0.00    +0.047 A 
ATOM     24  C   UNL     1      -6.076  -8.870  11.020  0.00  0.00    +0.047 A 
ATOM     25  C   UNL     1      -5.816  -8.464   9.710  0.00  0.00    +0.120 A 
BRANCH  25   5
ATOM      5  O   UNL     1      -6.773  -7.810   8.998  0.00  0.00    -0.495 OA
ATOM     29  C   UNL     1      -8.103  -8.322   9.075  0.00  0.00    +0.277 C 
ENDBRANCH  25   5
ENDBRANCH   1  18
ENDBRANCH   7   1
ENDBRANCH  12   7
TORSDOF 6
ENDMDL
MODEL 8
REMARK VINA RESULT:      -6.4     28.809     31.410
REMARK  Name = 25338297
REMARK  8 active torsions:
REMARK  status: ('A' for Active; 'I' for Inactive)
REMARK    1  A    between atoms: S_1  and  N_7
REMARK    2  A    between atoms: S_1  and  C_18
REMARK    3  A    between atoms: O_5  and  C_25
REMARK    4  A    between atoms: O_5  and  C_29
REMARK    5  A    between atoms: N_6  and  C_17
REMARK    6  A    between atoms: N_7  and  C_12
REMARK    7  A    between atoms: C_13  and  C_16
REMARK    8  A    between atoms: C_19  and  C_22
REMARK                            x       y       z     vdW  Elec       q    Type
REMARK                         _______ _______ _______ _____ _____    ______ ____
ROOT
ATOM      6  N   UNL     1      12.292  12.465  22.888  0.00  0.00    -0.293 NA
ATOM     12  C   UNL     1      10.966  10.547  22.832  0.00  0.00    +0.092 C 
ATOM     13  C   UNL     1      11.752  12.365  24.257  0.00  0.00    +0.147 C 
ATOM     14  C   UNL     1      11.030  11.004  24.287  0.00  0.00    +0.050 C 
ATOM     15  C   UNL     1      11.322  11.784  22.024  0.00  0.00    +0.105 C 
ATOM     17  C   UNL     1      12.528  13.839  22.461  0.00  0.00    +0.105 C 
ENDROOT
BRANCH  13  16
ATOM      2  O   UNL     1      12.820  13.649  26.042  0.00  0.00    -0.336 OA
ATOM      8  N   UNL     1      13.728  11.631  25.697  0.00  0.00    -0.189 NA
ATOM      9  N   UNL     1      13.866  13.530  26.965  0.00  0.00    -0.054 NA
ATOM     16  C   UNL     1      12.807  12.488  25.335  0.00  0.00    +0.245 A 
ATOM     19  C   UNL     1      14.353  12.314  26.699  0.00  0.00    +0.222 A 
BRANCH  19  22
ATOM     10  N   UNL     1      15.165  11.033  28.519  0.00  0.00    -0.249 NA
ATOM     11  N   UNL     1      17.807  11.422  27.663  0.00  0.00    -0.260 NA
ATOM     22  C   UNL     1      15.460  11.752  27.418  0.00  0.00    +0.129 A 
ATOM     26  C   UNL     1      16.758  11.943  26.997  0.00  0.00    +0.142 A 
ATOM     27  C   UNL     1      16.215  10.511  29.185  0.00  0.00    +0.131 A 
ATOM     28  C   UNL     1      17.513  10.702  28.764  0.00  0.00    +0.130 A 
ENDBRANCH  19  22
ENDBRANCH  13  16
BRANCH  12   7
ATOM      7  N   UNL     1      11.969   9.478  22.594  0.00  0.00    -0.186 NA
ATOM     30  H   UNL     1      12.928   9.649  22.921  0.00  0.00    +0.148 HD
BRANCH   7   1
ATOM      1  S   UNL     1      11.640   8.246  21.475  0.00  0.00    +0.059 S 
ATOM      3  O   UNL     1      10.992   8.813  20.308  0.00  0.00    -0.153 OA
ATOM      4  O   UNL     1      11.035   7.130  22.176  0.00  0.00    -0.153 OA
BRANCH   1  18
ATOM     18  C   UNL     1      13.266   7.739  21.002  0.00  0.00    +0.105 A 
ATOM     20  C   UNL     1      13.512   7.316  19.695  0.00  0.00    +0.032 A 
ATOM     21  C   UNL     1      14.302   7.756  21.935  0.00  0.00    +0.032 A 
ATOM     23  C   UNL     1      14.793   6.912  19.322  0.00  0.00    +0.047 A 
ATOM     24  C   UNL     1      15.583   7.352  21.563  0.00  0.00    +0.047 A 
ATOM     25  C   UNL     1      15.829   6.930  20.256  0.00  0.00    +0.120 A 
BRANCH  25   5
ATOM      5  O   UNL     1      17.080   6.536  19.892  0.00  0.00    -0.495 OA
ATOM     29  C   UNL     1      18.081   6.536  20.909  0.00  0.00    +0.277 C 
ENDBRANCH  25   5
ENDBRANCH   1  18
ENDBRANCH   7   1
ENDBRANCH  12   7
TORSDOF 6
ENDMDL
MODEL 9
REMARK VINA RESULT:      -6.3      7.580     10.873
REMARK  Name = 25338297
REMARK  8 active torsions:
REMARK  status: ('A' for Active; 'I' for Inactive)
REMARK    1  A    between atoms: S_1  and  N_7
REMARK    2  A    between atoms: S_1  and  C_18
REMARK    3  A    between atoms: O_5  and  C_25
REMARK    4  A    between atoms: O_5  and  C_29
REMARK    5  A    between atoms: N_6  and  C_17
REMARK    6  A    between atoms: N_7  and  C_12
REMARK    7  A    between atoms: C_13  and  C_16
REMARK    8  A    between atoms: C_19  and  C_22
REMARK                            x       y       z     vdW  Elec       q    Type
REMARK                         _______ _______ _______ _____ _____    ______ ____
ROOT
ATOM      6  N   UNL     1     -12.249   8.445  32.579  0.00  0.00    -0.293 NA
ATOM     12  C   UNL     1     -14.044   7.565  33.780  0.00  0.00    +0.092 C 
ATOM     13  C   UNL     1     -12.330   9.301  33.778  0.00  0.00    +0.147 C 
ATOM     14  C   UNL     1     -13.386   8.617  34.668  0.00  0.00    +0.050 C 
ATOM     15  C   UNL     1     -13.602   7.920  32.369  0.00  0.00    +0.105 C 
ATOM     17  C   UNL     1     -11.751   9.148  31.403  0.00  0.00    +0.105 C 
ENDROOT
BRANCH  13  16
ATOM      2  O   UNL     1     -10.898   8.941  35.726  0.00  0.00    -0.336 OA
ATOM      8  N   UNL     1      -9.922  10.097  34.073  0.00  0.00    -0.189 NA
ATOM      9  N   UNL     1      -9.603   9.236  36.169  0.00  0.00    -0.054 NA
ATOM     16  C   UNL     1     -11.004   9.483  34.484  0.00  0.00    +0.245 A 
ATOM     19  C   UNL     1      -9.091   9.919  35.140  0.00  0.00    +0.222 A 
BRANCH  19  22
ATOM     10  N   UNL     1      -6.826   9.707  35.803  0.00  0.00    -0.249 NA
ATOM     11  N   UNL     1      -6.184  12.113  34.512  0.00  0.00    -0.260 NA
ATOM     22  C   UNL     1      -7.752  10.435  35.147  0.00  0.00    +0.129 A 
ATOM     26  C   UNL     1      -7.437  11.617  34.513  0.00  0.00    +0.142 A 
ATOM     27  C   UNL     1      -5.573  10.204  35.801  0.00  0.00    +0.131 A 
ATOM     28  C   UNL     1      -5.257  11.386  35.167  0.00  0.00    +0.130 A 
ENDBRANCH  19  22
ENDBRANCH  13  16
BRANCH  12   7
ATOM      7  N   UNL     1     -13.547   6.214  34.143  0.00  0.00    -0.186 NA
ATOM     30  H   UNL     1     -12.583   5.978  33.878  0.00  0.00    +0.148 HD
BRANCH   7   1
ATOM      1  S   UNL     1     -14.647   5.000  34.585  0.00  0.00    +0.059 S 
ATOM      3  O   UNL     1     -16.002   5.485  34.402  0.00  0.00    -0.153 OA
ATOM      4  O   UNL     1     -14.238   4.442  35.860  0.00  0.00    -0.153 OA
BRANCH   1  18
ATOM     18  C   UNL     1     -14.340   3.765  33.359  0.00  0.00    +0.105 A 
ATOM     20  C   UNL     1     -14.860   2.479  33.518  0.00  0.00    +0.032 A 
ATOM     21  C   UNL     1     -13.576   4.073  32.234  0.00  0.00    +0.032 A 
ATOM     23  C   UNL     1     -14.615   1.504  32.553  0.00  0.00    +0.047 A 
ATOM     24  C   UNL     1     -13.331   3.097  31.268  0.00  0.00    +0.047 A 
ATOM     25  C   UNL     1     -13.850   1.812  31.428  0.00  0.00    +0.120 A 
BRANCH  25   5
ATOM      5  O   UNL     1     -13.612   0.860  30.485  0.00  0.00    -0.495 OA
ATOM     29  C   UNL     1     -14.579  -0.181  30.355  0.00  0.00    +0.277 C 
ENDBRANCH  25   5
ENDBRANCH   1  18
ENDBRANCH   7   1
ENDBRANCH  12   7
TORSDOF 6
ENDMDL
MODEL 10
REMARK VINA RESULT:      -6.3      3.480      8.968
REMARK  Name = 25338297
REMARK  8 active torsions:
REMARK  status: ('A' for Active; 'I' for Inactive)
REMARK    1  A    between atoms: S_1  and  N_7
REMARK    2  A    between atoms: S_1  and  C_18
REMARK    3  A    between atoms: O_5  and  C_25
REMARK    4  A    between atoms: O_5  and  C_29
REMARK    5  A    between atoms: N_6  and  C_17
REMARK    6  A    between atoms: N_7  and  C_12
REMARK    7  A    between atoms: C_13  and  C_16
REMARK    8  A    between atoms: C_19  and  C_22
REMARK                            x       y       z     vdW  Elec       q    Type
REMARK                         _______ _______ _______ _____ _____    ______ ____
ROOT
ATOM      6  N   UNL     1     -18.031   3.020  25.434  0.00  0.00    -0.293 NA
ATOM     12  C   UNL     1     -16.592   3.302  23.620  0.00  0.00    +0.092 C 
ATOM     13  C   UNL     1     -16.713   2.616  25.959  0.00  0.00    +0.147 C 
ATOM     14  C   UNL     1     -15.724   2.977  24.833  0.00  0.00    +0.050 C 
ATOM     15  C   UNL     1     -17.975   2.787  23.987  0.00  0.00    +0.105 C 
ATOM     17  C   UNL     1     -19.140   2.306  26.056  0.00  0.00    +0.105 C 
ENDROOT
BRANCH  13  16
ATOM      2  O   UNL     1     -16.908   4.491  27.515  0.00  0.00    -0.336 OA
ATOM      8  N   UNL     1     -15.586   2.834  28.239  0.00  0.00    -0.189 NA
ATOM      9  N   UNL     1     -16.440   4.889  28.773  0.00  0.00    -0.054 NA
ATOM     16  C   UNL     1     -16.358   3.271  27.276  0.00  0.00    +0.245 A 
ATOM     19  C   UNL     1     -15.666   3.860  29.135  0.00  0.00    +0.222 A 
BRANCH  19  22
ATOM     10  N   UNL     1     -15.147   4.875  31.212  0.00  0.00    -0.249 NA
ATOM     11  N   UNL     1     -13.476   2.726  31.887  0.00  0.00    -0.260 NA
ATOM     22  C   UNL     1     -14.963   3.826  30.385  0.00  0.00    +0.129 A 
ATOM     26  C   UNL     1     -14.142   2.770  30.717  0.00  0.00    +0.142 A 
ATOM     27  C   UNL     1     -14.480   4.830  32.383  0.00  0.00    +0.131 A 
ATOM     28  C   UNL     1     -13.659   3.774  32.715  0.00  0.00    +0.130 A 
ENDBRANCH  19  22
ENDBRANCH  13  16
BRANCH  12   7
ATOM      7  N   UNL     1     -16.636   4.771  23.410  0.00  0.00    -0.186 NA
ATOM     30  H   UNL     1     -16.817   5.361  24.232  0.00  0.00    +0.148 HD
BRANCH   7   1
ATOM      1  S   UNL     1     -16.802   5.394  21.841  0.00  0.00    +0.059 S 
ATOM      3  O   UNL     1     -17.688   6.542  21.867  0.00  0.00    -0.153 OA
ATOM      4  O   UNL     1     -17.058   4.296  20.929  0.00  0.00    -0.153 OA
BRANCH   1  18
ATOM     18  C   UNL     1     -15.167   5.975  21.504  0.00  0.00    +0.105 A 
ATOM     20  C   UNL     1     -14.978   7.098  20.697  0.00  0.00    +0.032 A 
ATOM     21  C   UNL     1     -14.065   5.309  22.040  0.00  0.00    +0.032 A 
ATOM     23  C   UNL     1     -13.688   7.555  20.428  0.00  0.00    +0.047 A 
ATOM     24  C   UNL     1     -12.775   5.765  21.772  0.00  0.00    +0.047 A 
ATOM     25  C   UNL     1     -12.587   6.888  20.965  0.00  0.00    +0.120 A 
BRANCH  25   5
ATOM      5  O   UNL     1     -11.328   7.334  20.703  0.00  0.00    -0.495 OA
ATOM     29  C   UNL     1     -11.134   8.055  19.487  0.00  0.00    +0.277 C 
ENDBRANCH  25   5
ENDBRANCH   1  18
ENDBRANCH   7   1
ENDBRANCH  12   7
TORSDOF 6
ENDMDL
