MODEL 1
REMARK VINA RESULT:      -7.6      0.000      0.000
REMARK  Name = 25338738
REMARK  7 active torsions:
REMARK  status: ('A' for Active; 'I' for Inactive)
REMARK    1  A    between atoms: O_3  and  C_24
REMARK    2  A    between atoms: O_3  and  C_28
REMARK    3  A    between atoms: N_4  and  C_13
REMARK    4  A    between atoms: N_5  and  C_8
REMARK    5  A    between atoms: C_9  and  C_12
REMARK    6  A    between atoms: C_14  and  C_16
REMARK    7  A    between atoms: C_15  and  C_17
REMARK                            x       y       z     vdW  Elec       q    Type
REMARK                         _______ _______ _______ _____ _____    ______ ____
ROOT
ATOM      4  N   UNL     1      13.338   9.056  18.476  0.00  0.00    -0.293 NA
ATOM      8  C   UNL     1      14.353   6.962  18.618  0.00  0.00    +0.089 C 
ATOM      9  C   UNL     1      12.347   8.233  19.195  0.00  0.00    +0.147 C 
ATOM     10  C   UNL     1      13.062   6.888  19.432  0.00  0.00    +0.052 C 
ATOM     11  C   UNL     1      14.121   8.122  17.661  0.00  0.00    +0.107 C 
ATOM     13  C   UNL     1      12.733  10.109  17.668  0.00  0.00    +0.105 C 
ENDROOT
BRANCH   9  12
ATOM      1  O   UNL     1      11.292   8.027  21.388  0.00  0.00    -0.336 OA
ATOM      6  N   UNL     1      11.890  10.118  20.855  0.00  0.00    -0.190 NA
ATOM      7  N   UNL     1      10.920   8.828  22.476  0.00  0.00    -0.056 NA
ATOM     12  C   UNL     1      11.855   8.865  20.480  0.00  0.00    +0.245 A 
ATOM     15  C   UNL     1      11.304  10.047  22.086  0.00  0.00    +0.202 A 
BRANCH  15  17
ATOM     17  C   UNL     1      11.121  11.213  22.901  0.00  0.00    +0.022 A 
ATOM     20  C   UNL     1      11.008  12.469  22.306  0.00  0.00    +0.012 A 
ATOM     21  C   UNL     1      11.057  11.088  24.289  0.00  0.00    +0.012 A 
ATOM     25  C   UNL     1      10.829  13.603  23.100  0.00  0.00    +0.001 A 
ATOM     26  C   UNL     1      10.878  12.222  25.083  0.00  0.00    +0.001 A 
ATOM     27  C   UNL     1      10.765  13.479  24.488  0.00  0.00    +0.000 A 
ENDBRANCH  15  17
ENDBRANCH   9  12
BRANCH   8   5
ATOM      2  O   UNL     1      16.842   5.534  18.562  0.00  0.00    -0.270 OA
ATOM      5  N   UNL     1      15.501   7.198  19.461  0.00  0.00    -0.307 N 
ATOM     14  C   UNL     1      16.664   6.451  19.359  0.00  0.00    +0.244 C 
ATOM     29  H   UNL     1      15.385   7.866  20.216  0.00  0.00    +0.149 HD
BRANCH  14  16
ATOM     16  C   UNL     1      17.745   6.800  20.317  0.00  0.00    +0.037 A 
ATOM     18  C   UNL     1      17.647   7.961  21.086  0.00  0.00    +0.016 A 
ATOM     19  C   UNL     1      18.856   5.968  20.448  0.00  0.00    +0.016 A 
ATOM     22  C   UNL     1      18.661   8.288  21.985  0.00  0.00    +0.046 A 
ATOM     23  C   UNL     1      19.871   6.296  21.348  0.00  0.00    +0.046 A 
ATOM     24  C   UNL     1      19.773   7.456  22.116  0.00  0.00    +0.120 A 
BRANCH  24   3
ATOM      3  O   UNL     1      20.763   7.776  22.993  0.00  0.00    -0.495 OA
ATOM     28  C   UNL     1      22.079   7.321  22.681  0.00  0.00    +0.277 C 
ENDBRANCH  24   3
ENDBRANCH  14  16
ENDBRANCH   8   5
TORSDOF 5
ENDMDL
MODEL 2
REMARK VINA RESULT:      -7.0     27.383     29.121
REMARK  Name = 25338738
REMARK  7 active torsions:
REMARK  status: ('A' for Active; 'I' for Inactive)
REMARK    1  A    between atoms: O_3  and  C_24
REMARK    2  A    between atoms: O_3  and  C_28
REMARK    3  A    between atoms: N_4  and  C_13
REMARK    4  A    between atoms: N_5  and  C_8
REMARK    5  A    between atoms: C_9  and  C_12
REMARK    6  A    between atoms: C_14  and  C_16
REMARK    7  A    between atoms: C_15  and  C_17
REMARK                            x       y       z     vdW  Elec       q    Type
REMARK                         _______ _______ _______ _____ _____    ______ ____
ROOT
ATOM      4  N   UNL     1      -4.448 -12.738  15.822  0.00  0.00    -0.293 NA
ATOM      8  C   UNL     1      -2.847 -11.344  14.857  0.00  0.00    +0.089 C 
ATOM      9  C   UNL     1      -4.128 -11.775  16.893  0.00  0.00    +0.147 C 
ATOM     10  C   UNL     1      -3.185 -10.754  16.225  0.00  0.00    +0.052 C 
ATOM     11  C   UNL     1      -3.254 -12.806  14.973  0.00  0.00    +0.107 C 
ATOM     13  C   UNL     1      -4.832 -14.051  16.326  0.00  0.00    +0.105 C 
ENDROOT
BRANCH   9  12
ATOM      1  O   UNL     1      -5.307 -10.895  18.842  0.00  0.00    -0.336 OA
ATOM      6  N   UNL     1      -6.463 -10.744  16.930  0.00  0.00    -0.190 NA
ATOM      7  N   UNL     1      -6.531 -10.297  19.172  0.00  0.00    -0.056 NA
ATOM     12  C   UNL     1      -5.351 -11.125  17.504  0.00  0.00    +0.245 A 
ATOM     15  C   UNL     1      -7.157 -10.243  17.993  0.00  0.00    +0.202 A 
BRANCH  15  17
ATOM     17  C   UNL     1      -8.472  -9.693  17.842  0.00  0.00    +0.022 A 
ATOM     20  C   UNL     1      -9.558 -10.297  18.474  0.00  0.00    +0.012 A 
ATOM     21  C   UNL     1      -8.665  -8.552  17.062  0.00  0.00    +0.012 A 
ATOM     25  C   UNL     1     -10.839  -9.762  18.327  0.00  0.00    +0.001 A 
ATOM     26  C   UNL     1      -9.945  -8.016  16.915  0.00  0.00    +0.001 A 
ATOM     27  C   UNL     1     -11.031  -8.622  17.547  0.00  0.00    +0.000 A 
ENDBRANCH  15  17
ENDBRANCH   9  12
BRANCH   8   5
ATOM      2  O   UNL     1      -2.025 -11.091  12.118  0.00  0.00    -0.270 OA
ATOM      5  N   UNL     1      -3.570 -10.680  13.798  0.00  0.00    -0.307 N 
ATOM     14  C   UNL     1      -3.088 -10.610  12.500  0.00  0.00    +0.244 C 
ATOM     29  H   UNL     1      -4.402 -10.165  14.065  0.00  0.00    +0.149 HD
BRANCH  14  16
ATOM     16  C   UNL     1      -3.938  -9.868  11.533  0.00  0.00    +0.037 A 
ATOM     18  C   UNL     1      -3.419  -9.493  10.293  0.00  0.00    +0.016 A 
ATOM     19  C   UNL     1      -5.254  -9.548  11.864  0.00  0.00    +0.016 A 
ATOM     22  C   UNL     1      -4.217  -8.797   9.386  0.00  0.00    +0.046 A 
ATOM     23  C   UNL     1      -6.053  -8.851  10.956  0.00  0.00    +0.046 A 
ATOM     24  C   UNL     1      -5.533  -8.476   9.717  0.00  0.00    +0.120 A 
BRANCH  24   3
ATOM      3  O   UNL     1      -6.312  -7.796   8.831  0.00  0.00    -0.495 OA
ATOM     28  C   UNL     1      -7.716  -8.046   8.876  0.00  0.00    +0.277 C 
ENDBRANCH  24   3
ENDBRANCH  14  16
ENDBRANCH   8   5
TORSDOF 5
ENDMDL
MODEL 3
REMARK VINA RESULT:      -6.9      3.460      8.135
REMARK  Name = 25338738
REMARK  7 active torsions:
REMARK  status: ('A' for Active; 'I' for Inactive)
REMARK    1  A    between atoms: O_3  and  C_24
REMARK    2  A    between atoms: O_3  and  C_28
REMARK    3  A    between atoms: N_4  and  C_13
REMARK    4  A    between atoms: N_5  and  C_8
REMARK    5  A    between atoms: C_9  and  C_12
REMARK    6  A    between atoms: C_14  and  C_16
REMARK    7  A    between atoms: C_15  and  C_17
REMARK                            x       y       z     vdW  Elec       q    Type
REMARK                         _______ _______ _______ _____ _____    ______ ____
ROOT
ATOM      4  N   UNL     1      13.798   8.480  20.190  0.00  0.00    -0.293 NA
ATOM      8  C   UNL     1      12.770   8.652  18.105  0.00  0.00    +0.089 C 
ATOM      9  C   UNL     1      14.026   7.159  19.575  0.00  0.00    +0.147 C 
ATOM     10  C   UNL     1      13.487   7.304  18.138  0.00  0.00    +0.052 C 
ATOM     11  C   UNL     1      12.576   9.005  19.572  0.00  0.00    +0.107 C 
ATOM     13  C   UNL     1      13.693   8.426  21.644  0.00  0.00    +0.105 C 
ENDROOT
BRANCH   9  12
ATOM      1  O   UNL     1      15.939   6.078  18.508  0.00  0.00    -0.336 OA
ATOM      6  N   UNL     1      16.362   6.862  20.562  0.00  0.00    -0.190 NA
ATOM      7  N   UNL     1      17.280   5.772  18.773  0.00  0.00    -0.056 NA
ATOM     12  C   UNL     1      15.474   6.718  19.612  0.00  0.00    +0.245 A 
ATOM     15  C   UNL     1      17.455   6.265  20.002  0.00  0.00    +0.202 A 
BRANCH  15  17
ATOM     17  C   UNL     1      18.706   6.181  20.697  0.00  0.00    +0.022 A 
ATOM     20  C   UNL     1      19.690   5.297  20.258  0.00  0.00    +0.012 A 
ATOM     21  C   UNL     1      18.937   6.986  21.814  0.00  0.00    +0.012 A 
ATOM     25  C   UNL     1      20.908   5.216  20.935  0.00  0.00    +0.001 A 
ATOM     26  C   UNL     1      20.155   6.905  22.491  0.00  0.00    +0.001 A 
ATOM     27  C   UNL     1      21.140   6.020  22.051  0.00  0.00    +0.000 A 
ENDBRANCH  15  17
ENDBRANCH   9  12
BRANCH   8   5
ATOM      2  O   UNL     1      12.912   9.080  15.269  0.00  0.00    -0.270 OA
ATOM      5  N   UNL     1      13.554   9.655  17.422  0.00  0.00    -0.307 N 
ATOM     14  C   UNL     1      13.557   9.783  16.042  0.00  0.00    +0.244 C 
ATOM     29  H   UNL     1      14.196  10.198  17.989  0.00  0.00    +0.149 HD
BRANCH  14  16
ATOM     16  C   UNL     1      14.438  10.846  15.492  0.00  0.00    +0.037 A 
ATOM     18  C   UNL     1      14.206  12.183  15.821  0.00  0.00    +0.016 A 
ATOM     19  C   UNL     1      15.496  10.508  14.649  0.00  0.00    +0.016 A 
ATOM     22  C   UNL     1      15.032  13.180  15.304  0.00  0.00    +0.046 A 
ATOM     23  C   UNL     1      16.323  11.507  14.133  0.00  0.00    +0.046 A 
ATOM     24  C   UNL     1      16.090  12.843  14.460  0.00  0.00    +0.120 A 
BRANCH  24   3
ATOM      3  O   UNL     1      16.897  13.816  13.956  0.00  0.00    -0.495 OA
ATOM     28  C   UNL     1      17.008  13.896  12.536  0.00  0.00    +0.277 C 
ENDBRANCH  24   3
ENDBRANCH  14  16
ENDBRANCH   8   5
TORSDOF 5
ENDMDL
MODEL 4
REMARK VINA RESULT:      -6.8     27.394     29.183
REMARK  Name = 25338738
REMARK  7 active torsions:
REMARK  status: ('A' for Active; 'I' for Inactive)
REMARK    1  A    between atoms: O_3  and  C_24
REMARK    2  A    between atoms: O_3  and  C_28
REMARK    3  A    between atoms: N_4  and  C_13
REMARK    4  A    between atoms: N_5  and  C_8
REMARK    5  A    between atoms: C_9  and  C_12
REMARK    6  A    between atoms: C_14  and  C_16
REMARK    7  A    between atoms: C_15  and  C_17
REMARK                            x       y       z     vdW  Elec       q    Type
REMARK                         _______ _______ _______ _____ _____    ______ ____
ROOT
ATOM      4  N   UNL     1      -5.866 -12.206  16.756  0.00  0.00    -0.293 NA
ATOM      8  C   UNL     1      -3.966 -10.926  16.329  0.00  0.00    +0.089 C 
ATOM      9  C   UNL     1      -6.021 -11.040  17.646  0.00  0.00    +0.147 C 
ATOM     10  C   UNL     1      -4.852 -10.108  17.268  0.00  0.00    +0.052 C 
ATOM     11  C   UNL     1      -4.424 -12.361  16.543  0.00  0.00    +0.107 C 
ATOM     13  C   UNL     1      -6.471 -13.421  17.290  0.00  0.00    +0.105 C 
ENDROOT
BRANCH   9  12
ATOM      1  O   UNL     1      -8.275 -10.637  18.497  0.00  0.00    -0.336 OA
ATOM      6  N   UNL     1      -7.801  -9.535  16.606  0.00  0.00    -0.190 NA
ATOM      7  N   UNL     1      -9.426  -9.906  18.173  0.00  0.00    -0.056 NA
ATOM     12  C   UNL     1      -7.368 -10.361  17.524  0.00  0.00    +0.245 A 
ATOM     15  C   UNL     1      -9.068  -9.283  17.047  0.00  0.00    +0.202 A 
BRANCH  15  17
ATOM     17  C   UNL     1      -9.950  -8.402  16.338  0.00  0.00    +0.022 A 
ATOM     20  C   UNL     1     -10.389  -7.223  16.939  0.00  0.00    +0.012 A 
ATOM     21  C   UNL     1     -10.369  -8.726  15.047  0.00  0.00    +0.012 A 
ATOM     25  C   UNL     1     -11.247  -6.365  16.250  0.00  0.00    +0.001 A 
ATOM     26  C   UNL     1     -11.228  -7.868  14.357  0.00  0.00    +0.001 A 
ATOM     27  C   UNL     1     -11.666  -6.688  14.959  0.00  0.00    +0.000 A 
ENDBRANCH  15  17
ENDBRANCH   9  12
BRANCH   8   5
ATOM      2  O   UNL     1      -2.117 -11.367  14.177  0.00  0.00    -0.270 OA
ATOM      5  N   UNL     1      -4.132 -10.520  14.953  0.00  0.00    -0.307 N 
ATOM     14  C   UNL     1      -3.178 -10.779  13.981  0.00  0.00    +0.244 C 
ATOM     29  H   UNL     1      -4.932  -9.933  14.743  0.00  0.00    +0.149 HD
BRANCH  14  16
ATOM     16  C   UNL     1      -3.486 -10.272  12.619  0.00  0.00    +0.037 A 
ATOM     18  C   UNL     1      -2.452 -10.036  11.713  0.00  0.00    +0.016 A 
ATOM     19  C   UNL     1      -4.809 -10.034  12.247  0.00  0.00    +0.016 A 
ATOM     22  C   UNL     1      -2.742  -9.560  10.434  0.00  0.00    +0.046 A 
ATOM     23  C   UNL     1      -5.099  -9.558  10.968  0.00  0.00    +0.046 A 
ATOM     24  C   UNL     1      -4.065  -9.321  10.062  0.00  0.00    +0.120 A 
BRANCH  24   3
ATOM      3  O   UNL     1      -4.348  -8.856   8.814  0.00  0.00    -0.495 OA
ATOM     28  C   UNL     1      -5.133  -9.698   7.971  0.00  0.00    +0.277 C 
ENDBRANCH  24   3
ENDBRANCH  14  16
ENDBRANCH   8   5
TORSDOF 5
ENDMDL
MODEL 5
REMARK VINA RESULT:      -6.7     27.094     29.527
REMARK  Name = 25338738
REMARK  7 active torsions:
REMARK  status: ('A' for Active; 'I' for Inactive)
REMARK    1  A    between atoms: O_3  and  C_24
REMARK    2  A    between atoms: O_3  and  C_28
REMARK    3  A    between atoms: N_4  and  C_13
REMARK    4  A    between atoms: N_5  and  C_8
REMARK    5  A    between atoms: C_9  and  C_12
REMARK    6  A    between atoms: C_14  and  C_16
REMARK    7  A    between atoms: C_15  and  C_17
REMARK                            x       y       z     vdW  Elec       q    Type
REMARK                         _______ _______ _______ _____ _____    ______ ____
ROOT
ATOM      4  N   UNL     1      -8.462 -12.350  17.596  0.00  0.00    -0.293 NA
ATOM      8  C   UNL     1      -6.325 -12.095  18.493  0.00  0.00    +0.089 C 
ATOM      9  C   UNL     1      -8.594 -11.187  18.493  0.00  0.00    +0.147 C 
ATOM     10  C   UNL     1      -7.156 -10.909  18.978  0.00  0.00    +0.052 C 
ATOM     11  C   UNL     1      -7.360 -13.152  18.137  0.00  0.00    +0.107 C 
ATOM     13  C   UNL     1      -9.691 -13.125  17.476  0.00  0.00    +0.105 C 
ENDROOT
BRANCH   9  12
ATOM      1  O   UNL     1      -8.387  -8.972  17.484  0.00  0.00    -0.336 OA
ATOM      6  N   UNL     1     -10.482  -9.761  17.535  0.00  0.00    -0.190 NA
ATOM      7  N   UNL     1      -9.190  -7.984  16.898  0.00  0.00    -0.056 NA
ATOM     12  C   UNL     1      -9.227  -9.982  17.830  0.00  0.00    +0.245 A 
ATOM     15  C   UNL     1     -10.411  -8.522  16.966  0.00  0.00    +0.202 A 
BRANCH  15  17
ATOM     17  C   UNL     1     -11.579  -7.853  16.472  0.00  0.00    +0.022 A 
ATOM     20  C   UNL     1     -12.835  -8.439  16.621  0.00  0.00    +0.012 A 
ATOM     21  C   UNL     1     -11.457  -6.614  15.841  0.00  0.00    +0.012 A 
ATOM     25  C   UNL     1     -13.971  -7.787  16.141  0.00  0.00    +0.001 A 
ATOM     26  C   UNL     1     -12.593  -5.961  15.361  0.00  0.00    +0.001 A 
ATOM     27  C   UNL     1     -13.850  -6.549  15.510  0.00  0.00    +0.000 A 
ENDBRANCH  15  17
ENDBRANCH   9  12
BRANCH   8   5
ATOM      2  O   UNL     1      -3.531 -11.435  18.506  0.00  0.00    -0.270 OA
ATOM      5  N   UNL     1      -5.516 -11.745  17.348  0.00  0.00    -0.307 N 
ATOM     14  C   UNL     1      -4.169 -11.440  17.456  0.00  0.00    +0.244 C 
ATOM     29  H   UNL     1      -6.001 -11.621  16.466  0.00  0.00    +0.149 HD
BRANCH  14  16
ATOM     16  C   UNL     1      -3.484 -11.074  16.190  0.00  0.00    +0.037 A 
ATOM     18  C   UNL     1      -2.135 -10.716  16.204  0.00  0.00    +0.016 A 
ATOM     19  C   UNL     1      -4.189 -11.089  14.987  0.00  0.00    +0.016 A 
ATOM     22  C   UNL     1      -1.493 -10.372  15.015  0.00  0.00    +0.046 A 
ATOM     23  C   UNL     1      -3.546 -10.746  13.797  0.00  0.00    +0.046 A 
ATOM     24  C   UNL     1      -2.198 -10.387  13.812  0.00  0.00    +0.120 A 
BRANCH  24   3
ATOM      3  O   UNL     1      -1.571 -10.051  12.651  0.00  0.00    -0.495 OA
ATOM     28  C   UNL     1      -2.346 -10.111  11.454  0.00  0.00    +0.277 C 
ENDBRANCH  24   3
ENDBRANCH  14  16
ENDBRANCH   8   5
TORSDOF 5
ENDMDL
MODEL 6
REMARK VINA RESULT:      -6.5     29.432     31.542
REMARK  Name = 25338738
REMARK  7 active torsions:
REMARK  status: ('A' for Active; 'I' for Inactive)
REMARK    1  A    between atoms: O_3  and  C_24
REMARK    2  A    between atoms: O_3  and  C_28
REMARK    3  A    between atoms: N_4  and  C_13
REMARK    4  A    between atoms: N_5  and  C_8
REMARK    5  A    between atoms: C_9  and  C_12
REMARK    6  A    between atoms: C_14  and  C_16
REMARK    7  A    between atoms: C_15  and  C_17
REMARK                            x       y       z     vdW  Elec       q    Type
REMARK                         _______ _______ _______ _____ _____    ______ ____
ROOT
ATOM      4  N   UNL     1     -13.722  -5.967  12.094  0.00  0.00    -0.293 NA
ATOM      8  C   UNL     1     -12.876  -5.411  14.194  0.00  0.00    +0.089 C 
ATOM      9  C   UNL     1     -13.030  -4.685  11.866  0.00  0.00    +0.147 C 
ATOM     10  C   UNL     1     -12.335  -4.378  13.208  0.00  0.00    +0.052 C 
ATOM     11  C   UNL     1     -14.115  -5.966  13.507  0.00  0.00    +0.107 C 
ATOM     13  C   UNL     1     -14.866  -6.168  11.212  0.00  0.00    +0.105 C 
ENDROOT
BRANCH   9  12
ATOM      1  O   UNL     1     -11.570  -3.524  10.289  0.00  0.00    -0.336 OA
ATOM      6  N   UNL     1     -11.616  -5.747  10.025  0.00  0.00    -0.190 NA
ATOM      7  N   UNL     1     -10.709  -3.808   9.220  0.00  0.00    -0.056 NA
ATOM     12  C   UNL     1     -12.061  -4.721  10.703  0.00  0.00    +0.245 A 
ATOM     15  C   UNL     1     -10.791  -5.138   9.125  0.00  0.00    +0.202 A 
BRANCH  15  17
ATOM     17  C   UNL     1     -10.059  -5.888   8.146  0.00  0.00    +0.022 A 
ATOM     20  C   UNL     1      -8.686  -6.079   8.296  0.00  0.00    +0.012 A 
ATOM     21  C   UNL     1     -10.723  -6.426   7.042  0.00  0.00    +0.012 A 
ATOM     25  C   UNL     1      -7.975  -6.810   7.343  0.00  0.00    +0.001 A 
ATOM     26  C   UNL     1     -10.011  -7.156   6.089  0.00  0.00    +0.001 A 
ATOM     27  C   UNL     1      -8.638  -7.347   6.240  0.00  0.00    +0.000 A 
ENDBRANCH  15  17
ENDBRANCH   9  12
BRANCH   8   5
ATOM      2  O   UNL     1     -11.418  -5.820  16.633  0.00  0.00    -0.270 OA
ATOM      5  N   UNL     1     -11.910  -6.452  14.457  0.00  0.00    -0.307 N 
ATOM     14  C   UNL     1     -11.254  -6.568  15.672  0.00  0.00    +0.244 C 
ATOM     29  H   UNL     1     -11.643  -7.038  13.673  0.00  0.00    +0.149 HD
BRANCH  14  16
ATOM     16  C   UNL     1     -10.270  -7.676  15.775  0.00  0.00    +0.037 A 
ATOM     18  C   UNL     1     -10.037  -8.506  14.677  0.00  0.00    +0.016 A 
ATOM     19  C   UNL     1      -9.578  -7.886  16.967  0.00  0.00    +0.016 A 
ATOM     22  C   UNL     1      -9.113  -9.546  14.774  0.00  0.00    +0.046 A 
ATOM     23  C   UNL     1      -8.653  -8.926  17.064  0.00  0.00    +0.046 A 
ATOM     24  C   UNL     1      -8.422  -9.757  15.967  0.00  0.00    +0.120 A 
BRANCH  24   3
ATOM      3  O   UNL     1      -7.520 -10.772  16.061  0.00  0.00    -0.495 OA
ATOM     28  C   UNL     1      -6.271 -10.475  16.683  0.00  0.00    +0.277 C 
ENDBRANCH  24   3
ENDBRANCH  14  16
ENDBRANCH   8   5
TORSDOF 5
ENDMDL
MODEL 7
REMARK VINA RESULT:      -6.5     27.967     30.413
REMARK  Name = 25338738
REMARK  7 active torsions:
REMARK  status: ('A' for Active; 'I' for Inactive)
REMARK    1  A    between atoms: O_3  and  C_24
REMARK    2  A    between atoms: O_3  and  C_28
REMARK    3  A    between atoms: N_4  and  C_13
REMARK    4  A    between atoms: N_5  and  C_8
REMARK    5  A    between atoms: C_9  and  C_12
REMARK    6  A    between atoms: C_14  and  C_16
REMARK    7  A    between atoms: C_15  and  C_17
REMARK                            x       y       z     vdW  Elec       q    Type
REMARK                         _______ _______ _______ _____ _____    ______ ____
ROOT
ATOM      4  N   UNL     1     -11.212 -11.238  17.456  0.00  0.00    -0.293 NA
ATOM      8  C   UNL     1      -9.545 -11.284  19.084  0.00  0.00    +0.089 C 
ATOM      9  C   UNL     1     -11.416  -9.983  18.202  0.00  0.00    +0.147 C 
ATOM     10  C   UNL     1     -10.229  -9.922  19.185  0.00  0.00    +0.052 C 
ATOM     11  C   UNL     1     -10.575 -12.166  18.395  0.00  0.00    +0.107 C 
ATOM     13  C   UNL     1     -12.447 -11.785  16.904  0.00  0.00    +0.105 C 
ENDROOT
BRANCH   9  12
ATOM      1  O   UNL     1     -10.405  -7.957  17.287  0.00  0.00    -0.336 OA
ATOM      6  N   UNL     1     -12.485  -8.349  16.558  0.00  0.00    -0.190 NA
ATOM      7  N   UNL     1     -10.715  -6.907  16.412  0.00  0.00    -0.056 NA
ATOM     12  C   UNL     1     -11.500  -8.759  17.315  0.00  0.00    +0.245 A 
ATOM     15  C   UNL     1     -11.958  -7.209  16.024  0.00  0.00    +0.202 A 
BRANCH  15  17
ATOM     17  C   UNL     1     -12.698  -6.395  15.104  0.00  0.00    +0.022 A 
ATOM     20  C   UNL     1     -14.078  -6.559  14.984  0.00  0.00    +0.012 A 
ATOM     21  C   UNL     1     -12.037  -5.441  14.330  0.00  0.00    +0.012 A 
ATOM     25  C   UNL     1     -14.798  -5.767  14.088  0.00  0.00    +0.001 A 
ATOM     26  C   UNL     1     -12.758  -4.649  13.435  0.00  0.00    +0.001 A 
ATOM     27  C   UNL     1     -14.138  -4.813  13.314  0.00  0.00    +0.000 A 
ENDBRANCH  15  17
ENDBRANCH   9  12
BRANCH   8   5
ATOM      2  O   UNL     1      -6.930 -10.653  20.089  0.00  0.00    -0.270 OA
ATOM      5  N   UNL     1      -8.322 -11.209  18.319  0.00  0.00    -0.307 N 
ATOM     14  C   UNL     1      -7.102 -10.894  18.897  0.00  0.00    +0.244 C 
ATOM     29  H   UNL     1      -8.407 -11.287  17.311  0.00  0.00    +0.149 HD
BRANCH  14  16
ATOM     16  C   UNL     1      -5.943 -10.830  17.970  0.00  0.00    +0.037 A 
ATOM     18  C   UNL     1      -4.744 -11.460  18.307  0.00  0.00    +0.016 A 
ATOM     19  C   UNL     1      -6.054 -10.142  16.762  0.00  0.00    +0.016 A 
ATOM     22  C   UNL     1      -3.657 -11.400  17.436  0.00  0.00    +0.046 A 
ATOM     23  C   UNL     1      -4.965 -10.082  15.891  0.00  0.00    +0.046 A 
ATOM     24  C   UNL     1      -3.767 -10.711  16.228  0.00  0.00    +0.120 A 
BRANCH  24   3
ATOM      3  O   UNL     1      -2.705 -10.652  15.379  0.00  0.00    -0.495 OA
ATOM     28  C   UNL     1      -1.404 -10.672  15.963  0.00  0.00    +0.277 C 
ENDBRANCH  24   3
ENDBRANCH  14  16
ENDBRANCH   8   5
TORSDOF 5
ENDMDL
MODEL 8
REMARK VINA RESULT:      -6.5     27.771     30.674
REMARK  Name = 25338738
REMARK  7 active torsions:
REMARK  status: ('A' for Active; 'I' for Inactive)
REMARK    1  A    between atoms: O_3  and  C_24
REMARK    2  A    between atoms: O_3  and  C_28
REMARK    3  A    between atoms: N_4  and  C_13
REMARK    4  A    between atoms: N_5  and  C_8
REMARK    5  A    between atoms: C_9  and  C_12
REMARK    6  A    between atoms: C_14  and  C_16
REMARK    7  A    between atoms: C_15  and  C_17
REMARK                            x       y       z     vdW  Elec       q    Type
REMARK                         _______ _______ _______ _____ _____    ______ ____
ROOT
ATOM      4  N   UNL     1      -7.483 -10.495   9.458  0.00  0.00    -0.293 NA
ATOM      8  C   UNL     1      -7.167  -8.501   8.293  0.00  0.00    +0.089 C 
ATOM      9  C   UNL     1      -6.150 -10.041   9.895  0.00  0.00    +0.147 C 
ATOM     10  C   UNL     1      -5.988  -8.647   9.253  0.00  0.00    +0.052 C 
ATOM     11  C   UNL     1      -7.686  -9.921   8.124  0.00  0.00    +0.107 C 
ATOM     13  C   UNL     1      -7.621 -11.948   9.451  0.00  0.00    +0.105 C 
ENDROOT
BRANCH   9  12
ATOM      1  O   UNL     1      -7.012  -9.473  12.109  0.00  0.00    -0.336 OA
ATOM      6  N   UNL     1      -4.988 -10.430  12.134  0.00  0.00    -0.190 NA
ATOM      7  N   UNL     1      -6.635  -9.553  13.456  0.00  0.00    -0.056 NA
ATOM     12  C   UNL     1      -5.986 -10.010  11.399  0.00  0.00    +0.245 A 
ATOM     15  C   UNL     1      -5.431 -10.128  13.389  0.00  0.00    +0.202 A 
BRANCH  15  17
ATOM     17  C   UNL     1      -4.647 -10.417  14.554  0.00  0.00    +0.022 A 
ATOM     20  C   UNL     1      -5.223 -10.332  15.821  0.00  0.00    +0.012 A 
ATOM     21  C   UNL     1      -3.307 -10.781  14.419  0.00  0.00    +0.012 A 
ATOM     25  C   UNL     1      -4.460 -10.613  16.955  0.00  0.00    +0.001 A 
ATOM     26  C   UNL     1      -2.543 -11.063  15.554  0.00  0.00    +0.001 A 
ATOM     27  C   UNL     1      -3.121 -10.978  16.821  0.00  0.00    +0.000 A 
ENDBRANCH  15  17
ENDBRANCH   9  12
BRANCH   8   5
ATOM      2  O   UNL     1      -8.789  -6.647   6.818  0.00  0.00    -0.270 OA
ATOM      5  N   UNL     1      -8.186  -7.629   8.830  0.00  0.00    -0.307 N 
ATOM     14  C   UNL     1      -8.919  -6.764   8.034  0.00  0.00    +0.244 C 
ATOM     29  H   UNL     1      -8.270  -7.593   9.840  0.00  0.00    +0.149 HD
BRANCH  14  16
ATOM     16  C   UNL     1      -9.911  -5.914   8.742  0.00  0.00    +0.037 A 
ATOM     18  C   UNL     1      -9.834  -4.524   8.645  0.00  0.00    +0.016 A 
ATOM     19  C   UNL     1     -10.918  -6.506   9.504  0.00  0.00    +0.016 A 
ATOM     22  C   UNL     1     -10.764  -3.727   9.311  0.00  0.00    +0.046 A 
ATOM     23  C   UNL     1     -11.849  -5.708  10.170  0.00  0.00    +0.046 A 
ATOM     24  C   UNL     1     -11.772  -4.318  10.073  0.00  0.00    +0.120 A 
BRANCH  24   3
ATOM      3  O   UNL     1     -12.680  -3.541  10.723  0.00  0.00    -0.495 OA
ATOM     28  C   UNL     1     -12.603  -3.505  12.148  0.00  0.00    +0.277 C 
ENDBRANCH  24   3
ENDBRANCH  14  16
ENDBRANCH   8   5
TORSDOF 5
ENDMDL
MODEL 9
REMARK VINA RESULT:      -6.3     13.793     16.422
REMARK  Name = 25338738
REMARK  7 active torsions:
REMARK  status: ('A' for Active; 'I' for Inactive)
REMARK    1  A    between atoms: O_3  and  C_24
REMARK    2  A    between atoms: O_3  and  C_28
REMARK    3  A    between atoms: N_4  and  C_13
REMARK    4  A    between atoms: N_5  and  C_8
REMARK    5  A    between atoms: C_9  and  C_12
REMARK    6  A    between atoms: C_14  and  C_16
REMARK    7  A    between atoms: C_15  and  C_17
REMARK                            x       y       z     vdW  Elec       q    Type
REMARK                         _______ _______ _______ _____ _____    ______ ____
ROOT
ATOM      4  N   UNL     1      17.748  -7.725  27.833  0.00  0.00    -0.293 NA
ATOM      8  C   UNL     1      15.915  -7.371  29.229  0.00  0.00    +0.089 C 
ATOM      9  C   UNL     1      16.617  -7.579  26.898  0.00  0.00    +0.147 C 
ATOM     10  C   UNL     1      15.423  -7.193  27.793  0.00  0.00    +0.052 C 
ATOM     11  C   UNL     1      17.171  -8.218  29.088  0.00  0.00    +0.107 C 
ATOM     13  C   UNL     1      18.797  -8.607  27.334  0.00  0.00    +0.105 C 
ENDROOT
BRANCH   9  12
ATOM      1  O   UNL     1      17.177  -7.073  24.575  0.00  0.00    -0.336 OA
ATOM      6  N   UNL     1      16.837  -5.263  25.847  0.00  0.00    -0.190 NA
ATOM      7  N   UNL     1      17.365  -5.966  23.736  0.00  0.00    -0.056 NA
ATOM     12  C   UNL     1      16.870  -6.570  25.798  0.00  0.00    +0.245 A 
ATOM     15  C   UNL     1      17.148  -4.937  24.559  0.00  0.00    +0.202 A 
BRANCH  15  17
ATOM     17  C   UNL     1      17.231  -3.572  24.127  0.00  0.00    +0.022 A 
ATOM     20  C   UNL     1      17.619  -3.276  22.821  0.00  0.00    +0.012 A 
ATOM     21  C   UNL     1      16.923  -2.540  25.015  0.00  0.00    +0.012 A 
ATOM     25  C   UNL     1      17.699  -1.947  22.401  0.00  0.00    +0.001 A 
ATOM     26  C   UNL     1      17.003  -1.212  24.595  0.00  0.00    +0.001 A 
ATOM     27  C   UNL     1      17.392  -0.916  23.288  0.00  0.00    +0.000 A 
ENDBRANCH  15  17
ENDBRANCH   9  12
BRANCH   8   5
ATOM      2  O   UNL     1      14.039  -5.642  30.546  0.00  0.00    -0.270 OA
ATOM      5  N   UNL     1      16.204  -6.101  29.853  0.00  0.00    -0.307 N 
ATOM     14  C   UNL     1      15.225  -5.334  30.466  0.00  0.00    +0.244 C 
ATOM     29  H   UNL     1      17.141  -5.733  29.729  0.00  0.00    +0.149 HD
BRANCH  14  16
ATOM     16  C   UNL     1      15.680  -4.041  31.038  0.00  0.00    +0.037 A 
ATOM     18  C   UNL     1      15.618  -3.827  32.415  0.00  0.00    +0.016 A 
ATOM     19  C   UNL     1      16.169  -3.041  30.197  0.00  0.00    +0.016 A 
ATOM     22  C   UNL     1      16.044  -2.612  32.951  0.00  0.00    +0.046 A 
ATOM     23  C   UNL     1      16.596  -1.825  30.734  0.00  0.00    +0.046 A 
ATOM     24  C   UNL     1      16.533  -1.611  32.111  0.00  0.00    +0.120 A 
BRANCH  24   3
ATOM      3  O   UNL     1      16.949  -0.426  32.634  0.00  0.00    -0.495 OA
ATOM     28  C   UNL     1      17.790   0.386  31.815  0.00  0.00    +0.277 C 
ENDBRANCH  24   3
ENDBRANCH  14  16
ENDBRANCH   8   5
TORSDOF 5
ENDMDL
MODEL 10
REMARK VINA RESULT:      -6.3     28.013     30.511
REMARK  Name = 25338738
REMARK  7 active torsions:
REMARK  status: ('A' for Active; 'I' for Inactive)
REMARK    1  A    between atoms: O_3  and  C_24
REMARK    2  A    between atoms: O_3  and  C_28
REMARK    3  A    between atoms: N_4  and  C_13
REMARK    4  A    between atoms: N_5  and  C_8
REMARK    5  A    between atoms: C_9  and  C_12
REMARK    6  A    between atoms: C_14  and  C_16
REMARK    7  A    between atoms: C_15  and  C_17
REMARK                            x       y       z     vdW  Elec       q    Type
REMARK                         _______ _______ _______ _____ _____    ______ ____
ROOT
ATOM      4  N   UNL     1      -5.337 -11.690  17.747  0.00  0.00    -0.293 NA
ATOM      8  C   UNL     1      -7.538 -12.441  17.582  0.00  0.00    +0.089 C 
ATOM      9  C   UNL     1      -5.305 -12.627  16.609  0.00  0.00    +0.147 C 
ATOM     10  C   UNL     1      -6.780 -13.017  16.387  0.00  0.00    +0.052 C 
ATOM     11  C   UNL     1      -6.449 -12.129  18.597  0.00  0.00    +0.107 C 
ATOM     13  C   UNL     1      -4.079 -11.636  18.483  0.00  0.00    +0.105 C 
ENDROOT
BRANCH   9  12
ATOM      1  O   UNL     1      -3.357 -12.351  15.160  0.00  0.00    -0.336 OA
ATOM      6  N   UNL     1      -5.188 -11.279  14.444  0.00  0.00    -0.190 NA
ATOM      7  N   UNL     1      -2.992 -11.709  13.969  0.00  0.00    -0.056 NA
ATOM     12  C   UNL     1      -4.664 -12.045  15.366  0.00  0.00    +0.245 A 
ATOM     15  C   UNL     1      -4.124 -11.098  13.609  0.00  0.00    +0.202 A 
BRANCH  15  17
ATOM     17  C   UNL     1      -4.227 -10.302  12.420  0.00  0.00    +0.022 A 
ATOM     20  C   UNL     1      -3.134 -10.185  11.562  0.00  0.00    +0.012 A 
ATOM     21  C   UNL     1      -5.422  -9.645  12.123  0.00  0.00    +0.012 A 
ATOM     25  C   UNL     1      -3.235  -9.411  10.405  0.00  0.00    +0.001 A 
ATOM     26  C   UNL     1      -5.522  -8.871  10.966  0.00  0.00    +0.001 A 
ATOM     27  C   UNL     1      -4.429  -8.754  10.108  0.00  0.00    +0.000 A 
ENDBRANCH  15  17
ENDBRANCH   9  12
BRANCH   8   5
ATOM      2  O   UNL     1      -9.738 -11.286  19.021  0.00  0.00    -0.270 OA
ATOM      5  N   UNL     1      -8.275 -11.252  17.221  0.00  0.00    -0.307 N 
ATOM     14  C   UNL     1      -9.328 -10.771  17.983  0.00  0.00    +0.244 C 
ATOM     29  H   UNL     1      -8.064 -10.839  16.319  0.00  0.00    +0.149 HD
BRANCH  14  16
ATOM     16  C   UNL     1     -10.001  -9.553  17.462  0.00  0.00    +0.037 A 
ATOM     18  C   UNL     1     -11.388  -9.430  17.553  0.00  0.00    +0.016 A 
ATOM     19  C   UNL     1      -9.247  -8.533  16.884  0.00  0.00    +0.016 A 
ATOM     22  C   UNL     1     -12.020  -8.287  17.063  0.00  0.00    +0.046 A 
ATOM     23  C   UNL     1      -9.879  -7.389  16.394  0.00  0.00    +0.046 A 
ATOM     24  C   UNL     1     -11.266  -7.267  16.484  0.00  0.00    +0.120 A 
BRANCH  24   3
ATOM      3  O   UNL     1     -11.882  -6.152  16.006  0.00  0.00    -0.495 OA
ATOM     28  C   UNL     1     -13.065  -6.344  15.233  0.00  0.00    +0.277 C 
ENDBRANCH  24   3
ENDBRANCH  14  16
ENDBRANCH   8   5
TORSDOF 5
ENDMDL
