MODEL 1
REMARK VINA RESULT:      -6.5      0.000      0.000
REMARK  Name = 11885096
REMARK  13 active torsions:
REMARK  status: ('A' for Active; 'I' for Inactive)
REMARK    1  A    between atoms: O_2  and  C_14
REMARK    2  A    between atoms: O_3  and  C_19
REMARK    3  A    between atoms: C_9  and  C_17
REMARK    4  A    between atoms: C_11  and  C_19
REMARK    5  A    between atoms: C_11  and  C_20
REMARK    6  A    between atoms: C_12  and  C_22
REMARK    7  A    between atoms: C_22  and  C_23
REMARK    8  A    between atoms: C_29  and  C_30
REMARK    9  A    between atoms: C_31  and  C_32
REMARK   10  A    between atoms: C_32  and  C_33
REMARK   11  A    between atoms: C_33  and  C_34
REMARK   12  A    between atoms: C_34  and  C_35
REMARK   13  A    between atoms: C_35  and  C_36
REMARK                            x       y       z     vdW  Elec       q    Type
REMARK                         _______ _______ _______ _____ _____    ______ ____
ROOT
ATOM      1  S   UNL     1      10.166   5.079   3.380  0.00  0.00    -0.057 S 
ATOM      5  O   UNL     1      12.239   8.102   6.259  0.00  0.00    -0.275 OA
ATOM      6  N   UNL     1      12.280   6.524   3.748  0.00  0.00    -0.229 NA
ATOM      8  N   UNL     1      10.579   6.634   5.451  0.00  0.00    -0.265 N 
ATOM      9  C   UNL     1      13.799   4.868   0.614  0.00  0.00    -0.019 C 
ATOM     10  C   UNL     1      12.375   4.678  -0.071  0.00  0.00    +0.011 C 
ATOM     11  C   UNL     1      12.338   3.888  -1.436  0.00  0.00    +0.021 C 
ATOM     12  C   UNL     1      13.670   6.032   1.702  0.00  0.00    +0.054 C 
ATOM     13  C   UNL     1      14.832   5.310  -0.454  0.00  0.00    +0.010 C 
ATOM     14  C   UNL     1      13.462   4.424  -2.369  0.00  0.00    +0.123 C 
ATOM     15  C   UNL     1      11.306   4.205   0.956  0.00  0.00    +0.049 C 
ATOM     16  C   UNL     1      14.833   4.443  -1.705  0.00  0.00    +0.032 C 
ATOM     17  C   UNL     1      14.313   3.578   1.300  0.00  0.00    +0.012 C 
ATOM     18  C   UNL     1      12.443   5.844   2.556  0.00  0.00    +0.058 A 
ATOM     20  C   UNL     1      10.980   4.163  -2.144  0.00  0.00    +0.016 C 
ATOM     21  C   UNL     1      11.387   5.033   2.193  0.00  0.00    +0.015 A 
ATOM     24  C   UNL     1      11.120   6.193   4.274  0.00  0.00    +0.165 A 
ATOM     31  C   UNL     1      11.152   7.543   6.360  0.00  0.00    +0.219 C 
ATOM     39  H   UNL     1       9.662   6.249   5.673  0.00  0.00    +0.157 HD
ENDROOT
BRANCH  14   2
ATOM      2  O   UNL     1      13.539   3.643  -3.561  0.00  0.00    -0.391 OA
ATOM     37  H   UNL     1      14.362   3.878  -4.021  0.00  0.00    +0.210 HD
ENDBRANCH  14   2
BRANCH  11  19
ATOM     19  C   UNL     1      12.427   2.354  -1.291  0.00  0.00    +0.165 C 
BRANCH  19   3
ATOM      3  O   UNL     1      11.706   1.776  -2.356  0.00  0.00    -0.394 OA
ATOM     38  H   UNL     1      12.163   0.960  -2.622  0.00  0.00    +0.209 HD
ENDBRANCH  19   3
ENDBRANCH  11  19
BRANCH  12  22
ATOM     22  C   UNL     1      14.925   6.244   2.560  0.00  0.00    +0.106 C 
BRANCH  22  23
ATOM      4  O   UNL     1      15.634   8.065   1.221  0.00  0.00    -0.276 OA
ATOM      7  N   UNL     1      15.692   8.387   3.521  0.00  0.00    -0.301 N 
ATOM     23  C   UNL     1      15.448   7.646   2.366  0.00  0.00    +0.216 C 
ATOM     25  C   UNL     1      16.164   9.769   3.414  0.00  0.00    +0.108 C 
ATOM     26  C   UNL     1      15.481   7.916   4.895  0.00  0.00    +0.108 C 
ATOM     27  C   UNL     1      17.450   9.969   4.212  0.00  0.00    +0.022 C 
ATOM     28  C   UNL     1      16.754   8.079   5.725  0.00  0.00    +0.022 C 
ATOM     29  C   UNL     1      17.274   9.524   5.671  0.00  0.00    -0.011 C 
ATOM     30  C   UNL     1      18.584   9.658   6.443  0.00  0.00    +0.007 C 
ENDBRANCH  22  23
ENDBRANCH  12  22
BRANCH  31  32
ATOM     32  C   UNL     1      10.235   7.780   7.554  0.00  0.00    +0.096 C 
BRANCH  32  33
ATOM     33  C   UNL     1       9.405   6.549   7.912  0.00  0.00    +0.009 C 
BRANCH  33  34
ATOM     34  C   UNL     1      10.272   5.459   8.545  0.00  0.00    +0.000 C 
BRANCH  34  35
ATOM     35  C   UNL     1       9.418   4.308   9.074  0.00  0.00    -0.003 C 
ATOM     36  C   UNL     1       8.672   4.703  10.338  0.00  0.00    +0.004 C 
ENDBRANCH  34  35
ENDBRANCH  33  34
ENDBRANCH  32  33
ENDBRANCH  31  32
TORSDOF 9
ENDMDL
MODEL 2
REMARK VINA RESULT:      -6.4      2.570      7.215
REMARK  Name = 11885096
REMARK  13 active torsions:
REMARK  status: ('A' for Active; 'I' for Inactive)
REMARK    1  A    between atoms: O_2  and  C_14
REMARK    2  A    between atoms: O_3  and  C_19
REMARK    3  A    between atoms: C_9  and  C_17
REMARK    4  A    between atoms: C_11  and  C_19
REMARK    5  A    between atoms: C_11  and  C_20
REMARK    6  A    between atoms: C_12  and  C_22
REMARK    7  A    between atoms: C_22  and  C_23
REMARK    8  A    between atoms: C_29  and  C_30
REMARK    9  A    between atoms: C_31  and  C_32
REMARK   10  A    between atoms: C_32  and  C_33
REMARK   11  A    between atoms: C_33  and  C_34
REMARK   12  A    between atoms: C_34  and  C_35
REMARK   13  A    between atoms: C_35  and  C_36
REMARK                            x       y       z     vdW  Elec       q    Type
REMARK                         _______ _______ _______ _____ _____    ______ ____
ROOT
ATOM      1  S   UNL     1      14.000   7.985   6.589  0.00  0.00    -0.057 S 
ATOM      5  O   UNL     1      11.299   5.756   3.515  0.00  0.00    -0.275 OA
ATOM      6  N   UNL     1      13.876   7.067   4.174  0.00  0.00    -0.229 NA
ATOM      8  N   UNL     1      11.928   6.753   5.557  0.00  0.00    -0.265 N 
ATOM      9  C   UNL     1      17.299   8.714   3.510  0.00  0.00    -0.019 C 
ATOM     10  C   UNL     1      17.768   8.530   5.021  0.00  0.00    +0.011 C 
ATOM     11  C   UNL     1      19.155   9.164   5.421  0.00  0.00    +0.021 C 
ATOM     12  C   UNL     1      16.137   7.655   3.223  0.00  0.00    +0.054 C 
ATOM     13  C   UNL     1      18.485   8.407   2.560  0.00  0.00    +0.010 C 
ATOM     14  C   UNL     1      20.216   8.798   4.344  0.00  0.00    +0.123 C 
ATOM     15  C   UNL     1      16.618   8.856   6.018  0.00  0.00    +0.049 C 
ATOM     16  C   UNL     1      19.771   9.135   2.925  0.00  0.00    +0.032 C 
ATOM     17  C   UNL     1      16.779  10.141   3.212  0.00  0.00    +0.012 C 
ATOM     18  C   UNL     1      15.117   7.653   4.332  0.00  0.00    +0.058 A 
ATOM     20  C   UNL     1      19.629   8.540   6.765  0.00  0.00    +0.016 C 
ATOM     21  C   UNL     1      15.361   8.181   5.584  0.00  0.00    +0.015 A 
ATOM     24  C   UNL     1      13.198   7.189   5.295  0.00  0.00    +0.165 A 
ATOM     31  C   UNL     1      11.065   6.076   4.674  0.00  0.00    +0.219 C 
ATOM     39  H   UNL     1      11.592   6.951   6.497  0.00  0.00    +0.157 HD
ENDROOT
BRANCH  14   2
ATOM      2  O   UNL     1      21.450   9.463   4.608  0.00  0.00    -0.391 OA
ATOM     37  H   UNL     1      21.346  10.398   4.364  0.00  0.00    +0.210 HD
ENDBRANCH  14   2
BRANCH  11  19
ATOM     19  C   UNL     1      19.118  10.688   5.662  0.00  0.00    +0.165 C 
BRANCH  19   3
ATOM      3  O   UNL     1      20.170  11.013   6.542  0.00  0.00    -0.394 OA
ATOM     38  H   UNL     1      19.780  11.322   7.378  0.00  0.00    +0.209 HD
ENDBRANCH  19   3
ENDBRANCH  11  19
BRANCH  12  22
ATOM     22  C   UNL     1      15.470   7.797   1.848  0.00  0.00    +0.106 C 
BRANCH  22  23
ATOM      4  O   UNL     1      17.071   7.073   0.258  0.00  0.00    -0.276 OA
ATOM      7  N   UNL     1      15.377   5.570   0.781  0.00  0.00    -0.301 N 
ATOM     23  C   UNL     1      16.050   6.786   0.890  0.00  0.00    +0.216 C 
ATOM     25  C   UNL     1      15.901   4.524  -0.099  0.00  0.00    +0.108 C 
ATOM     26  C   UNL     1      14.163   5.201   1.518  0.00  0.00    +0.108 C 
ATOM     27  C   UNL     1      14.836   4.063  -1.092  0.00  0.00    +0.022 C 
ATOM     28  C   UNL     1      13.062   4.753   0.559  0.00  0.00    +0.022 C 
ATOM     29  C   UNL     1      13.552   3.631  -0.369  0.00  0.00    -0.011 C 
ATOM     30  C   UNL     1      12.468   3.242  -1.371  0.00  0.00    +0.007 C 
ENDBRANCH  22  23
ENDBRANCH  12  22
BRANCH  31  32
ATOM     32  C   UNL     1       9.733   5.759   5.342  0.00  0.00    +0.096 C 
BRANCH  32  33
ATOM     33  C   UNL     1       9.854   4.676   6.413  0.00  0.00    +0.009 C 
BRANCH  33  34
ATOM     34  C   UNL     1       9.524   5.226   7.801  0.00  0.00    +0.000 C 
BRANCH  34  35
ATOM     35  C   UNL     1       9.463   4.109   8.841  0.00  0.00    -0.003 C 
ATOM     36  C   UNL     1       9.053   4.640  10.206  0.00  0.00    +0.004 C 
ENDBRANCH  34  35
ENDBRANCH  33  34
ENDBRANCH  32  33
ENDBRANCH  31  32
TORSDOF 9
ENDMDL
MODEL 3
REMARK VINA RESULT:      -6.3     25.497     28.870
REMARK  Name = 11885096
REMARK  13 active torsions:
REMARK  status: ('A' for Active; 'I' for Inactive)
REMARK    1  A    between atoms: O_2  and  C_14
REMARK    2  A    between atoms: O_3  and  C_19
REMARK    3  A    between atoms: C_9  and  C_17
REMARK    4  A    between atoms: C_11  and  C_19
REMARK    5  A    between atoms: C_11  and  C_20
REMARK    6  A    between atoms: C_12  and  C_22
REMARK    7  A    between atoms: C_22  and  C_23
REMARK    8  A    between atoms: C_29  and  C_30
REMARK    9  A    between atoms: C_31  and  C_32
REMARK   10  A    between atoms: C_32  and  C_33
REMARK   11  A    between atoms: C_33  and  C_34
REMARK   12  A    between atoms: C_34  and  C_35
REMARK   13  A    between atoms: C_35  and  C_36
REMARK                            x       y       z     vdW  Elec       q    Type
REMARK                         _______ _______ _______ _____ _____    ______ ____
ROOT
ATOM      1  S   UNL     1      -6.083 -10.271  10.428  0.00  0.00    -0.057 S 
ATOM      5  O   UNL     1     -10.422  -8.665  10.990  0.00  0.00    -0.275 OA
ATOM      6  N   UNL     1      -7.878  -9.622  12.175  0.00  0.00    -0.229 NA
ATOM      8  N   UNL     1      -8.481  -9.376   9.855  0.00  0.00    -0.265 N 
ATOM      9  C   UNL     1      -5.511 -10.957  14.911  0.00  0.00    -0.019 C 
ATOM     10  C   UNL     1      -4.208 -10.572  14.081  0.00  0.00    +0.011 C 
ATOM     11  C   UNL     1      -2.819 -11.012  14.685  0.00  0.00    +0.021 C 
ATOM     12  C   UNL     1      -6.720 -10.062  14.372  0.00  0.00    +0.054 C 
ATOM     13  C   UNL     1      -5.286 -10.626  16.408  0.00  0.00    +0.010 C 
ATOM     14  C   UNL     1      -2.779 -10.648  16.197  0.00  0.00    +0.123 C 
ATOM     15  C   UNL     1      -4.371 -10.914  12.572  0.00  0.00    +0.049 C 
ATOM     16  C   UNL     1      -3.982 -11.172  16.972  0.00  0.00    +0.032 C 
ATOM     17  C   UNL     1      -5.883 -12.455  14.783  0.00  0.00    +0.012 C 
ATOM     18  C   UNL     1      -6.762 -10.055  12.866  0.00  0.00    +0.058 A 
ATOM     20  C   UNL     1      -1.685 -10.208  13.987  0.00  0.00    +0.016 C 
ATOM     21  C   UNL     1      -5.690 -10.424  12.078  0.00  0.00    +0.015 A 
ATOM     24  C   UNL     1      -7.638  -9.700  10.883  0.00  0.00    +0.165 A 
ATOM     31  C   UNL     1      -9.797  -8.888   9.959  0.00  0.00    +0.219 C 
ATOM     39  H   UNL     1      -8.093  -9.512   8.923  0.00  0.00    +0.157 HD
ENDROOT
BRANCH  14   2
ATOM      2  O   UNL     1      -1.588 -11.148  16.803  0.00  0.00    -0.391 OA
ATOM     37  H   UNL     1      -1.417 -10.626  17.604  0.00  0.00    +0.210 HD
ENDBRANCH  14   2
BRANCH  11  19
ATOM     19  C   UNL     1      -2.467 -12.499  14.467  0.00  0.00    +0.165 C 
BRANCH  19   3
ATOM      3  O   UNL     1      -1.108 -12.573  14.100  0.00  0.00    -0.394 OA
ATOM     38  H   UNL     1      -0.997 -12.100  13.258  0.00  0.00    +0.209 HD
ENDBRANCH  19   3
ENDBRANCH  11  19
BRANCH  12  22
ATOM     22  C   UNL     1      -8.089 -10.413  14.970  0.00  0.00    +0.106 C 
BRANCH  22  23
ATOM      4  O   UNL     1      -7.891  -8.955  16.828  0.00  0.00    -0.276 OA
ATOM      7  N   UNL     1      -9.772  -8.681  15.491  0.00  0.00    -0.301 N 
ATOM     23  C   UNL     1      -8.568  -9.285  15.850  0.00  0.00    +0.216 C 
ATOM     25  C   UNL     1     -10.282  -7.553  16.274  0.00  0.00    +0.108 C 
ATOM     26  C   UNL     1     -10.599  -9.051  14.337  0.00  0.00    +0.108 C 
ATOM     27  C   UNL     1     -11.709  -7.821  16.748  0.00  0.00    +0.022 C 
ATOM     28  C   UNL     1     -12.033  -9.349  14.771  0.00  0.00    +0.022 C 
ATOM     29  C   UNL     1     -12.628  -8.180  15.571  0.00  0.00    -0.011 C 
ATOM     30  C   UNL     1     -14.033  -8.518  16.062  0.00  0.00    +0.007 C 
ENDBRANCH  22  23
ENDBRANCH  12  22
BRANCH  31  32
ATOM     32  C   UNL     1     -10.405  -8.647   8.583  0.00  0.00    +0.096 C 
BRANCH  32  33
ATOM     33  C   UNL     1     -10.673  -7.168   8.309  0.00  0.00    +0.009 C 
BRANCH  33  34
ATOM     34  C   UNL     1      -9.381  -6.423   7.970  0.00  0.00    +0.000 C 
BRANCH  34  35
ATOM     35  C   UNL     1      -9.378  -5.017   8.571  0.00  0.00    -0.003 C 
ATOM     36  C   UNL     1     -10.762  -4.616   9.056  0.00  0.00    +0.004 C 
ENDBRANCH  34  35
ENDBRANCH  33  34
ENDBRANCH  32  33
ENDBRANCH  31  32
TORSDOF 9
ENDMDL
MODEL 4
REMARK VINA RESULT:      -6.2     26.797     29.751
REMARK  Name = 11885096
REMARK  13 active torsions:
REMARK  status: ('A' for Active; 'I' for Inactive)
REMARK    1  A    between atoms: O_2  and  C_14
REMARK    2  A    between atoms: O_3  and  C_19
REMARK    3  A    between atoms: C_9  and  C_17
REMARK    4  A    between atoms: C_11  and  C_19
REMARK    5  A    between atoms: C_11  and  C_20
REMARK    6  A    between atoms: C_12  and  C_22
REMARK    7  A    between atoms: C_22  and  C_23
REMARK    8  A    between atoms: C_29  and  C_30
REMARK    9  A    between atoms: C_31  and  C_32
REMARK   10  A    between atoms: C_32  and  C_33
REMARK   11  A    between atoms: C_33  and  C_34
REMARK   12  A    between atoms: C_34  and  C_35
REMARK   13  A    between atoms: C_35  and  C_36
REMARK                            x       y       z     vdW  Elec       q    Type
REMARK                         _______ _______ _______ _____ _____    ______ ____
ROOT
ATOM      1  S   UNL     1     -10.296  -8.079  17.400  0.00  0.00    -0.057 S 
ATOM      5  O   UNL     1     -11.934  -7.289  13.109  0.00  0.00    -0.275 OA
ATOM      6  N   UNL     1     -10.025  -8.684  14.900  0.00  0.00    -0.229 NA
ATOM      8  N   UNL     1     -11.753  -7.097  15.453  0.00  0.00    -0.265 N 
ATOM      9  C   UNL     1      -6.899 -10.725  15.865  0.00  0.00    -0.019 C 
ATOM     10  C   UNL     1      -7.482 -11.083  17.304  0.00  0.00    +0.011 C 
ATOM     11  C   UNL     1      -6.530 -11.868  18.285  0.00  0.00    +0.021 C 
ATOM     12  C   UNL     1      -8.129 -10.347  14.917  0.00  0.00    +0.054 C 
ATOM     13  C   UNL     1      -6.189 -11.969  15.272  0.00  0.00    +0.010 C 
ATOM     14  C   UNL     1      -5.867 -13.050  17.521  0.00  0.00    +0.123 C 
ATOM     15  C   UNL     1      -8.180  -9.855  17.957  0.00  0.00    +0.049 C 
ATOM     16  C   UNL     1      -5.195 -12.622  16.222  0.00  0.00    +0.032 C 
ATOM     17  C   UNL     1      -5.895  -9.547  15.900  0.00  0.00    +0.012 C 
ATOM     18  C   UNL     1      -9.072  -9.394  15.605  0.00  0.00    +0.058 A 
ATOM     20  C   UNL     1      -7.380 -12.481  19.434  0.00  0.00    +0.016 C 
ATOM     21  C   UNL     1      -9.090  -9.203  16.972  0.00  0.00    +0.015 A 
ATOM     24  C   UNL     1     -10.722  -7.951  15.741  0.00  0.00    +0.165 A 
ATOM     31  C   UNL     1     -12.291  -6.817  14.183  0.00  0.00    +0.219 C 
ATOM     39  H   UNL     1     -12.157  -6.626  16.259  0.00  0.00    +0.157 HD
ENDROOT
BRANCH  14   2
ATOM      2  O   UNL     1      -4.902 -13.703  18.344  0.00  0.00    -0.391 OA
ATOM     37  H   UNL     1      -4.450 -13.025  18.873  0.00  0.00    +0.210 HD
ENDBRANCH  14   2
BRANCH  11  19
ATOM     19  C   UNL     1      -5.463 -10.995  18.980  0.00  0.00    +0.165 C 
BRANCH  19   3
ATOM      3  O   UNL     1      -5.334 -11.445  20.310  0.00  0.00    -0.394 OA
ATOM     38  H   UNL     1      -5.269 -12.415  20.295  0.00  0.00    +0.209 HD
ENDBRANCH  19   3
ENDBRANCH  11  19
BRANCH  12  22
ATOM     22  C   UNL     1      -7.728  -9.834  13.528  0.00  0.00    +0.106 C 
BRANCH  22  23
ATOM      4  O   UNL     1      -8.192 -11.874  12.414  0.00  0.00    -0.276 OA
ATOM      7  N   UNL     1      -6.059 -10.999  12.127  0.00  0.00    -0.301 N 
ATOM     23  C   UNL     1      -7.355 -10.996  12.640  0.00  0.00    +0.216 C 
ATOM     25  C   UNL     1      -5.635 -12.073  11.225  0.00  0.00    +0.108 C 
ATOM     26  C   UNL     1      -5.042  -9.971  12.377  0.00  0.00    +0.108 C 
ATOM     27  C   UNL     1      -4.364 -12.745  11.740  0.00  0.00    +0.022 C 
ATOM     28  C   UNL     1      -3.757 -10.600  12.914  0.00  0.00    +0.022 C 
ATOM     29  C   UNL     1      -3.252 -11.716  11.986  0.00  0.00    -0.011 C 
ATOM     30  C   UNL     1      -2.010 -12.386  12.569  0.00  0.00    +0.007 C 
ENDBRANCH  22  23
ENDBRANCH  12  22
BRANCH  31  32
ATOM     32  C   UNL     1     -13.432  -5.812  14.279  0.00  0.00    +0.096 C 
BRANCH  32  33
ATOM     33  C   UNL     1     -13.914  -5.336  12.909  0.00  0.00    +0.009 C 
BRANCH  33  34
ATOM     34  C   UNL     1     -13.720  -3.828  12.746  0.00  0.00    +0.000 C 
BRANCH  34  35
ATOM     35  C   UNL     1     -12.324  -3.503  12.214  0.00  0.00    -0.003 C 
ATOM     36  C   UNL     1     -12.046  -4.220  10.903  0.00  0.00    +0.004 C 
ENDBRANCH  34  35
ENDBRANCH  33  34
ENDBRANCH  32  33
ENDBRANCH  31  32
TORSDOF 9
ENDMDL
MODEL 5
REMARK VINA RESULT:      -6.2      3.891      9.094
REMARK  Name = 11885096
REMARK  13 active torsions:
REMARK  status: ('A' for Active; 'I' for Inactive)
REMARK    1  A    between atoms: O_2  and  C_14
REMARK    2  A    between atoms: O_3  and  C_19
REMARK    3  A    between atoms: C_9  and  C_17
REMARK    4  A    between atoms: C_11  and  C_19
REMARK    5  A    between atoms: C_11  and  C_20
REMARK    6  A    between atoms: C_12  and  C_22
REMARK    7  A    between atoms: C_22  and  C_23
REMARK    8  A    between atoms: C_29  and  C_30
REMARK    9  A    between atoms: C_31  and  C_32
REMARK   10  A    between atoms: C_32  and  C_33
REMARK   11  A    between atoms: C_33  and  C_34
REMARK   12  A    between atoms: C_34  and  C_35
REMARK   13  A    between atoms: C_35  and  C_36
REMARK                            x       y       z     vdW  Elec       q    Type
REMARK                         _______ _______ _______ _____ _____    ______ ____
ROOT
ATOM      1  S   UNL     1      11.105   4.202   1.970  0.00  0.00    -0.057 S 
ATOM      5  O   UNL     1       9.421   5.874  -2.041  0.00  0.00    -0.275 OA
ATOM      6  N   UNL     1       9.886   6.200   0.870  0.00  0.00    -0.229 NA
ATOM      8  N   UNL     1      10.479   4.362  -0.571  0.00  0.00    -0.265 N 
ATOM      9  C   UNL     1       9.447   7.705   4.393  0.00  0.00    -0.019 C 
ATOM     10  C   UNL     1      10.799   7.053   4.925  0.00  0.00    +0.011 C 
ATOM     11  C   UNL     1      11.126   7.235   6.457  0.00  0.00    +0.021 C 
ATOM     12  C   UNL     1       9.534   7.786   2.799  0.00  0.00    +0.054 C 
ATOM     13  C   UNL     1       9.316   9.146   4.949  0.00  0.00    +0.010 C 
ATOM     14  C   UNL     1      10.900   8.721   6.857  0.00  0.00    +0.123 C 
ATOM     15  C   UNL     1      10.964   5.591   4.418  0.00  0.00    +0.049 C 
ATOM     16  C   UNL     1       9.528   9.248   6.453  0.00  0.00    +0.032 C 
ATOM     17  C   UNL     1       8.190   6.898   4.799  0.00  0.00    +0.012 C 
ATOM     18  C   UNL     1      10.022   6.486   2.215  0.00  0.00    +0.058 A 
ATOM     20  C   UNL     1      12.630   6.916   6.695  0.00  0.00    +0.016 C 
ATOM     21  C   UNL     1      10.678   5.523   2.956  0.00  0.00    +0.015 A 
ATOM     24  C   UNL     1      10.412   5.019   0.628  0.00  0.00    +0.165 A 
ATOM     31  C   UNL     1       9.991   4.813  -1.813  0.00  0.00    +0.219 C 
ATOM     39  H   UNL     1      10.933   3.452  -0.537  0.00  0.00    +0.157 HD
ENDROOT
BRANCH  14   2
ATOM      2  O   UNL     1      11.062   8.893   8.264  0.00  0.00    -0.391 OA
ATOM     37  H   UNL     1      11.961   9.227   8.424  0.00  0.00    +0.210 HD
ENDBRANCH  14   2
BRANCH  11  19
ATOM     19  C   UNL     1      10.348   6.287   7.395  0.00  0.00    +0.165 C 
BRANCH  19   3
ATOM      3  O   UNL     1      11.289   5.554   8.147  0.00  0.00    -0.394 OA
ATOM     38  H   UNL     1      12.177   5.865   7.904  0.00  0.00    +0.209 HD
ENDBRANCH  19   3
ENDBRANCH  11  19
BRANCH  12  22
ATOM     22  C   UNL     1       8.245   8.261   2.114  0.00  0.00    +0.106 C 
BRANCH  22  23
ATOM      4  O   UNL     1       9.291  10.198   1.239  0.00  0.00    -0.276 OA
ATOM      7  N   UNL     1       7.265  10.518   2.331  0.00  0.00    -0.301 N 
ATOM     23  C   UNL     1       8.321   9.744   1.851  0.00  0.00    +0.216 C 
ATOM     25  C   UNL     1       7.247  11.961   2.080  0.00  0.00    +0.108 C 
ATOM     26  C   UNL     1       6.099  10.008   3.061  0.00  0.00    +0.108 C 
ATOM     27  C   UNL     1       7.099  12.738   3.386  0.00  0.00    +0.022 C 
ATOM     28  C   UNL     1       5.926  10.746   4.388  0.00  0.00    +0.022 C 
ATOM     29  C   UNL     1       5.869  12.267   4.176  0.00  0.00    -0.011 C 
ATOM     30  C   UNL     1       5.770  12.997   5.513  0.00  0.00    +0.007 C 
ENDBRANCH  22  23
ENDBRANCH  12  22
BRANCH  31  32
ATOM     32  C   UNL     1      10.258   3.792  -2.912  0.00  0.00    +0.096 C 
BRANCH  32  33
ATOM     33  C   UNL     1      11.132   2.632  -2.438  0.00  0.00    +0.009 C 
BRANCH  33  34
ATOM     34  C   UNL     1      12.422   2.539  -3.254  0.00  0.00    +0.000 C 
BRANCH  34  35
ATOM     35  C   UNL     1      13.235   3.829  -3.156  0.00  0.00    -0.003 C 
ATOM     36  C   UNL     1      13.871   3.984  -1.784  0.00  0.00    +0.004 C 
ENDBRANCH  34  35
ENDBRANCH  33  34
ENDBRANCH  32  33
ENDBRANCH  31  32
TORSDOF 9
ENDMDL
MODEL 6
REMARK VINA RESULT:      -6.2      2.735      6.840
REMARK  Name = 11885096
REMARK  13 active torsions:
REMARK  status: ('A' for Active; 'I' for Inactive)
REMARK    1  A    between atoms: O_2  and  C_14
REMARK    2  A    between atoms: O_3  and  C_19
REMARK    3  A    between atoms: C_9  and  C_17
REMARK    4  A    between atoms: C_11  and  C_19
REMARK    5  A    between atoms: C_11  and  C_20
REMARK    6  A    between atoms: C_12  and  C_22
REMARK    7  A    between atoms: C_22  and  C_23
REMARK    8  A    between atoms: C_29  and  C_30
REMARK    9  A    between atoms: C_31  and  C_32
REMARK   10  A    between atoms: C_32  and  C_33
REMARK   11  A    between atoms: C_33  and  C_34
REMARK   12  A    between atoms: C_34  and  C_35
REMARK   13  A    between atoms: C_35  and  C_36
REMARK                            x       y       z     vdW  Elec       q    Type
REMARK                         _______ _______ _______ _____ _____    ______ ____
ROOT
ATOM      1  S   UNL     1      13.745   7.983   6.780  0.00  0.00    -0.057 S 
ATOM      5  O   UNL     1      10.810   5.450   4.194  0.00  0.00    -0.275 OA
ATOM      6  N   UNL     1      13.409   6.849   4.480  0.00  0.00    -0.229 NA
ATOM      8  N   UNL     1      11.611   6.636   6.069  0.00  0.00    -0.265 N 
ATOM      9  C   UNL     1      16.716   8.475   3.341  0.00  0.00    -0.019 C 
ATOM     10  C   UNL     1      17.332   8.434   4.809  0.00  0.00    +0.011 C 
ATOM     11  C   UNL     1      18.737   9.119   5.014  0.00  0.00    +0.021 C 
ATOM     12  C   UNL     1      15.555   7.379   3.264  0.00  0.00    +0.054 C 
ATOM     13  C   UNL     1      17.812   8.099   2.311  0.00  0.00    +0.010 C 
ATOM     14  C   UNL     1      19.697   8.672   3.875  0.00  0.00    +0.123 C 
ATOM     15  C   UNL     1      16.277   8.834   5.881  0.00  0.00    +0.049 C 
ATOM     16  C   UNL     1      19.110   8.873   2.483  0.00  0.00    +0.032 C 
ATOM     17  C   UNL     1      16.138   9.862   2.970  0.00  0.00    +0.012 C 
ATOM     18  C   UNL     1      14.647   7.464   4.463  0.00  0.00    +0.058 A 
ATOM     20  C   UNL     1      19.351   8.626   6.355  0.00  0.00    +0.016 C 
ATOM     21  C   UNL     1      14.998   8.106   5.634  0.00  0.00    +0.015 A 
ATOM     24  C   UNL     1      12.840   7.063   5.647  0.00  0.00    +0.165 A 
ATOM     31  C   UNL     1      10.682   5.871   5.338  0.00  0.00    +0.219 C 
ATOM     39  H   UNL     1      11.362   6.913   7.016  0.00  0.00    +0.157 HD
ENDROOT
BRANCH  14   2
ATOM      2  O   UNL     1      20.936   9.374   3.957  0.00  0.00    -0.391 OA
ATOM     37  H   UNL     1      21.042   9.894   3.143  0.00  0.00    +0.210 HD
ENDBRANCH  14   2
BRANCH  11  19
ATOM     19  C   UNL     1      18.689  10.659   5.121  0.00  0.00    +0.165 C 
BRANCH  19   3
ATOM      3  O   UNL     1      19.692  11.061   6.027  0.00  0.00    -0.394 OA
ATOM     38  H   UNL     1      19.266  11.268   6.876  0.00  0.00    +0.209 HD
ENDBRANCH  19   3
ENDBRANCH  11  19
BRANCH  12  22
ATOM     22  C   UNL     1      14.757   7.387   1.954  0.00  0.00    +0.106 C 
BRANCH  22  23
ATOM      4  O   UNL     1      14.352   5.053   1.928  0.00  0.00    -0.276 OA
ATOM      7  N   UNL     1      15.378   5.947   0.045  0.00  0.00    -0.301 N 
ATOM     23  C   UNL     1      14.806   6.022   1.314  0.00  0.00    +0.216 C 
ATOM     25  C   UNL     1      15.426   4.662  -0.657  0.00  0.00    +0.108 C 
ATOM     26  C   UNL     1      15.926   7.080  -0.710  0.00  0.00    +0.108 C 
ATOM     27  C   UNL     1      16.854   4.331  -1.087  0.00  0.00    +0.022 C 
ATOM     28  C   UNL     1      17.364   6.798  -1.142  0.00  0.00    +0.022 C 
ATOM     29  C   UNL     1      17.465   5.472  -1.912  0.00  0.00    -0.011 C 
ATOM     30  C   UNL     1      18.916   5.164  -2.275  0.00  0.00    +0.007 C 
ENDBRANCH  22  23
ENDBRANCH  12  22
BRANCH  31  32
ATOM     32  C   UNL     1       9.428   5.598   6.159  0.00  0.00    +0.096 C 
BRANCH  32  33
ATOM     33  C   UNL     1       8.950   6.826   6.930  0.00  0.00    +0.009 C 
BRANCH  33  34
ATOM     34  C   UNL     1       8.971   6.578   8.439  0.00  0.00    +0.000 C 
BRANCH  34  35
ATOM     35  C   UNL     1       9.570   5.211   8.768  0.00  0.00    -0.003 C 
ATOM     36  C   UNL     1       9.014   4.659  10.071  0.00  0.00    +0.004 C 
ENDBRANCH  34  35
ENDBRANCH  33  34
ENDBRANCH  32  33
ENDBRANCH  31  32
TORSDOF 9
ENDMDL
MODEL 7
REMARK VINA RESULT:      -6.1     14.812     18.896
REMARK  Name = 11885096
REMARK  13 active torsions:
REMARK  status: ('A' for Active; 'I' for Inactive)
REMARK    1  A    between atoms: O_2  and  C_14
REMARK    2  A    between atoms: O_3  and  C_19
REMARK    3  A    between atoms: C_9  and  C_17
REMARK    4  A    between atoms: C_11  and  C_19
REMARK    5  A    between atoms: C_11  and  C_20
REMARK    6  A    between atoms: C_12  and  C_22
REMARK    7  A    between atoms: C_22  and  C_23
REMARK    8  A    between atoms: C_29  and  C_30
REMARK    9  A    between atoms: C_31  and  C_32
REMARK   10  A    between atoms: C_32  and  C_33
REMARK   11  A    between atoms: C_33  and  C_34
REMARK   12  A    between atoms: C_34  and  C_35
REMARK   13  A    between atoms: C_35  and  C_36
REMARK                            x       y       z     vdW  Elec       q    Type
REMARK                         _______ _______ _______ _____ _____    ______ ____
ROOT
ATOM      1  S   UNL     1      20.198  -6.653  -1.250  0.00  0.00    -0.057 S 
ATOM      5  O   UNL     1      16.865  -9.557  -2.725  0.00  0.00    -0.275 OA
ATOM      6  N   UNL     1      18.939  -8.852  -0.727  0.00  0.00    -0.229 NA
ATOM      8  N   UNL     1      18.288  -7.676  -2.728  0.00  0.00    -0.265 N 
ATOM      9  C   UNL     1      21.379  -9.398   2.209  0.00  0.00    -0.019 C 
ATOM     10  C   UNL     1      21.560  -7.835   2.451  0.00  0.00    +0.011 C 
ATOM     11  C   UNL     1      22.615  -7.397   3.538  0.00  0.00    +0.021 C 
ATOM     12  C   UNL     1      20.002  -9.619   1.428  0.00  0.00    +0.054 C 
ATOM     13  C   UNL     1      21.288 -10.125   3.575  0.00  0.00    +0.010 C 
ATOM     14  C   UNL     1      22.414  -8.253   4.822  0.00  0.00    +0.123 C 
ATOM     15  C   UNL     1      21.686  -7.060   1.107  0.00  0.00    +0.049 C 
ATOM     16  C   UNL     1      22.398  -9.752   4.547  0.00  0.00    +0.032 C 
ATOM     17  C   UNL     1      22.539 -10.017   1.391  0.00  0.00    +0.012 C 
ATOM     18  C   UNL     1      19.872  -8.659   0.274  0.00  0.00    +0.058 A 
ATOM     20  C   UNL     1      22.356  -5.913   3.928  0.00  0.00    +0.016 C 
ATOM     21  C   UNL     1      20.625  -7.507   0.160  0.00  0.00    +0.015 A 
ATOM     24  C   UNL     1      19.025  -7.862  -1.589  0.00  0.00    +0.165 A 
ATOM     31  C   UNL     1      17.271  -8.514  -3.224  0.00  0.00    +0.219 C 
ATOM     39  H   UNL     1      18.516  -6.837  -3.255  0.00  0.00    +0.157 HD
ENDROOT
BRANCH  14   2
ATOM      2  O   UNL     1      23.435  -7.972   5.778  0.00  0.00    -0.391 OA
ATOM     37  H   UNL     1      23.799  -8.818   6.086  0.00  0.00    +0.210 HD
ENDBRANCH  14   2
BRANCH  11  19
ATOM     19  C   UNL     1      24.083  -7.451   3.065  0.00  0.00    +0.165 C 
BRANCH  19   3
ATOM      3  O   UNL     1      24.734  -6.295   3.540  0.00  0.00    -0.394 OA
ATOM     38  H   UNL     1      24.072  -5.588   3.622  0.00  0.00    +0.209 HD
ENDBRANCH  19   3
ENDBRANCH  11  19
BRANCH  12  22
ATOM     22  C   UNL     1      19.745 -11.066   0.986  0.00  0.00    +0.106 C 
BRANCH  22  23
ATOM      4  O   UNL     1      17.862 -11.133   2.423  0.00  0.00    -0.276 OA
ATOM      7  N   UNL     1      17.636 -12.196   0.369  0.00  0.00    -0.301 N 
ATOM     23  C   UNL     1      18.331 -11.463   1.331  0.00  0.00    +0.216 C 
ATOM     25  C   UNL     1      16.246 -12.585   0.615  0.00  0.00    +0.108 C 
ATOM     26  C   UNL     1      18.166 -12.603  -0.937  0.00  0.00    +0.108 C 
ATOM     27  C   UNL     1      16.066 -14.092   0.453  0.00  0.00    +0.022 C 
ATOM     28  C   UNL     1      18.024 -14.112  -1.132  0.00  0.00    +0.022 C 
ATOM     29  C   UNL     1      16.573 -14.569  -0.916  0.00  0.00    -0.011 C 
ATOM     30  C   UNL     1      16.457 -16.086  -1.041  0.00  0.00    +0.007 C 
ENDBRANCH  22  23
ENDBRANCH  12  22
BRANCH  31  32
ATOM     32  C   UNL     1      16.688  -7.962  -4.519  0.00  0.00    +0.096 C 
BRANCH  32  33
ATOM     33  C   UNL     1      15.302  -8.525  -4.828  0.00  0.00    +0.009 C 
BRANCH  33  34
ATOM     34  C   UNL     1      14.258  -7.411  -4.921  0.00  0.00    +0.000 C 
BRANCH  34  35
ATOM     35  C   UNL     1      14.634  -6.223  -4.037  0.00  0.00    -0.003 C 
ATOM     36  C   UNL     1      13.424  -5.675  -3.296  0.00  0.00    +0.004 C 
ENDBRANCH  34  35
ENDBRANCH  33  34
ENDBRANCH  32  33
ENDBRANCH  31  32
TORSDOF 9
ENDMDL
MODEL 8
REMARK VINA RESULT:      -6.0      3.852      5.999
REMARK  Name = 11885096
REMARK  13 active torsions:
REMARK  status: ('A' for Active; 'I' for Inactive)
REMARK    1  A    between atoms: O_2  and  C_14
REMARK    2  A    between atoms: O_3  and  C_19
REMARK    3  A    between atoms: C_9  and  C_17
REMARK    4  A    between atoms: C_11  and  C_19
REMARK    5  A    between atoms: C_11  and  C_20
REMARK    6  A    between atoms: C_12  and  C_22
REMARK    7  A    between atoms: C_22  and  C_23
REMARK    8  A    between atoms: C_29  and  C_30
REMARK    9  A    between atoms: C_31  and  C_32
REMARK   10  A    between atoms: C_32  and  C_33
REMARK   11  A    between atoms: C_33  and  C_34
REMARK   12  A    between atoms: C_34  and  C_35
REMARK   13  A    between atoms: C_35  and  C_36
REMARK                            x       y       z     vdW  Elec       q    Type
REMARK                         _______ _______ _______ _____ _____    ______ ____
ROOT
ATOM      1  S   UNL     1      10.287   8.256  -0.930  0.00  0.00    -0.057 S 
ATOM      5  O   UNL     1       8.198   9.148   3.140  0.00  0.00    -0.275 OA
ATOM      6  N   UNL     1      10.328   7.763   1.610  0.00  0.00    -0.229 NA
ATOM      8  N   UNL     1       8.604   9.250   0.819  0.00  0.00    -0.265 N 
ATOM      9  C   UNL     1      13.121   5.192   0.934  0.00  0.00    -0.019 C 
ATOM     10  C   UNL     1      13.683   6.013  -0.309  0.00  0.00    +0.011 C 
ATOM     11  C   UNL     1      14.852   5.349  -1.134  0.00  0.00    +0.021 C 
ATOM     12  C   UNL     1      12.292   6.200   1.856  0.00  0.00    +0.054 C 
ATOM     13  C   UNL     1      14.306   4.633   1.763  0.00  0.00    +0.010 C 
ATOM     14  C   UNL     1      15.929   4.804  -0.152  0.00  0.00    +0.123 C 
ATOM     15  C   UNL     1      12.530   6.571  -1.192  0.00  0.00    +0.049 C 
ATOM     16  C   UNL     1      15.349   3.902   0.931  0.00  0.00    +0.032 C 
ATOM     17  C   UNL     1      12.209   4.013   0.513  0.00  0.00    +0.012 C 
ATOM     18  C   UNL     1      11.360   7.049   1.031  0.00  0.00    +0.058 A 
ATOM     20  C   UNL     1      15.535   6.438  -2.010  0.00  0.00    +0.016 C 
ATOM     21  C   UNL     1      11.496   7.216  -0.332  0.00  0.00    +0.015 A 
ATOM     24  C   UNL     1       9.689   8.429   0.672  0.00  0.00    +0.165 A 
ATOM     31  C   UNL     1       7.931   9.558   2.017  0.00  0.00    +0.219 C 
ATOM     39  H   UNL     1       8.264   9.671  -0.043  0.00  0.00    +0.157 HD
ENDROOT
BRANCH  14   2
ATOM      2  O   UNL     1      16.936   4.084  -0.861  0.00  0.00    -0.391 OA
ATOM     37  H   UNL     1      17.767   4.582  -0.789  0.00  0.00    +0.210 HD
ENDBRANCH  14   2
BRANCH  11  19
ATOM     19  C   UNL     1      14.397   4.250  -2.119  0.00  0.00    +0.165 C 
BRANCH  19   3
ATOM      3  O   UNL     1      15.167   4.376  -3.293  0.00  0.00    -0.394 OA
ATOM     38  H   UNL     1      16.053   4.688  -3.042  0.00  0.00    +0.209 HD
ENDBRANCH  19   3
ENDBRANCH  11  19
BRANCH  12  22
ATOM     22  C   UNL     1      11.558   5.536   3.028  0.00  0.00    +0.106 C 
BRANCH  22  23
ATOM      4  O   UNL     1      12.810   7.020   4.386  0.00  0.00    -0.276 OA
ATOM      7  N   UNL     1      10.839   6.195   5.298  0.00  0.00    -0.301 N 
ATOM     23  C   UNL     1      11.798   6.320   4.294  0.00  0.00    +0.216 C 
ATOM     25  C   UNL     1      10.982   6.957   6.541  0.00  0.00    +0.108 C 
ATOM     26  C   UNL     1       9.627   5.372   5.219  0.00  0.00    +0.108 C 
ATOM     27  C   UNL     1      10.928   6.031   7.755  0.00  0.00    +0.022 C 
ATOM     28  C   UNL     1       9.544   4.414   6.406  0.00  0.00    +0.022 C 
ATOM     29  C   UNL     1       9.658   5.168   7.740  0.00  0.00    -0.011 C 
ATOM     30  C   UNL     1       9.648   4.195   8.917  0.00  0.00    +0.007 C 
ENDBRANCH  22  23
ENDBRANCH  12  22
BRANCH  31  32
ATOM     32  C   UNL     1       6.770  10.512   1.765  0.00  0.00    +0.096 C 
BRANCH  32  33
ATOM     33  C   UNL     1       5.622  10.317   2.754  0.00  0.00    +0.009 C 
BRANCH  33  34
ATOM     34  C   UNL     1       4.346   9.864   2.043  0.00  0.00    +0.000 C 
BRANCH  34  35
ATOM     35  C   UNL     1       4.562   9.752   0.534  0.00  0.00    -0.003 C 
ATOM     36  C   UNL     1       3.258   9.924  -0.229  0.00  0.00    +0.004 C 
ENDBRANCH  34  35
ENDBRANCH  33  34
ENDBRANCH  32  33
ENDBRANCH  31  32
TORSDOF 9
ENDMDL
MODEL 9
REMARK VINA RESULT:      -6.0     27.932     32.149
REMARK  Name = 11885096
REMARK  13 active torsions:
REMARK  status: ('A' for Active; 'I' for Inactive)
REMARK    1  A    between atoms: O_2  and  C_14
REMARK    2  A    between atoms: O_3  and  C_19
REMARK    3  A    between atoms: C_9  and  C_17
REMARK    4  A    between atoms: C_11  and  C_19
REMARK    5  A    between atoms: C_11  and  C_20
REMARK    6  A    between atoms: C_12  and  C_22
REMARK    7  A    between atoms: C_22  and  C_23
REMARK    8  A    between atoms: C_29  and  C_30
REMARK    9  A    between atoms: C_31  and  C_32
REMARK   10  A    between atoms: C_32  and  C_33
REMARK   11  A    between atoms: C_33  and  C_34
REMARK   12  A    between atoms: C_34  and  C_35
REMARK   13  A    between atoms: C_35  and  C_36
REMARK                            x       y       z     vdW  Elec       q    Type
REMARK                         _______ _______ _______ _____ _____    ______ ____
ROOT
ATOM      1  S   UNL     1      -8.929  -9.323  14.018  0.00  0.00    -0.057 S 
ATOM      5  O   UNL     1     -13.174  -8.762  15.857  0.00  0.00    -0.275 OA
ATOM      6  N   UNL     1     -10.381  -9.722  16.121  0.00  0.00    -0.229 NA
ATOM      8  N   UNL     1     -11.452  -8.646  14.250  0.00  0.00    -0.265 N 
ATOM      9  C   UNL     1      -7.423 -11.682  17.632  0.00  0.00    -0.019 C 
ATOM     10  C   UNL     1      -6.344 -10.799  16.862  0.00  0.00    +0.011 C 
ATOM     11  C   UNL     1      -4.834 -11.231  17.004  0.00  0.00    +0.021 C 
ATOM     12  C   UNL     1      -8.778 -10.839  17.717  0.00  0.00    +0.054 C 
ATOM     13  C   UNL     1      -6.929 -11.960  19.075  0.00  0.00    +0.010 C 
ATOM     14  C   UNL     1      -4.520 -11.514  18.501  0.00  0.00    +0.123 C 
ATOM     15  C   UNL     1      -6.780 -10.517  15.395  0.00  0.00    +0.049 C 
ATOM     16  C   UNL     1      -5.502 -12.484  19.147  0.00  0.00    +0.032 C 
ATOM     17  C   UNL     1      -7.702 -13.034  16.932  0.00  0.00    +0.012 C 
ATOM     18  C   UNL     1      -9.121 -10.225  16.384  0.00  0.00    +0.058 A 
ATOM     20  C   UNL     1      -3.925 -10.051  16.557  0.00  0.00    +0.016 C 
ATOM     21  C   UNL     1      -8.204 -10.074  15.363  0.00  0.00    +0.015 A 
ATOM     24  C   UNL     1     -10.399  -9.230  14.901  0.00  0.00    +0.165 A 
ATOM     31  C   UNL     1     -12.753  -8.448  14.749  0.00  0.00    +0.219 C 
ATOM     39  H   UNL     1     -11.249  -8.329  13.304  0.00  0.00    +0.157 HD
ENDROOT
BRANCH  14   2
ATOM      2  O   UNL     1      -3.199 -12.032  18.648  0.00  0.00    -0.391 OA
ATOM     37  H   UNL     1      -3.211 -12.688  19.364  0.00  0.00    +0.210 HD
ENDBRANCH  14   2
BRANCH  11  19
ATOM     19  C   UNL     1      -4.424 -12.429  16.120  0.00  0.00    +0.165 C 
BRANCH  19   3
ATOM      3  O   UNL     1      -3.083 -12.239  15.729  0.00  0.00    -0.394 OA
ATOM     38  H   UNL     1      -2.621 -11.780  16.451  0.00  0.00    +0.209 HD
ENDBRANCH  19   3
ENDBRANCH  11  19
BRANCH  12  22
ATOM     22  C   UNL     1      -9.970 -11.606  18.305  0.00  0.00    +0.106 C 
BRANCH  22  23
ATOM      4  O   UNL     1      -9.778 -10.441  20.359  0.00  0.00    -0.276 OA
ATOM      7  N   UNL     1     -11.921 -10.655  19.486  0.00  0.00    -0.301 N 
ATOM     23  C   UNL     1     -10.540 -10.847  19.477  0.00  0.00    +0.216 C 
ATOM     25  C   UNL     1     -12.543  -9.894  20.571  0.00  0.00    +0.108 C 
ATOM     26  C   UNL     1     -12.852 -11.126  18.454  0.00  0.00    +0.108 C 
ATOM     27  C   UNL     1     -13.655 -10.703  21.235  0.00  0.00    +0.022 C 
ATOM     28  C   UNL     1     -13.971 -11.960  19.075  0.00  0.00    +0.022 C 
ATOM     29  C   UNL     1     -14.680 -11.193  20.201  0.00  0.00    -0.011 C 
ATOM     30  C   UNL     1     -15.747 -12.062  20.862  0.00  0.00    +0.007 C 
ENDBRANCH  22  23
ENDBRANCH  12  22
BRANCH  31  32
ATOM     32  C   UNL     1     -13.640  -7.762  13.718  0.00  0.00    +0.096 C 
BRANCH  32  33
ATOM     33  C   UNL     1     -12.938  -6.599  13.018  0.00  0.00    +0.009 C 
BRANCH  33  34
ATOM     34  C   UNL     1     -12.963  -5.336  13.879  0.00  0.00    +0.000 C 
BRANCH  34  35
ATOM     35  C   UNL     1     -13.393  -4.117  13.064  0.00  0.00    -0.003 C 
ATOM     36  C   UNL     1     -12.257  -3.597  12.197  0.00  0.00    +0.004 C 
ENDBRANCH  34  35
ENDBRANCH  33  34
ENDBRANCH  32  33
ENDBRANCH  31  32
TORSDOF 9
ENDMDL
MODEL 10
REMARK VINA RESULT:      -5.9     14.533     18.348
REMARK  Name = 11885096
REMARK  13 active torsions:
REMARK  status: ('A' for Active; 'I' for Inactive)
REMARK    1  A    between atoms: O_2  and  C_14
REMARK    2  A    between atoms: O_3  and  C_19
REMARK    3  A    between atoms: C_9  and  C_17
REMARK    4  A    between atoms: C_11  and  C_19
REMARK    5  A    between atoms: C_11  and  C_20
REMARK    6  A    between atoms: C_12  and  C_22
REMARK    7  A    between atoms: C_22  and  C_23
REMARK    8  A    between atoms: C_29  and  C_30
REMARK    9  A    between atoms: C_31  and  C_32
REMARK   10  A    between atoms: C_32  and  C_33
REMARK   11  A    between atoms: C_33  and  C_34
REMARK   12  A    between atoms: C_34  and  C_35
REMARK   13  A    between atoms: C_35  and  C_36
REMARK                            x       y       z     vdW  Elec       q    Type
REMARK                         _______ _______ _______ _____ _____    ______ ____
ROOT
ATOM      1  S   UNL     1      20.543  -5.924   0.076  0.00  0.00    -0.057 S 
ATOM      5  O   UNL     1      17.464  -7.692  -2.943  0.00  0.00    -0.275 OA
ATOM      6  N   UNL     1      19.214  -8.046  -0.575  0.00  0.00    -0.229 NA
ATOM      8  N   UNL     1      18.876  -6.090  -1.941  0.00  0.00    -0.265 N 
ATOM      9  C   UNL     1      21.181  -9.954   2.138  0.00  0.00    -0.019 C 
ATOM     10  C   UNL     1      21.327  -8.658   3.053  0.00  0.00    +0.011 C 
ATOM     11  C   UNL     1      22.207  -8.798   4.354  0.00  0.00    +0.021 C 
ATOM     12  C   UNL     1      19.938  -9.727   1.160  0.00  0.00    +0.054 C 
ATOM     13  C   UNL     1      20.883 -11.185   3.031  0.00  0.00    +0.010 C 
ATOM     14  C   UNL     1      21.813 -10.103   5.103  0.00  0.00    +0.123 C 
ATOM     15  C   UNL     1      21.658  -7.396   2.205  0.00  0.00    +0.049 C 
ATOM     16  C   UNL     1      21.835 -11.337   4.209  0.00  0.00    +0.032 C 
ATOM     17  C   UNL     1      22.450 -10.242   1.299  0.00  0.00    +0.012 C 
ATOM     18  C   UNL     1      19.986  -8.361   0.527  0.00  0.00    +0.058 A 
ATOM     20  C   UNL     1      21.897  -7.607   5.306  0.00  0.00    +0.016 C 
ATOM     21  C   UNL     1      20.750  -7.324   1.023  0.00  0.00    +0.015 A 
ATOM     24  C   UNL     1      19.432  -6.791  -0.906  0.00  0.00    +0.165 A 
ATOM     31  C   UNL     1      17.943  -6.566  -2.883  0.00  0.00    +0.219 C 
ATOM     39  H   UNL     1      19.184  -5.123  -2.019  0.00  0.00    +0.157 HD
ENDROOT
BRANCH  14   2
ATOM      2  O   UNL     1      22.678 -10.325   6.215  0.00  0.00    -0.391 OA
ATOM     37  H   UNL     1      23.102 -11.191   6.098  0.00  0.00    +0.210 HD
ENDBRANCH  14   2
BRANCH  11  19
ATOM     19  C   UNL     1      23.730  -8.744   4.107  0.00  0.00    +0.165 C 
BRANCH  19   3
ATOM      3  O   UNL     1      24.320  -8.053   5.185  0.00  0.00    -0.394 OA
ATOM     38  H   UNL     1      25.207  -8.422   5.331  0.00  0.00    +0.209 HD
ENDBRANCH  19   3
ENDBRANCH  11  19
BRANCH  12  22
ATOM     22  C   UNL     1      19.747 -10.827   0.108  0.00  0.00    +0.106 C 
BRANCH  22  23
ATOM      4  O   UNL     1      17.716 -10.408  -1.039  0.00  0.00    -0.276 OA
ATOM      7  N   UNL     1      17.634 -11.976   0.674  0.00  0.00    -0.301 N 
ATOM     23  C   UNL     1      18.275 -11.047  -0.143  0.00  0.00    +0.216 C 
ATOM     25  C   UNL     1      16.215 -12.273   0.465  0.00  0.00    +0.108 C 
ATOM     26  C   UNL     1      18.271 -12.750   1.746  0.00  0.00    +0.108 C 
ATOM     27  C   UNL     1      15.423 -12.081   1.757  0.00  0.00    +0.022 C 
ATOM     28  C   UNL     1      17.521 -12.569   3.064  0.00  0.00    +0.022 C 
ATOM     29  C   UNL     1      16.029 -12.899   2.907  0.00  0.00    -0.011 C 
ATOM     30  C   UNL     1      15.276 -12.644   4.211  0.00  0.00    +0.007 C 
ENDBRANCH  22  23
ENDBRANCH  12  22
BRANCH  31  32
ATOM     32  C   UNL     1      17.564  -5.477  -3.879  0.00  0.00    +0.096 C 
BRANCH  32  33
ATOM     33  C   UNL     1      16.316  -4.704  -3.459  0.00  0.00    +0.009 C 
BRANCH  33  34
ATOM     34  C   UNL     1      15.123  -5.046  -4.353  0.00  0.00    +0.000 C 
BRANCH  34  35
ATOM     35  C   UNL     1      13.957  -5.600  -3.534  0.00  0.00    -0.003 C 
ATOM     36  C   UNL     1      13.936  -7.121  -3.553  0.00  0.00    +0.004 C 
ENDBRANCH  34  35
ENDBRANCH  33  34
ENDBRANCH  32  33
ENDBRANCH  31  32
TORSDOF 9
ENDMDL
