MODEL 1
REMARK VINA RESULT:      -6.4      0.000      0.000
REMARK  Name = 25313771
REMARK  8 active torsions:
REMARK  status: ('A' for Active; 'I' for Inactive)
REMARK    1  A    between atoms: C_6  and  C_9
REMARK    2  A    between atoms: C_7  and  C_11
REMARK    3  A    between atoms: C_9  and  C_17
REMARK    4  A    between atoms: C_11  and  C_22
REMARK    5  A    between atoms: C_13  and  C_26
REMARK    6  A    between atoms: C_14  and  C_23
REMARK    7  A    between atoms: C_23  and  C_28
REMARK    8  A    between atoms: C_26  and  C_30
REMARK                            x       y       z     vdW  Elec       q    Type
REMARK                         _______ _______ _______ _____ _____    ______ ____
ROOT
ATOM      4  N   UNL     1      11.952   7.117  17.761  0.00  0.00    -0.316 NA
ATOM      6  C   UNL     1      14.347   8.764  18.276  0.00  0.00    +0.004 C 
ATOM      7  C   UNL     1      14.171   7.338  18.854  0.00  0.00    +0.012 C 
ATOM      8  C   UNL     1      13.487   8.900  17.008  0.00  0.00    +0.019 C 
ATOM     10  C   UNL     1      12.686   6.972  19.018  0.00  0.00    +0.085 C 
ATOM     12  C   UNL     1      12.037   8.480  17.238  0.00  0.00    +0.081 C 
ATOM     36  H   UNL     1      10.974   6.873  17.911  0.00  0.00    +0.122 HD
ENDROOT
BRANCH   6   9
ATOM      9  C   UNL     1      14.028   9.885  19.273  0.00  0.00    +0.100 C 
BRANCH   9  17
ATOM      2  O   UNL     1      14.751  11.777  18.044  0.00  0.00    -0.276 OA
ATOM      3  N   UNL     1      15.956  11.266  19.964  0.00  0.00    -0.301 N 
ATOM     13  C   UNL     1      18.640  11.112  21.053  0.00  0.00    -0.004 C 
ATOM     15  C   UNL     1      17.650   9.943  21.170  0.00  0.00    +0.023 C 
ATOM     16  C   UNL     1      18.316  11.960  19.814  0.00  0.00    +0.023 C 
ATOM     17  C   UNL     1      14.939  11.062  19.032  0.00  0.00    +0.216 C 
ATOM     18  C   UNL     1      16.204  10.435  21.147  0.00  0.00    +0.108 C 
ATOM     19  C   UNL     1      16.857  12.411  19.820  0.00  0.00    +0.108 C 
BRANCH  13  26
ATOM     26  C   UNL     1      20.079  10.603  21.001  0.00  0.00    +0.038 C 
BRANCH  26  30
ATOM     30  C   UNL     1      20.802  10.852  22.296  0.00  0.00    -0.047 A 
ATOM     31  C   UNL     1      20.167  10.596  23.510  0.00  0.00    +0.003 A 
ATOM     32  C   UNL     1      22.109  11.339  22.283  0.00  0.00    +0.003 A 
ATOM     33  C   UNL     1      20.837  10.827  24.712  0.00  0.00    +0.000 A 
ATOM     34  C   UNL     1      22.780  11.570  23.483  0.00  0.00    +0.000 A 
ATOM     35  C   UNL     1      22.144  11.314  24.698  0.00  0.00    +0.000 A 
ENDBRANCH  26  30
ENDBRANCH  13  26
ENDBRANCH   9  17
ENDBRANCH   6   9
BRANCH   7  11
ATOM     11  C   UNL     1      14.926   7.127  20.167  0.00  0.00    +0.064 C 
BRANCH  11  22
ATOM      1  O   UNL     1      17.851   5.458  18.898  0.00  0.00    -0.359 OA
ATOM      5  N   UNL     1      16.527   5.869  18.795  0.00  0.00    -0.083 NA
ATOM     22  C   UNL     1      16.281   6.530  19.929  0.00  0.00    +0.084 A 
ATOM     28  C   UNL     1      18.361   5.881  20.083  0.00  0.00    +0.138 A 
ATOM     29  C   UNL     1      17.402   6.569  20.777  0.00  0.00    +0.071 A 
BRANCH  28  23
ATOM     23  C   UNL     1      19.760   5.531  20.357  0.00  0.00    +0.080 C 
BRANCH  23  14
ATOM     14  C   UNL     1      20.521   6.629  21.098  0.00  0.00    -0.004 C 
ATOM     20  C   UNL     1      20.697   6.264  22.578  0.00  0.00    +0.004 C 
ATOM     21  C   UNL     1      21.879   6.890  20.434  0.00  0.00    +0.004 C 
ATOM     24  C   UNL     1      21.501   7.322  23.327  0.00  0.00    +0.000 C 
ATOM     25  C   UNL     1      22.682   7.947  21.188  0.00  0.00    +0.000 C 
ATOM     27  C   UNL     1      22.847   7.585  22.661  0.00  0.00    +0.000 C 
ENDBRANCH  23  14
ENDBRANCH  28  23
ENDBRANCH  11  22
ENDBRANCH   7  11
TORSDOF 8
ENDMDL
MODEL 2
REMARK VINA RESULT:      -6.1      1.704      2.443
REMARK  Name = 25313771
REMARK  8 active torsions:
REMARK  status: ('A' for Active; 'I' for Inactive)
REMARK    1  A    between atoms: C_6  and  C_9
REMARK    2  A    between atoms: C_7  and  C_11
REMARK    3  A    between atoms: C_9  and  C_17
REMARK    4  A    between atoms: C_11  and  C_22
REMARK    5  A    between atoms: C_13  and  C_26
REMARK    6  A    between atoms: C_14  and  C_23
REMARK    7  A    between atoms: C_23  and  C_28
REMARK    8  A    between atoms: C_26  and  C_30
REMARK                            x       y       z     vdW  Elec       q    Type
REMARK                         _______ _______ _______ _____ _____    ______ ____
ROOT
ATOM      4  N   UNL     1      12.060   7.209  17.692  0.00  0.00    -0.316 NA
ATOM      6  C   UNL     1      13.522   8.910  19.610  0.00  0.00    +0.004 C 
ATOM      7  C   UNL     1      13.921   7.443  19.320  0.00  0.00    +0.012 C 
ATOM      8  C   UNL     1      12.758   9.471  18.399  0.00  0.00    +0.019 C 
ATOM     10  C   UNL     1      12.715   6.609  18.854  0.00  0.00    +0.085 C 
ATOM     12  C   UNL     1      11.601   8.569  17.970  0.00  0.00    +0.081 C 
ATOM     36  H   UNL     1      11.264   6.634  17.419  0.00  0.00    +0.122 HD
ENDROOT
BRANCH   6   9
ATOM      9  C   UNL     1      12.712   9.093  20.898  0.00  0.00    +0.100 C 
BRANCH   9  17
ATOM      2  O   UNL     1      11.935  11.310  21.202  0.00  0.00    -0.276 OA
ATOM      3  N   UNL     1      14.038  10.823  22.061  0.00  0.00    -0.301 N 
ATOM     13  C   UNL     1      16.728  11.865  22.357  0.00  0.00    -0.004 C 
ATOM     15  C   UNL     1      16.460  10.464  21.786  0.00  0.00    +0.023 C 
ATOM     16  C   UNL     1      15.527  12.785  22.092  0.00  0.00    +0.023 C 
ATOM     17  C   UNL     1      12.852  10.509  21.398  0.00  0.00    +0.216 C 
ATOM     18  C   UNL     1      15.144   9.892  22.309  0.00  0.00    +0.108 C 
ATOM     19  C   UNL     1      14.231  12.165  22.611  0.00  0.00    +0.108 C 
BRANCH  13  26
ATOM     26  C   UNL     1      18.006  12.457  21.769  0.00  0.00    +0.038 C 
BRANCH  26  30
ATOM     30  C   UNL     1      19.169  11.510  21.902  0.00  0.00    -0.047 A 
ATOM     31  C   UNL     1      19.900  11.142  20.774  0.00  0.00    +0.003 A 
ATOM     32  C   UNL     1      19.514  11.002  23.154  0.00  0.00    +0.003 A 
ATOM     33  C   UNL     1      20.978  10.264  20.897  0.00  0.00    +0.000 A 
ATOM     34  C   UNL     1      20.592  10.125  23.278  0.00  0.00    +0.000 A 
ATOM     35  C   UNL     1      21.323   9.756  22.149  0.00  0.00    +0.000 A 
ENDBRANCH  26  30
ENDBRANCH  13  26
ENDBRANCH   9  17
ENDBRANCH   6   9
BRANCH   7  11
ATOM     11  C   UNL     1      14.619   6.767  20.501  0.00  0.00    +0.064 C 
BRANCH  11  22
ATOM      1  O   UNL     1      17.887   5.954  19.230  0.00  0.00    -0.359 OA
ATOM      5  N   UNL     1      16.499   5.923  19.165  0.00  0.00    -0.083 NA
ATOM     22  C   UNL     1      16.087   6.595  20.243  0.00  0.00    +0.084 A 
ATOM     28  C   UNL     1      18.269   6.640  20.338  0.00  0.00    +0.138 A 
ATOM     29  C   UNL     1      17.160   7.070  21.018  0.00  0.00    +0.071 A 
BRANCH  28  23
ATOM     23  C   UNL     1      19.714   6.771  20.563  0.00  0.00    +0.080 C 
BRANCH  23  14
ATOM     14  C   UNL     1      20.303   5.615  21.371  0.00  0.00    -0.004 C 
ATOM     20  C   UNL     1      20.910   4.557  20.439  0.00  0.00    +0.004 C 
ATOM     21  C   UNL     1      21.349   6.130  22.368  0.00  0.00    +0.004 C 
ATOM     24  C   UNL     1      21.552   3.418  21.225  0.00  0.00    +0.000 C 
ATOM     25  C   UNL     1      21.993   4.988  23.150  0.00  0.00    +0.000 C 
ATOM     27  C   UNL     1      22.586   3.933  22.221  0.00  0.00    +0.000 C 
ENDBRANCH  23  14
ENDBRANCH  28  23
ENDBRANCH  11  22
ENDBRANCH   7  11
TORSDOF 8
ENDMDL
MODEL 3
REMARK VINA RESULT:      -6.0     28.914     32.714
REMARK  Name = 25313771
REMARK  8 active torsions:
REMARK  status: ('A' for Active; 'I' for Inactive)
REMARK    1  A    between atoms: C_6  and  C_9
REMARK    2  A    between atoms: C_7  and  C_11
REMARK    3  A    between atoms: C_9  and  C_17
REMARK    4  A    between atoms: C_11  and  C_22
REMARK    5  A    between atoms: C_13  and  C_26
REMARK    6  A    between atoms: C_14  and  C_23
REMARK    7  A    between atoms: C_23  and  C_28
REMARK    8  A    between atoms: C_26  and  C_30
REMARK                            x       y       z     vdW  Elec       q    Type
REMARK                         _______ _______ _______ _____ _____    ______ ____
ROOT
ATOM      4  N   UNL     1      -6.539 -11.734  19.625  0.00  0.00    -0.316 NA
ATOM      6  C   UNL     1      -6.576 -11.084  16.746  0.00  0.00    +0.004 C 
ATOM      7  C   UNL     1      -5.277 -11.083  17.587  0.00  0.00    +0.012 C 
ATOM      8  C   UNL     1      -7.605 -12.012  17.414  0.00  0.00    +0.019 C 
ATOM     10  C   UNL     1      -5.562 -10.796  19.071  0.00  0.00    +0.085 C 
ATOM     12  C   UNL     1      -7.804 -11.693  18.895  0.00  0.00    +0.081 C 
ATOM     36  H   UNL     1      -6.707 -11.508  20.604  0.00  0.00    +0.122 HD
ENDROOT
BRANCH   6   9
ATOM      9  C   UNL     1      -7.170  -9.690  16.514  0.00  0.00    +0.100 C 
BRANCH   9  17
ATOM      2  O   UNL     1      -7.908 -10.154  14.311  0.00  0.00    -0.276 OA
ATOM      3  N   UNL     1      -9.505  -9.337  15.788  0.00  0.00    -0.301 N 
ATOM     13  C   UNL     1     -11.746  -7.510  16.012  0.00  0.00    -0.004 C 
ATOM     15  C   UNL     1     -10.579  -7.486  17.011  0.00  0.00    +0.023 C 
ATOM     16  C   UNL     1     -11.272  -8.048  14.654  0.00  0.00    +0.023 C 
ATOM     17  C   UNL     1      -8.221  -9.751  15.434  0.00  0.00    +0.216 C 
ATOM     18  C   UNL     1      -9.907  -8.854  17.113  0.00  0.00    +0.108 C 
ATOM     19  C   UNL     1     -10.588  -9.405  14.806  0.00  0.00    +0.108 C 
BRANCH  13  26
ATOM     26  C   UNL     1     -12.361  -6.121  15.862  0.00  0.00    +0.038 C 
BRANCH  26  30
ATOM     30  C   UNL     1     -13.610  -6.155  15.024  0.00  0.00    -0.047 A 
ATOM     31  C   UNL     1     -13.662  -5.453  13.820  0.00  0.00    +0.003 A 
ATOM     32  C   UNL     1     -14.717  -6.889  15.451  0.00  0.00    +0.003 A 
ATOM     33  C   UNL     1     -14.820  -5.484  13.043  0.00  0.00    +0.000 A 
ATOM     34  C   UNL     1     -15.875  -6.920  14.674  0.00  0.00    +0.000 A 
ATOM     35  C   UNL     1     -15.926  -6.218  13.470  0.00  0.00    +0.000 A 
ENDBRANCH  26  30
ENDBRANCH  13  26
ENDBRANCH   9  17
ENDBRANCH   6   9
BRANCH   7  11
ATOM     11  C   UNL     1      -4.215 -10.124  17.048  0.00  0.00    +0.064 C 
BRANCH  11  22
ATOM      1  O   UNL     1      -1.559 -11.512  15.054  0.00  0.00    -0.359 OA
ATOM      5  N   UNL     1      -2.035 -10.848  16.178  0.00  0.00    -0.083 NA
ATOM     22  C   UNL     1      -3.358 -10.784  16.008  0.00  0.00    +0.084 A 
ATOM     28  C   UNL     1      -2.602 -11.827  14.244  0.00  0.00    +0.138 A 
ATOM     29  C   UNL     1      -3.770 -11.386  14.806  0.00  0.00    +0.071 A 
BRANCH  28  23
ATOM     23  C   UNL     1      -2.276 -12.537  13.001  0.00  0.00    +0.080 C 
BRANCH  23  14
ATOM     14  C   UNL     1      -2.325 -11.640  11.765  0.00  0.00    -0.004 C 
ATOM     20  C   UNL     1      -3.753 -11.562  11.207  0.00  0.00    +0.004 C 
ATOM     21  C   UNL     1      -1.789 -10.240  12.091  0.00  0.00    +0.004 C 
ATOM     24  C   UNL     1      -3.837 -10.629  10.003  0.00  0.00    +0.000 C 
ATOM     25  C   UNL     1      -1.877  -9.308  10.885  0.00  0.00    +0.000 C 
ATOM     27  C   UNL     1      -3.295  -9.240  10.327  0.00  0.00    +0.000 C 
ENDBRANCH  23  14
ENDBRANCH  28  23
ENDBRANCH  11  22
ENDBRANCH   7  11
TORSDOF 8
ENDMDL
MODEL 4
REMARK VINA RESULT:      -6.0     29.318     32.615
REMARK  Name = 25313771
REMARK  8 active torsions:
REMARK  status: ('A' for Active; 'I' for Inactive)
REMARK    1  A    between atoms: C_6  and  C_9
REMARK    2  A    between atoms: C_7  and  C_11
REMARK    3  A    between atoms: C_9  and  C_17
REMARK    4  A    between atoms: C_11  and  C_22
REMARK    5  A    between atoms: C_13  and  C_26
REMARK    6  A    between atoms: C_14  and  C_23
REMARK    7  A    between atoms: C_23  and  C_28
REMARK    8  A    between atoms: C_26  and  C_30
REMARK                            x       y       z     vdW  Elec       q    Type
REMARK                         _______ _______ _______ _____ _____    ______ ____
ROOT
ATOM      4  N   UNL     1      -5.684 -11.871  19.032  0.00  0.00    -0.316 NA
ATOM      6  C   UNL     1      -3.959 -10.925  16.832  0.00  0.00    +0.004 C 
ATOM      7  C   UNL     1      -5.398 -10.398  17.053  0.00  0.00    +0.012 C 
ATOM      8  C   UNL     1      -3.408 -11.454  18.167  0.00  0.00    +0.019 C 
ATOM     10  C   UNL     1      -6.279 -11.437  17.768  0.00  0.00    +0.085 C 
ATOM     12  C   UNL     1      -4.355 -12.448  18.837  0.00  0.00    +0.081 C 
ATOM     36  H   UNL     1      -6.291 -12.563  19.471  0.00  0.00    +0.122 HD
ENDROOT
BRANCH   6   9
ATOM      9  C   UNL     1      -3.847 -11.991  15.736  0.00  0.00    +0.100 C 
BRANCH   9  17
ATOM      2  O   UNL     1      -1.538 -11.601  15.376  0.00  0.00    -0.276 OA
ATOM      3  N   UNL     1      -2.900 -11.571  13.493  0.00  0.00    -0.301 N 
ATOM     13  C   UNL     1      -3.390 -10.173  11.000  0.00  0.00    -0.004 C 
ATOM     15  C   UNL     1      -4.516 -10.452  12.007  0.00  0.00    +0.023 C 
ATOM     16  C   UNL     1      -2.039 -10.087  11.725  0.00  0.00    +0.023 C 
ATOM     17  C   UNL     1      -2.654 -11.704  14.859  0.00  0.00    +0.216 C 
ATOM     18  C   UNL     1      -4.213 -11.688  12.851  0.00  0.00    +0.108 C 
ATOM     19  C   UNL     1      -1.787 -11.332  12.573  0.00  0.00    +0.108 C 
BRANCH  13  26
ATOM     26  C   UNL     1      -3.668  -8.893  10.215  0.00  0.00    +0.038 C 
BRANCH  26  30
ATOM     30  C   UNL     1      -4.827  -9.061   9.271  0.00  0.00    -0.047 A 
ATOM     31  C   UNL     1      -5.967  -8.272   9.420  0.00  0.00    +0.003 A 
ATOM     32  C   UNL     1      -4.762 -10.006   8.247  0.00  0.00    +0.003 A 
ATOM     33  C   UNL     1      -7.043  -8.428   8.546  0.00  0.00    +0.000 A 
ATOM     34  C   UNL     1      -5.837 -10.162   7.373  0.00  0.00    +0.000 A 
ATOM     35  C   UNL     1      -6.978  -9.373   7.522  0.00  0.00    +0.000 A 
ENDBRANCH  26  30
ENDBRANCH  13  26
ENDBRANCH   9  17
ENDBRANCH   6   9
BRANCH   7  11
ATOM     11  C   UNL     1      -6.067  -9.922  15.763  0.00  0.00    +0.064 C 
BRANCH  11  22
ATOM      1  O   UNL     1      -9.653  -9.653  15.609  0.00  0.00    -0.359 OA
ATOM      5  N   UNL     1      -8.431 -10.103  15.122  0.00  0.00    -0.083 NA
ATOM     22  C   UNL     1      -7.522  -9.627  15.978  0.00  0.00    +0.084 A 
ATOM     28  C   UNL     1      -9.447  -8.924  16.735  0.00  0.00    +0.138 A 
ATOM     29  C   UNL     1      -8.107  -8.877  17.014  0.00  0.00    +0.071 A 
BRANCH  28  23
ATOM     23  C   UNL     1     -10.641  -8.369  17.385  0.00  0.00    +0.080 C 
BRANCH  23  14
ATOM     14  C   UNL     1     -11.774  -8.071  16.405  0.00  0.00    -0.004 C 
ATOM     20  C   UNL     1     -13.099  -8.654  16.915  0.00  0.00    +0.004 C 
ATOM     21  C   UNL     1     -11.898  -6.561  16.164  0.00  0.00    +0.004 C 
ATOM     24  C   UNL     1     -14.257  -8.322  15.978  0.00  0.00    +0.000 C 
ATOM     25  C   UNL     1     -13.060  -6.233  15.229  0.00  0.00    +0.000 C 
ATOM     27  C   UNL     1     -14.373  -6.821  15.734  0.00  0.00    +0.000 C 
ENDBRANCH  23  14
ENDBRANCH  28  23
ENDBRANCH  11  22
ENDBRANCH   7  11
TORSDOF 8
ENDMDL
MODEL 5
REMARK VINA RESULT:      -5.8     25.706     28.446
REMARK  Name = 25313771
REMARK  8 active torsions:
REMARK  status: ('A' for Active; 'I' for Inactive)
REMARK    1  A    between atoms: C_6  and  C_9
REMARK    2  A    between atoms: C_7  and  C_11
REMARK    3  A    between atoms: C_9  and  C_17
REMARK    4  A    between atoms: C_11  and  C_22
REMARK    5  A    between atoms: C_13  and  C_26
REMARK    6  A    between atoms: C_14  and  C_23
REMARK    7  A    between atoms: C_23  and  C_28
REMARK    8  A    between atoms: C_26  and  C_30
REMARK                            x       y       z     vdW  Elec       q    Type
REMARK                         _______ _______ _______ _____ _____    ______ ____
ROOT
ATOM      4  N   UNL     1       1.167  11.944  35.969  0.00  0.00    -0.316 NA
ATOM      6  C   UNL     1      -1.052  11.613  37.886  0.00  0.00    +0.004 C 
ATOM      7  C   UNL     1      -0.619  10.495  36.907  0.00  0.00    +0.012 C 
ATOM      8  C   UNL     1       0.138  12.556  38.130  0.00  0.00    +0.019 C 
ATOM     10  C   UNL     1       0.038  11.073  35.642  0.00  0.00    +0.085 C 
ATOM     12  C   UNL     1       0.763  13.055  36.828  0.00  0.00    +0.081 C 
ATOM     36  H   UNL     1       1.570  12.312  35.108  0.00  0.00    +0.122 HD
ENDROOT
BRANCH   6   9
ATOM      9  C   UNL     1      -2.286  12.400  37.428  0.00  0.00    +0.100 C 
BRANCH   9  17
ATOM      2  O   UNL     1      -3.197  12.404  39.614  0.00  0.00    -0.276 OA
ATOM      3  N   UNL     1      -4.644  11.830  37.889  0.00  0.00    -0.301 N 
ATOM     13  C   UNL     1      -6.770  10.002  37.148  0.00  0.00    -0.004 C 
ATOM     15  C   UNL     1      -5.536  10.213  36.257  0.00  0.00    +0.023 C 
ATOM     16  C   UNL     1      -6.420  10.284  38.616  0.00  0.00    +0.023 C 
ATOM     17  C   UNL     1      -3.411  12.214  38.414  0.00  0.00    +0.216 C 
ATOM     18  C   UNL     1      -4.929  11.598  36.469  0.00  0.00    +0.108 C 
ATOM     19  C   UNL     1      -5.796  11.669  38.778  0.00  0.00    +0.108 C 
BRANCH  13  26
ATOM     26  C   UNL     1      -7.324   8.588  36.984  0.00  0.00    +0.038 C 
BRANCH  26  30
ATOM     30  C   UNL     1      -8.805   8.599  36.722  0.00  0.00    -0.047 A 
ATOM     31  C   UNL     1      -9.347   9.511  35.817  0.00  0.00    +0.003 A 
ATOM     32  C   UNL     1      -9.637   7.697  37.385  0.00  0.00    +0.003 A 
ATOM     33  C   UNL     1     -10.720   9.522  35.575  0.00  0.00    +0.000 A 
ATOM     34  C   UNL     1     -11.011   7.707  37.143  0.00  0.00    +0.000 A 
ATOM     35  C   UNL     1     -11.552   8.619  36.237  0.00  0.00    +0.000 A 
ENDBRANCH  26  30
ENDBRANCH  13  26
ENDBRANCH   9  17
ENDBRANCH   6   9
BRANCH   7  11
ATOM     11  C   UNL     1      -1.761   9.548  36.536  0.00  0.00    +0.064 C 
BRANCH  11  22
ATOM      1  O   UNL     1      -2.942   7.417  39.186  0.00  0.00    -0.359 OA
ATOM      5  N   UNL     1      -3.074   8.505  38.330  0.00  0.00    -0.083 NA
ATOM     22  C   UNL     1      -1.963   8.497  37.588  0.00  0.00    +0.084 A 
ATOM     28  C   UNL     1      -1.764   6.790  38.935  0.00  0.00    +0.138 A 
ATOM     29  C   UNL     1      -1.103   7.437  37.926  0.00  0.00    +0.071 A 
BRANCH  28  23
ATOM     23  C   UNL     1      -1.463   5.610  39.755  0.00  0.00    +0.080 C 
BRANCH  23  14
ATOM     14  C   UNL     1      -0.112   5.700  40.464  0.00  0.00    -0.004 C 
ATOM     20  C   UNL     1      -0.257   5.356  41.953  0.00  0.00    +0.004 C 
ATOM     21  C   UNL     1       0.916   4.783  39.789  0.00  0.00    +0.004 C 
ATOM     24  C   UNL     1       1.089   5.387  42.671  0.00  0.00    +0.000 C 
ATOM     25  C   UNL     1       2.260   4.814  40.512  0.00  0.00    +0.000 C 
ATOM     27  C   UNL     1       2.111   4.481  41.993  0.00  0.00    +0.000 C 
ENDBRANCH  23  14
ENDBRANCH  28  23
ENDBRANCH  11  22
ENDBRANCH   7  11
TORSDOF 8
ENDMDL
MODEL 6
REMARK VINA RESULT:      -5.8     16.462     19.931
REMARK  Name = 25313771
REMARK  8 active torsions:
REMARK  status: ('A' for Active; 'I' for Inactive)
REMARK    1  A    between atoms: C_6  and  C_9
REMARK    2  A    between atoms: C_7  and  C_11
REMARK    3  A    between atoms: C_9  and  C_17
REMARK    4  A    between atoms: C_11  and  C_22
REMARK    5  A    between atoms: C_13  and  C_26
REMARK    6  A    between atoms: C_14  and  C_23
REMARK    7  A    between atoms: C_23  and  C_28
REMARK    8  A    between atoms: C_26  and  C_30
REMARK                            x       y       z     vdW  Elec       q    Type
REMARK                         _______ _______ _______ _____ _____    ______ ____
ROOT
ATOM      4  N   UNL     1      24.096 -10.402  17.360  0.00  0.00    -0.316 NA
ATOM      6  C   UNL     1      22.328 -10.746  19.698  0.00  0.00    +0.004 C 
ATOM      7  C   UNL     1      22.085 -11.470  18.351  0.00  0.00    +0.012 C 
ATOM      8  C   UNL     1      23.820 -10.392  19.814  0.00  0.00    +0.019 C 
ATOM     10  C   UNL     1      22.673 -10.681  17.168  0.00  0.00    +0.085 C 
ATOM     12  C   UNL     1      24.341  -9.647  18.586  0.00  0.00    +0.081 C 
ATOM     36  H   UNL     1      24.447  -9.873  16.562  0.00  0.00    +0.122 HD
ENDROOT
BRANCH   6   9
ATOM      9  C   UNL     1      21.455  -9.502  19.903  0.00  0.00    +0.100 C 
BRANCH   9  17
ATOM      2  O   UNL     1      22.020  -9.818  22.182  0.00  0.00    -0.276 OA
ATOM      3  N   UNL     1      20.964  -7.820  21.644  0.00  0.00    -0.301 N 
ATOM     13  C   UNL     1      18.944  -5.942  22.542  0.00  0.00    -0.004 C 
ATOM     15  C   UNL     1      18.943  -6.512  21.115  0.00  0.00    +0.023 C 
ATOM     16  C   UNL     1      19.620  -6.927  23.507  0.00  0.00    +0.023 C 
ATOM     17  C   UNL     1      21.509  -9.068  21.346  0.00  0.00    +0.216 C 
ATOM     18  C   UNL     1      20.351  -6.907  20.674  0.00  0.00    +0.108 C 
ATOM     19  C   UNL     1      21.015  -7.312  23.016  0.00  0.00    +0.108 C 
BRANCH  13  26
ATOM     26  C   UNL     1      17.524  -5.622  23.000  0.00  0.00    +0.038 C 
BRANCH  26  30
ATOM     30  C   UNL     1      17.335  -4.147  23.235  0.00  0.00    -0.047 A 
ATOM     31  C   UNL     1      16.562  -3.705  24.308  0.00  0.00    +0.003 A 
ATOM     32  C   UNL     1      17.935  -3.223  22.380  0.00  0.00    +0.003 A 
ATOM     33  C   UNL     1      16.387  -2.339  24.526  0.00  0.00    +0.000 A 
ATOM     34  C   UNL     1      17.761  -1.856  22.598  0.00  0.00    +0.000 A 
ATOM     35  C   UNL     1      16.987  -1.414  23.671  0.00  0.00    +0.000 A 
ENDBRANCH  26  30
ENDBRANCH  13  26
ENDBRANCH   9  17
ENDBRANCH   6   9
BRANCH   7  11
ATOM     11  C   UNL     1      20.611 -11.793  18.102  0.00  0.00    +0.064 C 
BRANCH  11  22
ATOM      1  O   UNL     1      20.340 -14.833  20.011  0.00  0.00    -0.359 OA
ATOM      5  N   UNL     1      20.951 -13.623  19.705  0.00  0.00    -0.083 NA
ATOM     22  C   UNL     1      20.234 -13.118  18.698  0.00  0.00    +0.084 A 
ATOM     28  C   UNL     1      19.279 -15.021  19.185  0.00  0.00    +0.138 A 
ATOM     29  C   UNL     1      19.168 -13.957  18.330  0.00  0.00    +0.071 A 
BRANCH  28  23
ATOM     23  C   UNL     1      18.514 -16.260  19.372  0.00  0.00    +0.080 C 
BRANCH  23  14
ATOM     14  C   UNL     1      17.106 -16.020  19.915  0.00  0.00    -0.004 C 
ATOM     20  C   UNL     1      17.134 -15.007  21.067  0.00  0.00    +0.004 C 
ATOM     21  C   UNL     1      16.167 -15.551  18.797  0.00  0.00    +0.004 C 
ATOM     24  C   UNL     1      15.732 -14.711  21.591  0.00  0.00    +0.000 C 
ATOM     25  C   UNL     1      14.766 -15.253  19.325  0.00  0.00    +0.000 C 
ATOM     27  C   UNL     1      14.798 -14.252  20.476  0.00  0.00    +0.000 C 
ENDBRANCH  23  14
ENDBRANCH  28  23
ENDBRANCH  11  22
ENDBRANCH   7  11
TORSDOF 8
ENDMDL
MODEL 7
REMARK VINA RESULT:      -5.8     13.884     17.709
REMARK  Name = 25313771
REMARK  8 active torsions:
REMARK  status: ('A' for Active; 'I' for Inactive)
REMARK    1  A    between atoms: C_6  and  C_9
REMARK    2  A    between atoms: C_7  and  C_11
REMARK    3  A    between atoms: C_9  and  C_17
REMARK    4  A    between atoms: C_11  and  C_22
REMARK    5  A    between atoms: C_13  and  C_26
REMARK    6  A    between atoms: C_14  and  C_23
REMARK    7  A    between atoms: C_23  and  C_28
REMARK    8  A    between atoms: C_26  and  C_30
REMARK                            x       y       z     vdW  Elec       q    Type
REMARK                         _______ _______ _______ _____ _____    ______ ____
ROOT
ATOM      4  N   UNL     1      11.437  12.370   7.935  0.00  0.00    -0.316 NA
ATOM      6  C   UNL     1      10.533   9.565   7.788  0.00  0.00    +0.004 C 
ATOM      7  C   UNL     1      11.904  10.032   7.242  0.00  0.00    +0.012 C 
ATOM      8  C   UNL     1      10.067  10.544   8.879  0.00  0.00    +0.019 C 
ATOM     10  C   UNL     1      11.877  11.514   6.833  0.00  0.00    +0.085 C 
ATOM     12  C   UNL     1      10.106  11.998   8.413  0.00  0.00    +0.081 C 
ATOM     36  H   UNL     1      11.424  13.341   7.624  0.00  0.00    +0.122 HD
ENDROOT
BRANCH   6   9
ATOM      9  C   UNL     1       9.456   9.399   6.709  0.00  0.00    +0.100 C 
BRANCH   9  17
ATOM      2  O   UNL     1       8.390   7.598   7.818  0.00  0.00    -0.276 OA
ATOM      3  N   UNL     1       8.953   7.255   5.590  0.00  0.00    -0.301 N 
ATOM     13  C   UNL     1      10.035   5.302   3.739  0.00  0.00    -0.004 C 
ATOM     15  C   UNL     1      10.593   6.731   3.827  0.00  0.00    +0.023 C 
ATOM     16  C   UNL     1       9.420   4.889   5.084  0.00  0.00    +0.023 C 
ATOM     17  C   UNL     1       8.883   8.005   6.764  0.00  0.00    +0.216 C 
ATOM     18  C   UNL     1       9.532   7.712   4.323  0.00  0.00    +0.108 C 
ATOM     19  C   UNL     1       8.383   5.907   5.553  0.00  0.00    +0.108 C 
BRANCH  13  26
ATOM     26  C   UNL     1      11.124   4.319   3.315  0.00  0.00    +0.038 C 
BRANCH  26  30
ATOM     30  C   UNL     1      11.246   4.238   1.818  0.00  0.00    -0.047 A 
ATOM     31  C   UNL     1      12.376   3.660   1.241  0.00  0.00    +0.003 A 
ATOM     32  C   UNL     1      10.229   4.741   1.007  0.00  0.00    +0.003 A 
ATOM     33  C   UNL     1      12.490   3.585  -0.147  0.00  0.00    +0.000 A 
ATOM     34  C   UNL     1      10.342   4.666  -0.381  0.00  0.00    +0.000 A 
ATOM     35  C   UNL     1      11.473   4.088  -0.958  0.00  0.00    +0.000 A 
ENDBRANCH  26  30
ENDBRANCH  13  26
ENDBRANCH   9  17
ENDBRANCH   6   9
BRANCH   7  11
ATOM     11  C   UNL     1      12.417   9.165   6.091  0.00  0.00    +0.064 C 
BRANCH  11  22
ATOM      1  O   UNL     1      15.878   8.230   6.419  0.00  0.00    -0.359 OA
ATOM      5  N   UNL     1      14.517   7.980   6.557  0.00  0.00    -0.083 NA
ATOM     22  C   UNL     1      13.915   9.080   6.096  0.00  0.00    +0.084 A 
ATOM     28  C   UNL     1      16.055   9.465   5.882  0.00  0.00    +0.138 A 
ATOM     29  C   UNL     1      14.836  10.048   5.658  0.00  0.00    +0.071 A 
BRANCH  28  23
ATOM     23  C   UNL     1      17.442   9.893   5.666  0.00  0.00    +0.080 C 
BRANCH  23  14
ATOM     14  C   UNL     1      18.448   8.747   5.769  0.00  0.00    -0.004 C 
ATOM     20  C   UNL     1      18.999   8.382   4.384  0.00  0.00    +0.004 C 
ATOM     21  C   UNL     1      19.586   9.111   6.732  0.00  0.00    +0.004 C 
ATOM     24  C   UNL     1      20.046   7.275   4.469  0.00  0.00    +0.000 C 
ATOM     25  C   UNL     1      20.633   8.003   6.811  0.00  0.00    +0.000 C 
ATOM     27  C   UNL     1      21.172   7.636   5.432  0.00  0.00    +0.000 C 
ENDBRANCH  23  14
ENDBRANCH  28  23
ENDBRANCH  11  22
ENDBRANCH   7  11
TORSDOF 8
ENDMDL
MODEL 8
REMARK VINA RESULT:      -5.7     14.850     19.775
REMARK  Name = 25313771
REMARK  8 active torsions:
REMARK  status: ('A' for Active; 'I' for Inactive)
REMARK    1  A    between atoms: C_6  and  C_9
REMARK    2  A    between atoms: C_7  and  C_11
REMARK    3  A    between atoms: C_9  and  C_17
REMARK    4  A    between atoms: C_11  and  C_22
REMARK    5  A    between atoms: C_13  and  C_26
REMARK    6  A    between atoms: C_14  and  C_23
REMARK    7  A    between atoms: C_23  and  C_28
REMARK    8  A    between atoms: C_26  and  C_30
REMARK                            x       y       z     vdW  Elec       q    Type
REMARK                         _______ _______ _______ _____ _____    ______ ____
ROOT
ATOM      4  N   UNL     1      16.574  10.143   4.163  0.00  0.00    -0.316 NA
ATOM      6  C   UNL     1      15.254   7.898   5.552  0.00  0.00    +0.004 C 
ATOM      7  C   UNL     1      15.007   8.218   4.057  0.00  0.00    +0.012 C 
ATOM      8  C   UNL     1      16.628   8.453   5.964  0.00  0.00    +0.019 C 
ATOM     10  C   UNL     1      15.239   9.708   3.751  0.00  0.00    +0.085 C 
ATOM     12  C   UNL     1      16.799   9.925   5.590  0.00  0.00    +0.081 C 
ATOM     36  H   UNL     1      16.686  11.134   3.951  0.00  0.00    +0.122 HD
ENDROOT
BRANCH   6   9
ATOM      9  C   UNL     1      14.155   8.413   6.490  0.00  0.00    +0.100 C 
BRANCH   9  17
ATOM      2  O   UNL     1      13.938   6.228   7.379  0.00  0.00    -0.276 OA
ATOM      3  N   UNL     1      11.970   7.428   7.088  0.00  0.00    -0.301 N 
ATOM     13  C   UNL     1       9.216   7.200   6.207  0.00  0.00    -0.004 C 
ATOM     15  C   UNL     1      10.151   8.294   5.668  0.00  0.00    +0.023 C 
ATOM     16  C   UNL     1      10.031   5.974   6.645  0.00  0.00    +0.023 C 
ATOM     17  C   UNL     1      13.352   7.255   7.027  0.00  0.00    +0.216 C 
ATOM     18  C   UNL     1      11.246   8.636   6.677  0.00  0.00    +0.108 C 
ATOM     19  C   UNL     1      11.126   6.365   7.635  0.00  0.00    +0.108 C 
BRANCH  13  26
ATOM     26  C   UNL     1       8.173   6.814   5.162  0.00  0.00    +0.038 C 
BRANCH  26  30
ATOM     30  C   UNL     1       8.426   7.496   3.845  0.00  0.00    -0.047 A 
ATOM     31  C   UNL     1       9.376   6.981   2.964  0.00  0.00    +0.003 A 
ATOM     32  C   UNL     1       7.711   8.645   3.506  0.00  0.00    +0.003 A 
ATOM     33  C   UNL     1       9.612   7.614   1.744  0.00  0.00    +0.000 A 
ATOM     34  C   UNL     1       7.946   9.277   2.285  0.00  0.00    +0.000 A 
ATOM     35  C   UNL     1       8.897   8.762   1.404  0.00  0.00    +0.000 A 
ENDBRANCH  26  30
ENDBRANCH  13  26
ENDBRANCH   9  17
ENDBRANCH   6   9
BRANCH   7  11
ATOM     11  C   UNL     1      13.627   7.777   3.570  0.00  0.00    +0.064 C 
BRANCH  11  22
ATOM      1  O   UNL     1      14.627   5.022   1.479  0.00  0.00    -0.359 OA
ATOM      5  N   UNL     1      14.897   6.173   2.211  0.00  0.00    -0.083 NA
ATOM     22  C   UNL     1      13.717   6.551   2.710  0.00  0.00    +0.084 A 
ATOM     28  C   UNL     1      13.300   4.742   1.558  0.00  0.00    +0.138 A 
ATOM     29  C   UNL     1      12.676   5.685   2.331  0.00  0.00    +0.071 A 
BRANCH  28  23
ATOM     23  C   UNL     1      12.838   3.550   0.837  0.00  0.00    +0.080 C 
BRANCH  23  14
ATOM     14  C   UNL     1      12.383   3.849  -0.590  0.00  0.00    -0.004 C 
ATOM     20  C   UNL     1      12.531   2.606  -1.479  0.00  0.00    +0.004 C 
ATOM     21  C   UNL     1      10.937   4.360  -0.601  0.00  0.00    +0.004 C 
ATOM     24  C   UNL     1      12.032   2.866  -2.897  0.00  0.00    +0.000 C 
ATOM     25  C   UNL     1      10.440   4.616  -2.022  0.00  0.00    +0.000 C 
ATOM     27  C   UNL     1      10.596   3.381  -2.905  0.00  0.00    +0.000 C 
ENDBRANCH  23  14
ENDBRANCH  28  23
ENDBRANCH  11  22
ENDBRANCH   7  11
TORSDOF 8
ENDMDL
MODEL 9
REMARK VINA RESULT:      -5.7     29.201     32.804
REMARK  Name = 25313771
REMARK  8 active torsions:
REMARK  status: ('A' for Active; 'I' for Inactive)
REMARK    1  A    between atoms: C_6  and  C_9
REMARK    2  A    between atoms: C_7  and  C_11
REMARK    3  A    between atoms: C_9  and  C_17
REMARK    4  A    between atoms: C_11  and  C_22
REMARK    5  A    between atoms: C_13  and  C_26
REMARK    6  A    between atoms: C_14  and  C_23
REMARK    7  A    between atoms: C_23  and  C_28
REMARK    8  A    between atoms: C_26  and  C_30
REMARK                            x       y       z     vdW  Elec       q    Type
REMARK                         _______ _______ _______ _____ _____    ______ ____
ROOT
ATOM      4  N   UNL     1      -8.290 -10.787  19.653  0.00  0.00    -0.316 NA
ATOM      6  C   UNL     1      -6.020 -10.301  17.830  0.00  0.00    +0.004 C 
ATOM      7  C   UNL     1      -7.463  -9.840  17.511  0.00  0.00    +0.012 C 
ATOM      8  C   UNL     1      -5.863 -10.438  19.354  0.00  0.00    +0.019 C 
ATOM     10  C   UNL     1      -8.509 -10.727  18.207  0.00  0.00    +0.085 C 
ATOM     12  C   UNL     1      -6.960 -11.298  19.979  0.00  0.00    +0.081 C 
ATOM     36  H   UNL     1      -8.996 -11.388  20.076  0.00  0.00    +0.122 HD
ENDROOT
BRANCH   6   9
ATOM      9  C   UNL     1      -5.608 -11.597  17.121  0.00  0.00    +0.100 C 
BRANCH   9  17
ATOM      2  O   UNL     1      -3.343 -11.423  17.794  0.00  0.00    -0.276 OA
ATOM      3  N   UNL     1      -3.728 -11.769  15.529  0.00  0.00    -0.301 N 
ATOM     13  C   UNL     1      -2.863 -10.977  12.876  0.00  0.00    -0.004 C 
ATOM     15  C   UNL     1      -4.343 -10.952  13.287  0.00  0.00    +0.023 C 
ATOM     16  C   UNL     1      -1.967 -10.792  14.109  0.00  0.00    +0.023 C 
ATOM     17  C   UNL     1      -4.124 -11.588  16.853  0.00  0.00    +0.216 C 
ATOM     18  C   UNL     1      -4.631 -11.968  14.391  0.00  0.00    +0.108 C 
ATOM     19  C   UNL     1      -2.303 -11.812  15.195  0.00  0.00    +0.108 C 
BRANCH  13  26
ATOM     26  C   UNL     1      -2.572  -9.907  11.827  0.00  0.00    +0.038 C 
BRANCH  26  30
ATOM     30  C   UNL     1      -3.405 -10.102  10.589  0.00  0.00    -0.047 A 
ATOM     31  C   UNL     1      -3.891  -8.996   9.895  0.00  0.00    +0.003 A 
ATOM     32  C   UNL     1      -3.690 -11.390  10.136  0.00  0.00    +0.003 A 
ATOM     33  C   UNL     1      -4.663  -9.175   8.747  0.00  0.00    +0.000 A 
ATOM     34  C   UNL     1      -4.462 -11.571   8.988  0.00  0.00    +0.000 A 
ATOM     35  C   UNL     1      -4.949 -10.464   8.294  0.00  0.00    +0.000 A 
ENDBRANCH  26  30
ENDBRANCH  13  26
ENDBRANCH   9  17
ENDBRANCH   6   9
BRANCH   7  11
ATOM     11  C   UNL     1      -7.745  -9.752  16.010  0.00  0.00    +0.064 C 
BRANCH  11  22
ATOM      1  O   UNL     1     -10.828  -8.366  14.771  0.00  0.00    -0.359 OA
ATOM      5  N   UNL     1      -9.811  -9.314  14.756  0.00  0.00    -0.083 NA
ATOM     22  C   UNL     1      -8.978  -8.943  15.732  0.00  0.00    +0.084 A 
ATOM     28  C   UNL     1     -10.579  -7.458  15.749  0.00  0.00    +0.138 A 
ATOM     29  C   UNL     1      -9.413  -7.780  16.391  0.00  0.00    +0.071 A 
BRANCH  28  23
ATOM     23  C   UNL     1     -11.561  -6.378  15.906  0.00  0.00    +0.080 C 
BRANCH  23  14
ATOM     14  C   UNL     1     -12.597  -6.340  14.783  0.00  0.00    -0.004 C 
ATOM     20  C   UNL     1     -14.012  -6.535  15.343  0.00  0.00    +0.004 C 
ATOM     21  C   UNL     1     -12.496  -5.025  13.998  0.00  0.00    +0.004 C 
ATOM     24  C   UNL     1     -15.069  -6.447  14.246  0.00  0.00    +0.000 C 
ATOM     25  C   UNL     1     -13.557  -4.940  12.904  0.00  0.00    +0.000 C 
ATOM     27  C   UNL     1     -14.962  -5.143  13.463  0.00  0.00    +0.000 C 
ENDBRANCH  23  14
ENDBRANCH  28  23
ENDBRANCH  11  22
ENDBRANCH   7  11
TORSDOF 8
ENDMDL
MODEL 10
REMARK VINA RESULT:      -5.6     29.279     32.437
REMARK  Name = 25313771
REMARK  8 active torsions:
REMARK  status: ('A' for Active; 'I' for Inactive)
REMARK    1  A    between atoms: C_6  and  C_9
REMARK    2  A    between atoms: C_7  and  C_11
REMARK    3  A    between atoms: C_9  and  C_17
REMARK    4  A    between atoms: C_11  and  C_22
REMARK    5  A    between atoms: C_13  and  C_26
REMARK    6  A    between atoms: C_14  and  C_23
REMARK    7  A    between atoms: C_23  and  C_28
REMARK    8  A    between atoms: C_26  and  C_30
REMARK                            x       y       z     vdW  Elec       q    Type
REMARK                         _______ _______ _______ _____ _____    ______ ____
ROOT
ATOM      4  N   UNL     1      -1.625 -14.203  12.587  0.00  0.00    -0.316 NA
ATOM      6  C   UNL     1      -3.849 -12.517  11.629  0.00  0.00    +0.004 C 
ATOM      7  C   UNL     1      -2.565 -11.928  12.262  0.00  0.00    +0.012 C 
ATOM      8  C   UNL     1      -3.530 -13.903  11.043  0.00  0.00    +0.019 C 
ATOM     10  C   UNL     1      -1.905 -12.921  13.233  0.00  0.00    +0.085 C 
ATOM     12  C   UNL     1      -2.839 -14.818  12.052  0.00  0.00    +0.081 C 
ATOM     36  H   UNL     1      -1.196 -14.835  13.262  0.00  0.00    +0.122 HD
ENDROOT
BRANCH   6   9
ATOM      9  C   UNL     1      -5.041 -12.594  12.592  0.00  0.00    +0.100 C 
BRANCH   9  17
ATOM      2  O   UNL     1      -6.054 -11.148  11.012  0.00  0.00    -0.276 OA
ATOM      3  N   UNL     1      -7.204 -11.475  13.004  0.00  0.00    -0.301 N 
ATOM     13  C   UNL     1      -8.753 -10.116  15.045  0.00  0.00    -0.004 C 
ATOM     15  C   UNL     1      -7.561 -11.018  15.400  0.00  0.00    +0.023 C 
ATOM     16  C   UNL     1      -8.574  -9.528  13.638  0.00  0.00    +0.023 C 
ATOM     17  C   UNL     1      -6.140 -11.674  12.125  0.00  0.00    +0.216 C 
ATOM     18  C   UNL     1      -7.335 -12.086  14.331  0.00  0.00    +0.108 C 
ATOM     19  C   UNL     1      -8.329 -10.628  12.607  0.00  0.00    +0.108 C 
BRANCH  13  26
ATOM     26  C   UNL     1      -8.923  -9.007  16.080  0.00  0.00    +0.038 C 
BRANCH  26  30
ATOM     30  C   UNL     1     -10.194  -9.173  16.869  0.00  0.00    -0.047 A 
ATOM     31  C   UNL     1     -11.411  -8.769  16.323  0.00  0.00    +0.003 A 
ATOM     32  C   UNL     1     -10.154  -9.733  18.146  0.00  0.00    +0.003 A 
ATOM     33  C   UNL     1     -12.589  -8.922  17.053  0.00  0.00    +0.000 A 
ATOM     34  C   UNL     1     -11.331  -9.887  18.877  0.00  0.00    +0.000 A 
ATOM     35  C   UNL     1     -12.549  -9.482  18.331  0.00  0.00    +0.000 A 
ENDBRANCH  26  30
ENDBRANCH  13  26
ENDBRANCH   9  17
ENDBRANCH   6   9
BRANCH   7  11
ATOM     11  C   UNL     1      -2.798 -10.580  12.946  0.00  0.00    +0.064 C 
BRANCH  11  22
ATOM      1  O   UNL     1      -1.850 -10.653  16.418  0.00  0.00    -0.359 OA
ATOM      5  N   UNL     1      -1.574 -10.447  15.071  0.00  0.00    -0.083 NA
ATOM     22  C   UNL     1      -2.723 -10.704  14.439  0.00  0.00    +0.084 A 
ATOM     28  C   UNL     1      -3.148 -11.026  16.558  0.00  0.00    +0.138 A 
ATOM     29  C   UNL     1      -3.748 -11.073  15.327  0.00  0.00    +0.071 A 
BRANCH  28  23
ATOM     23  C   UNL     1      -3.612 -11.285  17.926  0.00  0.00    +0.080 C 
BRANCH  23  14
ATOM     14  C   UNL     1      -5.133 -11.392  18.035  0.00  0.00    -0.004 C 
ATOM     20  C   UNL     1      -5.572 -12.862  18.067  0.00  0.00    +0.004 C 
ATOM     21  C   UNL     1      -5.641 -10.643  19.274  0.00  0.00    +0.004 C 
ATOM     24  C   UNL     1      -7.084 -12.995  18.229  0.00  0.00    +0.000 C 
ATOM     25  C   UNL     1      -7.152 -10.780  19.435  0.00  0.00    +0.000 C 
ATOM     27  C   UNL     1      -7.587 -12.242  19.457  0.00  0.00    +0.000 C 
ENDBRANCH  23  14
ENDBRANCH  28  23
ENDBRANCH  11  22
ENDBRANCH   7  11
TORSDOF 8
ENDMDL
