MODEL 1
REMARK VINA RESULT:      -7.6      0.000      0.000
REMARK  Name = 7144071
REMARK  6 active torsions:
REMARK  status: ('A' for Active; 'I' for Inactive)
REMARK    1  A    between atoms: O_3  and  C_25
REMARK    2  A    between atoms: O_3  and  C_29
REMARK    3  A    between atoms: N_4  and  C_13
REMARK    4  A    between atoms: C_13  and  C_18
REMARK    5  A    between atoms: C_16  and  C_19
REMARK    6  A    between atoms: C_24  and  C_26
REMARK                            x       y       z     vdW  Elec       q    Type
REMARK                         _______ _______ _______ _____ _____    ______ ____
ROOT
ATOM      2  O   UNL     1      -6.233 -11.326  10.919  0.00  0.00    -0.267 OA
ATOM      4  N   UNL     1      -3.223 -11.095  14.912  0.00  0.00    -0.297 NA
ATOM      5  N   UNL     1      -4.113 -11.494  11.873  0.00  0.00    -0.311 N 
ATOM      6  C   UNL     1      -3.536 -13.242  13.657  0.00  0.00    +0.024 C 
ATOM      7  C   UNL     1      -1.828 -11.653  12.916  0.00  0.00    +0.050 C 
ATOM      8  C   UNL     1      -2.127 -13.140  13.089  0.00  0.00    +0.017 C 
ATOM      9  C   UNL     1      -3.616 -12.506  15.012  0.00  0.00    +0.090 C 
ATOM     10  C   UNL     1      -1.898 -10.949  14.290  0.00  0.00    +0.094 C 
ATOM     11  C   UNL     1      -4.528 -12.687  12.626  0.00  0.00    +0.130 C 
ATOM     12  C   UNL     1      -2.802 -11.019  11.942  0.00  0.00    +0.026 A 
ATOM     14  C   UNL     1      -2.416  -9.995  11.164  0.00  0.00    +0.022 A 
ATOM     15  C   UNL     1      -5.073 -10.921  11.015  0.00  0.00    +0.259 A 
ATOM     16  C   UNL     1      -4.618  -9.757  10.175  0.00  0.00    +0.040 A 
ATOM     17  C   UNL     1      -3.343  -9.358  10.271  0.00  0.00    +0.015 A 
ENDROOT
BRANCH  16  19
ATOM     19  C   UNL     1      -5.547  -9.107   9.285  0.00  0.00    +0.014 C 
ATOM     24  C   UNL     1      -5.846  -9.586   8.070  0.00  0.00    +0.008 C 
BRANCH  24  26
ATOM      1 CL   UNL     1      -9.625  -7.023   4.232  0.00  0.00    -0.084 Cl
ATOM     26  C   UNL     1      -6.780  -8.954   7.123  0.00  0.00    -0.025 A 
ATOM     27  C   UNL     1      -6.681  -9.250   5.772  0.00  0.00    +0.009 A 
ATOM     28  C   UNL     1      -7.738  -8.074   7.599  0.00  0.00    +0.009 A 
ATOM     30  C   UNL     1      -7.565  -8.651   4.875  0.00  0.00    +0.020 A 
ATOM     31  C   UNL     1      -8.622  -7.474   6.702  0.00  0.00    +0.020 A 
ATOM     32  C   UNL     1      -8.535  -7.762   5.339  0.00  0.00    +0.041 A 
ENDBRANCH  24  26
ENDBRANCH  16  19
BRANCH   4  13
ATOM     13  C   UNL     1      -3.260 -10.447  16.221  0.00  0.00    +0.119 C 
BRANCH  13  18
ATOM     18  C   UNL     1      -4.667 -10.310  16.740  0.00  0.00    -0.033 A 
ATOM     20  C   UNL     1      -5.632  -9.708  15.946  0.00  0.00    +0.008 A 
ATOM     21  C   UNL     1      -4.977 -10.787  18.006  0.00  0.00    +0.008 A 
ATOM     22  C   UNL     1      -6.936  -9.580  16.428  0.00  0.00    +0.046 A 
ATOM     23  C   UNL     1      -6.280 -10.659  18.487  0.00  0.00    +0.046 A 
ATOM     25  C   UNL     1      -7.259 -10.056  17.698  0.00  0.00    +0.120 A 
BRANCH  25   3
ATOM      3  O   UNL     1      -8.531  -9.932  18.167  0.00  0.00    -0.495 OA
ATOM     29  C   UNL     1      -9.415  -9.089  17.431  0.00  0.00    +0.277 C 
ENDBRANCH  25   3
ENDBRANCH  13  18
ENDBRANCH   4  13
TORSDOF 5
ENDMDL
MODEL 2
REMARK VINA RESULT:      -7.6     28.380     30.845
REMARK  Name = 7144071
REMARK  6 active torsions:
REMARK  status: ('A' for Active; 'I' for Inactive)
REMARK    1  A    between atoms: O_3  and  C_25
REMARK    2  A    between atoms: O_3  and  C_29
REMARK    3  A    between atoms: N_4  and  C_13
REMARK    4  A    between atoms: C_13  and  C_18
REMARK    5  A    between atoms: C_16  and  C_19
REMARK    6  A    between atoms: C_24  and  C_26
REMARK                            x       y       z     vdW  Elec       q    Type
REMARK                         _______ _______ _______ _____ _____    ______ ____
ROOT
ATOM      2  O   UNL     1      17.274   9.559  20.757  0.00  0.00    -0.267 OA
ATOM      4  N   UNL     1      12.297  10.089  20.677  0.00  0.00    -0.297 NA
ATOM      5  N   UNL     1      15.214   9.218  19.721  0.00  0.00    -0.311 N 
ATOM      6  C   UNL     1      13.735  11.152  18.920  0.00  0.00    +0.024 C 
ATOM      7  C   UNL     1      12.981   8.842  18.623  0.00  0.00    +0.050 C 
ATOM      8  C   UNL     1      13.243  10.151  17.883  0.00  0.00    +0.017 C 
ATOM      9  C   UNL     1      12.665  11.347  20.016  0.00  0.00    +0.090 C 
ATOM     10  C   UNL     1      11.895   9.066  19.700  0.00  0.00    +0.094 C 
ATOM     11  C   UNL     1      15.075  10.662  19.485  0.00  0.00    +0.130 C 
ATOM     12  C   UNL     1      14.256   8.316  19.254  0.00  0.00    +0.026 A 
ATOM     14  C   UNL     1      14.456   6.995  19.383  0.00  0.00    +0.022 A 
ATOM     15  C   UNL     1      16.401   8.790  20.349  0.00  0.00    +0.259 A 
ATOM     16  C   UNL     1      16.585   7.304  20.504  0.00  0.00    +0.040 A 
ATOM     17  C   UNL     1      15.639   6.488  20.020  0.00  0.00    +0.015 A 
ENDROOT
BRANCH  16  19
ATOM     19  C   UNL     1      17.765   6.789  21.151  0.00  0.00    +0.014 C 
ATOM     24  C   UNL     1      18.802   6.279  20.474  0.00  0.00    +0.008 C 
BRANCH  24  26
ATOM      1 CL   UNL     1      23.752   4.072  22.966  0.00  0.00    -0.084 Cl
ATOM     26  C   UNL     1      20.023   5.733  21.090  0.00  0.00    -0.025 A 
ATOM     27  C   UNL     1      20.472   6.261  22.290  0.00  0.00    +0.009 A 
ATOM     28  C   UNL     1      20.701   4.704  20.457  0.00  0.00    +0.009 A 
ATOM     30  C   UNL     1      21.630   5.744  22.873  0.00  0.00    +0.020 A 
ATOM     31  C   UNL     1      21.859   4.188  21.039  0.00  0.00    +0.020 A 
ATOM     32  C   UNL     1      22.324   4.708  22.247  0.00  0.00    +0.041 A 
ENDBRANCH  24  26
ENDBRANCH  16  19
BRANCH   4  13
ATOM     13  C   UNL     1      11.246  10.306  21.669  0.00  0.00    +0.119 C 
BRANCH  13  18
ATOM     18  C   UNL     1      11.787  10.912  22.937  0.00  0.00    -0.033 A 
ATOM     20  C   UNL     1      13.157  11.076  23.085  0.00  0.00    +0.008 A 
ATOM     21  C   UNL     1      10.908  11.296  23.940  0.00  0.00    +0.008 A 
ATOM     22  C   UNL     1      13.658  11.636  24.261  0.00  0.00    +0.046 A 
ATOM     23  C   UNL     1      11.410  11.855  25.114  0.00  0.00    +0.046 A 
ATOM     25  C   UNL     1      12.784  12.025  25.275  0.00  0.00    +0.120 A 
BRANCH  25   3
ATOM      3  O   UNL     1      13.274  12.573  26.421  0.00  0.00    -0.495 OA
ATOM     29  C   UNL     1      13.331  13.996  26.488  0.00  0.00    +0.277 C 
ENDBRANCH  25   3
ENDBRANCH  13  18
ENDBRANCH   4  13
TORSDOF 5
ENDMDL
MODEL 3
REMARK VINA RESULT:      -7.3     25.195     27.983
REMARK  Name = 7144071
REMARK  6 active torsions:
REMARK  status: ('A' for Active; 'I' for Inactive)
REMARK    1  A    between atoms: O_3  and  C_25
REMARK    2  A    between atoms: O_3  and  C_29
REMARK    3  A    between atoms: N_4  and  C_13
REMARK    4  A    between atoms: C_13  and  C_18
REMARK    5  A    between atoms: C_16  and  C_19
REMARK    6  A    between atoms: C_24  and  C_26
REMARK                            x       y       z     vdW  Elec       q    Type
REMARK                         _______ _______ _______ _____ _____    ______ ____
ROOT
ATOM      2  O   UNL     1      13.892   6.263   7.349  0.00  0.00    -0.267 OA
ATOM      4  N   UNL     1       9.562   7.510   5.169  0.00  0.00    -0.297 NA
ATOM      5  N   UNL     1      12.131   7.760   7.045  0.00  0.00    -0.311 N 
ATOM      6  C   UNL     1       9.708   7.182   7.650  0.00  0.00    +0.024 C 
ATOM      7  C   UNL     1      10.232   9.373   6.692  0.00  0.00    +0.050 C 
ATOM      8  C   UNL     1       9.564   8.681   7.877  0.00  0.00    +0.017 C 
ATOM      9  C   UNL     1       9.027   6.780   6.324  0.00  0.00    +0.090 C 
ATOM     10  C   UNL     1       9.517   8.964   5.385  0.00  0.00    +0.094 C 
ATOM     11  C   UNL     1      11.199   6.818   7.680  0.00  0.00    +0.130 C 
ATOM     12  C   UNL     1      11.706   9.022   6.626  0.00  0.00    +0.026 A 
ATOM     14  C   UNL     1      12.595   9.908   6.149  0.00  0.00    +0.022 A 
ATOM     15  C   UNL     1      13.481   7.363   6.972  0.00  0.00    +0.259 A 
ATOM     16  C   UNL     1      14.452   8.367   6.408  0.00  0.00    +0.040 A 
ATOM     17  C   UNL     1      13.986   9.568   6.040  0.00  0.00    +0.015 A 
ENDROOT
BRANCH  16  19
ATOM     19  C   UNL     1      15.847   8.029   6.286  0.00  0.00    +0.014 C 
ATOM     24  C   UNL     1      16.743   8.837   5.706  0.00  0.00    +0.008 C 
BRANCH  24  26
ATOM      1 CL   UNL     1      22.545   7.604   5.072  0.00  0.00    -0.084 Cl
ATOM     26  C   UNL     1      18.175   8.532   5.550  0.00  0.00    -0.025 A 
ATOM     27  C   UNL     1      19.020   8.659   6.641  0.00  0.00    +0.009 A 
ATOM     28  C   UNL     1      18.652   8.125   4.314  0.00  0.00    +0.009 A 
ATOM     30  C   UNL     1      20.377   8.370   6.493  0.00  0.00    +0.020 A 
ATOM     31  C   UNL     1      20.009   7.837   4.165  0.00  0.00    +0.020 A 
ATOM     32  C   UNL     1      20.872   7.960   5.254  0.00  0.00    +0.041 A 
ENDBRANCH  24  26
ENDBRANCH  16  19
BRANCH   4  13
ATOM     13  C   UNL     1       8.857   7.141   3.943  0.00  0.00    +0.119 C 
BRANCH  13  18
ATOM     18  C   UNL     1       9.706   6.283   3.044  0.00  0.00    -0.033 A 
ATOM     20  C   UNL     1      10.346   5.169   3.568  0.00  0.00    +0.008 A 
ATOM     21  C   UNL     1       9.837   6.618   1.704  0.00  0.00    +0.008 A 
ATOM     22  C   UNL     1      11.134   4.374   2.735  0.00  0.00    +0.046 A 
ATOM     23  C   UNL     1      10.625   5.824   0.871  0.00  0.00    +0.046 A 
ATOM     25  C   UNL     1      11.273   4.702   1.386  0.00  0.00    +0.120 A 
BRANCH  25   3
ATOM      3  O   UNL     1      12.041   3.925   0.574  0.00  0.00    -0.495 OA
ATOM     29  C   UNL     1      13.143   3.248   1.175  0.00  0.00    +0.277 C 
ENDBRANCH  25   3
ENDBRANCH  13  18
ENDBRANCH   4  13
TORSDOF 5
ENDMDL
MODEL 4
REMARK VINA RESULT:      -7.1      5.688     11.200
REMARK  Name = 7144071
REMARK  6 active torsions:
REMARK  status: ('A' for Active; 'I' for Inactive)
REMARK    1  A    between atoms: O_3  and  C_25
REMARK    2  A    between atoms: O_3  and  C_29
REMARK    3  A    between atoms: N_4  and  C_13
REMARK    4  A    between atoms: C_13  and  C_18
REMARK    5  A    between atoms: C_16  and  C_19
REMARK    6  A    between atoms: C_24  and  C_26
REMARK                            x       y       z     vdW  Elec       q    Type
REMARK                         _______ _______ _______ _____ _____    ______ ____
ROOT
ATOM      2  O   UNL     1     -11.138  -9.605  13.978  0.00  0.00    -0.267 OA
ATOM      4  N   UNL     1     -13.208  -5.623  11.763  0.00  0.00    -0.297 NA
ATOM      5  N   UNL     1     -12.432  -7.670  14.084  0.00  0.00    -0.311 N 
ATOM      6  C   UNL     1     -14.632  -7.408  12.797  0.00  0.00    +0.024 C 
ATOM      7  C   UNL     1     -13.812  -5.568  14.187  0.00  0.00    +0.050 C 
ATOM      8  C   UNL     1     -15.015  -6.472  13.935  0.00  0.00    +0.017 C 
ATOM      9  C   UNL     1     -14.288  -6.591  11.533  0.00  0.00    +0.090 C 
ATOM     10  C   UNL     1     -13.504  -4.752  12.911  0.00  0.00    +0.094 C 
ATOM     11  C   UNL     1     -13.471  -8.299  13.257  0.00  0.00    +0.130 C 
ATOM     12  C   UNL     1     -12.603  -6.384  14.601  0.00  0.00    +0.026 A 
ATOM     14  C   UNL     1     -11.692  -5.871  15.443  0.00  0.00    +0.022 A 
ATOM     15  C   UNL     1     -11.311  -8.462  14.403  0.00  0.00    +0.259 A 
ATOM     16  C   UNL     1     -10.292  -7.849  15.329  0.00  0.00    +0.040 A 
ATOM     17  C   UNL     1     -10.521  -6.619  15.807  0.00  0.00    +0.015 A 
ENDROOT
BRANCH  16  19
ATOM     19  C   UNL     1      -9.110  -8.591  15.689  0.00  0.00    +0.014 C 
ATOM     24  C   UNL     1      -8.744  -8.802  16.959  0.00  0.00    +0.008 C 
BRANCH  24  26
ATOM      1 CL   UNL     1      -3.875 -11.805  18.650  0.00  0.00    -0.084 Cl
ATOM     26  C   UNL     1      -7.542  -9.544  17.377  0.00  0.00    -0.025 A 
ATOM     27  C   UNL     1      -7.545 -10.215  18.589  0.00  0.00    +0.009 A 
ATOM     28  C   UNL     1      -6.430  -9.556  16.549  0.00  0.00    +0.009 A 
ATOM     30  C   UNL     1      -6.406 -10.918  18.984  0.00  0.00    +0.020 A 
ATOM     31  C   UNL     1      -5.291 -10.258  16.944  0.00  0.00    +0.020 A 
ATOM     32  C   UNL     1      -5.279 -10.938  18.162  0.00  0.00    +0.041 A 
ENDBRANCH  24  26
ENDBRANCH  16  19
BRANCH   4  13
ATOM     13  C   UNL     1     -12.948  -4.833  10.561  0.00  0.00    +0.119 C 
BRANCH  13  18
ATOM     18  C   UNL     1     -11.690  -5.276   9.861  0.00  0.00    -0.033 A 
ATOM     20  C   UNL     1     -11.382  -6.627   9.799  0.00  0.00    +0.008 A 
ATOM     21  C   UNL     1     -10.857  -4.325   9.289  0.00  0.00    +0.008 A 
ATOM     22  C   UNL     1     -10.215  -7.036   9.152  0.00  0.00    +0.046 A 
ATOM     23  C   UNL     1      -9.691  -4.734   8.642  0.00  0.00    +0.046 A 
ATOM     25  C   UNL     1      -9.370  -6.089   8.573  0.00  0.00    +0.120 A 
BRANCH  25   3
ATOM      3  O   UNL     1      -8.234  -6.489   7.941  0.00  0.00    -0.495 OA
ATOM     29  C   UNL     1      -7.579  -7.649   8.452  0.00  0.00    +0.277 C 
ENDBRANCH  25   3
ENDBRANCH  13  18
ENDBRANCH   4  13
TORSDOF 5
ENDMDL
MODEL 5
REMARK VINA RESULT:      -6.8     23.993     26.293
REMARK  Name = 7144071
REMARK  6 active torsions:
REMARK  status: ('A' for Active; 'I' for Inactive)
REMARK    1  A    between atoms: O_3  and  C_25
REMARK    2  A    between atoms: O_3  and  C_29
REMARK    3  A    between atoms: N_4  and  C_13
REMARK    4  A    between atoms: C_13  and  C_18
REMARK    5  A    between atoms: C_16  and  C_19
REMARK    6  A    between atoms: C_24  and  C_26
REMARK                            x       y       z     vdW  Elec       q    Type
REMARK                         _______ _______ _______ _____ _____    ______ ____
ROOT
ATOM      2  O   UNL     1       9.637   7.534   1.873  0.00  0.00    -0.267 OA
ATOM      4  N   UNL     1      11.738   7.705   6.413  0.00  0.00    -0.297 NA
ATOM      5  N   UNL     1       9.798   6.755   4.064  0.00  0.00    -0.311 N 
ATOM      6  C   UNL     1       9.310   8.239   6.097  0.00  0.00    +0.024 C 
ATOM      7  C   UNL     1       9.998   5.913   6.428  0.00  0.00    +0.050 C 
ATOM      8  C   UNL     1       8.913   6.932   6.769  0.00  0.00    +0.017 C 
ATOM      9  C   UNL     1      10.685   8.707   6.619  0.00  0.00    +0.090 C 
ATOM     10  C   UNL     1      11.357   6.401   6.978  0.00  0.00    +0.094 C 
ATOM     11  C   UNL     1       9.294   8.038   4.575  0.00  0.00    +0.130 C 
ATOM     12  C   UNL     1      10.077   5.695   4.929  0.00  0.00    +0.026 A 
ATOM     14  C   UNL     1      10.432   4.498   4.434  0.00  0.00    +0.022 A 
ATOM     15  C   UNL     1       9.892   6.624   2.664  0.00  0.00    +0.259 A 
ATOM     16  C   UNL     1      10.318   5.278   2.139  0.00  0.00    +0.040 A 
ATOM     17  C   UNL     1      10.554   4.294   3.018  0.00  0.00    +0.015 A 
ENDROOT
BRANCH  16  19
ATOM     19  C   UNL     1      10.452   5.070   0.720  0.00  0.00    +0.014 C 
ATOM     24  C   UNL     1      11.139   4.046   0.197  0.00  0.00    +0.008 C 
BRANCH  24  26
ATOM      1 CL   UNL     1      11.837   3.035  -5.640  0.00  0.00    -0.084 Cl
ATOM     26  C   UNL     1      11.312   3.797  -1.245  0.00  0.00    -0.025 A 
ATOM     27  C   UNL     1      10.553   4.517  -2.154  0.00  0.00    +0.009 A 
ATOM     28  C   UNL     1      12.229   2.846  -1.664  0.00  0.00    +0.009 A 
ATOM     30  C   UNL     1      10.717   4.280  -3.519  0.00  0.00    +0.020 A 
ATOM     31  C   UNL     1      12.393   2.609  -3.029  0.00  0.00    +0.020 A 
ATOM     32  C   UNL     1      11.636   3.326  -3.957  0.00  0.00    +0.041 A 
ENDBRANCH  24  26
ENDBRANCH  16  19
BRANCH   4  13
ATOM     13  C   UNL     1      13.011   8.162   6.967  0.00  0.00    +0.119 C 
BRANCH  13  18
ATOM     18  C   UNL     1      14.109   8.146   5.937  0.00  0.00    -0.033 A 
ATOM     20  C   UNL     1      15.326   8.745   6.227  0.00  0.00    +0.008 A 
ATOM     21  C   UNL     1      13.887   7.532   4.712  0.00  0.00    +0.008 A 
ATOM     22  C   UNL     1      16.344   8.731   5.271  0.00  0.00    +0.046 A 
ATOM     23  C   UNL     1      14.904   7.518   3.758  0.00  0.00    +0.046 A 
ATOM     25  C   UNL     1      16.132   8.117   4.037  0.00  0.00    +0.120 A 
BRANCH  25   3
ATOM      3  O   UNL     1      17.124   8.103   3.106  0.00  0.00    -0.495 OA
ATOM     29  C   UNL     1      18.465   8.188   3.585  0.00  0.00    +0.277 C 
ENDBRANCH  25   3
ENDBRANCH  13  18
ENDBRANCH   4  13
TORSDOF 5
ENDMDL
MODEL 6
REMARK VINA RESULT:      -6.7     25.715     28.654
REMARK  Name = 7144071
REMARK  6 active torsions:
REMARK  status: ('A' for Active; 'I' for Inactive)
REMARK    1  A    between atoms: O_3  and  C_25
REMARK    2  A    between atoms: O_3  and  C_29
REMARK    3  A    between atoms: N_4  and  C_13
REMARK    4  A    between atoms: C_13  and  C_18
REMARK    5  A    between atoms: C_16  and  C_19
REMARK    6  A    between atoms: C_24  and  C_26
REMARK                            x       y       z     vdW  Elec       q    Type
REMARK                         _______ _______ _______ _____ _____    ______ ____
ROOT
ATOM      2  O   UNL     1      14.232   6.835   6.768  0.00  0.00    -0.267 OA
ATOM      4  N   UNL     1      11.004   4.921   3.456  0.00  0.00    -0.297 NA
ATOM      5  N   UNL     1      12.480   7.105   5.255  0.00  0.00    -0.311 N 
ATOM      6  C   UNL     1      10.195   5.988   5.574  0.00  0.00    +0.024 C 
ATOM      7  C   UNL     1      10.601   7.382   3.604  0.00  0.00    +0.050 C 
ATOM      8  C   UNL     1       9.666   7.184   4.795  0.00  0.00    +0.017 C 
ATOM      9  C   UNL     1      10.208   4.733   4.674  0.00  0.00    +0.090 C 
ATOM     10  C   UNL     1      10.578   6.118   2.715  0.00  0.00    +0.094 C 
ATOM     11  C   UNL     1      11.585   6.331   6.127  0.00  0.00    +0.130 C 
ATOM     12  C   UNL     1      12.012   7.680   4.071  0.00  0.00    +0.026 A 
ATOM     14  C   UNL     1      12.816   8.473   3.346  0.00  0.00    +0.022 A 
ATOM     15  C   UNL     1      13.793   7.314   5.721  0.00  0.00    +0.259 A 
ATOM     16  C   UNL     1      14.680   8.186   4.872  0.00  0.00    +0.040 A 
ATOM     17  C   UNL     1      14.169   8.724   3.756  0.00  0.00    +0.015 A 
ENDROOT
BRANCH  16  19
ATOM     19  C   UNL     1      16.042   8.433   5.273  0.00  0.00    +0.014 C 
ATOM     24  C   UNL     1      17.095   8.099   4.516  0.00  0.00    +0.008 C 
BRANCH  24  26
ATOM      1 CL   UNL     1      22.797   9.007   6.017  0.00  0.00    -0.084 Cl
ATOM     26  C   UNL     1      18.503   8.322   4.887  0.00  0.00    -0.025 A 
ATOM     27  C   UNL     1      18.807   8.754   6.168  0.00  0.00    +0.009 A 
ATOM     28  C   UNL     1      19.496   8.097   3.947  0.00  0.00    +0.009 A 
ATOM     30  C   UNL     1      20.141   8.966   6.519  0.00  0.00    +0.020 A 
ATOM     31  C   UNL     1      20.830   8.310   4.298  0.00  0.00    +0.020 A 
ATOM     32  C   UNL     1      21.152   8.745   5.584  0.00  0.00    +0.041 A 
ENDBRANCH  24  26
ENDBRANCH  16  19
BRANCH   4  13
ATOM     13  C   UNL     1      10.949   3.734   2.606  0.00  0.00    +0.119 C 
BRANCH  13  18
ATOM     18  C   UNL     1      11.948   3.802   1.481  0.00  0.00    -0.033 A 
ATOM     20  C   UNL     1      13.298   3.646   1.756  0.00  0.00    +0.008 A 
ATOM     21  C   UNL     1      11.502   4.021   0.185  0.00  0.00    +0.008 A 
ATOM     22  C   UNL     1      14.224   3.711   0.714  0.00  0.00    +0.046 A 
ATOM     23  C   UNL     1      12.427   4.086  -0.857  0.00  0.00    +0.046 A 
ATOM     25  C   UNL     1      13.788   3.931  -0.593  0.00  0.00    +0.120 A 
BRANCH  25   3
ATOM      3  O   UNL     1      14.691   3.992  -1.609  0.00  0.00    -0.495 OA
ATOM     29  C   UNL     1      15.664   5.033  -1.550  0.00  0.00    +0.277 C 
ENDBRANCH  25   3
ENDBRANCH  13  18
ENDBRANCH   4  13
TORSDOF 5
ENDMDL
MODEL 7
REMARK VINA RESULT:      -6.7     21.587     24.971
REMARK  Name = 7144071
REMARK  6 active torsions:
REMARK  status: ('A' for Active; 'I' for Inactive)
REMARK    1  A    between atoms: O_3  and  C_25
REMARK    2  A    between atoms: O_3  and  C_29
REMARK    3  A    between atoms: N_4  and  C_13
REMARK    4  A    between atoms: C_13  and  C_18
REMARK    5  A    between atoms: C_16  and  C_19
REMARK    6  A    between atoms: C_24  and  C_26
REMARK                            x       y       z     vdW  Elec       q    Type
REMARK                         _______ _______ _______ _____ _____    ______ ____
ROOT
ATOM      2  O   UNL     1       9.453  -9.769  32.104  0.00  0.00    -0.267 OA
ATOM      4  N   UNL     1       7.947  -7.240  36.153  0.00  0.00    -0.297 NA
ATOM      5  N   UNL     1       8.614  -7.830  33.088  0.00  0.00    -0.311 N 
ATOM      6  C   UNL     1       9.932  -6.481  34.824  0.00  0.00    +0.024 C 
ATOM      7  C   UNL     1       7.691  -5.750  34.164  0.00  0.00    +0.050 C 
ATOM      8  C   UNL     1       9.144  -5.296  34.284  0.00  0.00    +0.017 C 
ATOM      9  C   UNL     1       9.375  -6.905  36.200  0.00  0.00    +0.090 C 
ATOM     10  C   UNL     1       7.159  -6.150  35.558  0.00  0.00    +0.094 C 
ATOM     11  C   UNL     1       9.886  -7.618  33.794  0.00  0.00    +0.130 C 
ATOM     12  C   UNL     1       7.569  -6.910  33.194  0.00  0.00    +0.026 A 
ATOM     14  C   UNL     1       6.458  -7.065  32.456  0.00  0.00    +0.022 A 
ATOM     15  C   UNL     1       8.543  -8.948  32.233  0.00  0.00    +0.259 A 
ATOM     16  C   UNL     1       7.274  -9.111  31.438  0.00  0.00    +0.040 A 
ATOM     17  C   UNL     1       6.314  -8.185  31.569  0.00  0.00    +0.015 A 
ENDROOT
BRANCH  16  19
ATOM     19  C   UNL     1       7.119 -10.238  30.554  0.00  0.00    +0.014 C 
ATOM     24  C   UNL     1       6.508 -11.371  30.921  0.00  0.00    +0.008 C 
BRANCH  24  26
ATOM      1 CL   UNL     1       5.807 -16.154  27.425  0.00  0.00    -0.084 Cl
ATOM     26  C   UNL     1       6.334 -12.552  30.057  0.00  0.00    -0.025 A 
ATOM     27  C   UNL     1       5.175 -13.304  30.161  0.00  0.00    +0.009 A 
ATOM     28  C   UNL     1       7.334 -12.888  29.158  0.00  0.00    +0.009 A 
ATOM     30  C   UNL     1       5.011 -14.422  29.342  0.00  0.00    +0.020 A 
ATOM     31  C   UNL     1       7.171 -14.007  28.341  0.00  0.00    +0.020 A 
ATOM     32  C   UNL     1       6.009 -14.775  28.433  0.00  0.00    +0.041 A 
ENDBRANCH  24  26
ENDBRANCH  16  19
BRANCH   4  13
ATOM     13  C   UNL     1       7.445  -7.584  37.481  0.00  0.00    +0.119 C 
BRANCH  13  18
ATOM     18  C   UNL     1       6.001  -8.008  37.443  0.00  0.00    -0.033 A 
ATOM     20  C   UNL     1       5.105  -7.461  38.350  0.00  0.00    +0.008 A 
ATOM     21  C   UNL     1       5.588  -8.940  36.502  0.00  0.00    +0.008 A 
ATOM     22  C   UNL     1       3.766  -7.856  38.316  0.00  0.00    +0.046 A 
ATOM     23  C   UNL     1       4.250  -9.333  36.467  0.00  0.00    +0.046 A 
ATOM     25  C   UNL     1       3.340  -8.792  37.374  0.00  0.00    +0.120 A 
BRANCH  25   3
ATOM      3  O   UNL     1       2.034  -9.174  37.340  0.00  0.00    -0.495 OA
ATOM     29  C   UNL     1       1.612  -9.945  36.216  0.00  0.00    +0.277 C 
ENDBRANCH  25   3
ENDBRANCH  13  18
ENDBRANCH   4  13
TORSDOF 5
ENDMDL
MODEL 8
REMARK VINA RESULT:      -6.6      3.373      7.216
REMARK  Name = 7144071
REMARK  6 active torsions:
REMARK  status: ('A' for Active; 'I' for Inactive)
REMARK    1  A    between atoms: O_3  and  C_25
REMARK    2  A    between atoms: O_3  and  C_29
REMARK    3  A    between atoms: N_4  and  C_13
REMARK    4  A    between atoms: C_13  and  C_18
REMARK    5  A    between atoms: C_16  and  C_19
REMARK    6  A    between atoms: C_24  and  C_26
REMARK                            x       y       z     vdW  Elec       q    Type
REMARK                         _______ _______ _______ _____ _____    ______ ____
ROOT
ATOM      2  O   UNL     1      -7.863  -8.856  17.477  0.00  0.00    -0.267 OA
ATOM      4  N   UNL     1      -3.954 -11.455  15.739  0.00  0.00    -0.297 NA
ATOM      5  N   UNL     1      -6.734 -10.876  17.194  0.00  0.00    -0.311 N 
ATOM      6  C   UNL     1      -4.417 -11.316  18.198  0.00  0.00    +0.024 C 
ATOM      7  C   UNL     1      -5.513 -13.051  16.864  0.00  0.00    +0.050 C 
ATOM      8  C   UNL     1      -4.865 -12.771  18.218  0.00  0.00    +0.017 C 
ATOM      9  C   UNL     1      -3.409 -11.087  17.051  0.00  0.00    +0.090 C 
ATOM     10  C   UNL     1      -4.475 -12.831  15.740  0.00  0.00    +0.094 C 
ATOM     11  C   UNL     1      -5.656 -10.417  18.082  0.00  0.00    +0.130 C 
ATOM     12  C   UNL     1      -6.723 -12.163  16.653  0.00  0.00    +0.026 A 
ATOM     14  C   UNL     1      -7.770 -12.600  15.935  0.00  0.00    +0.022 A 
ATOM     15  C   UNL     1      -7.814  -9.992  17.000  0.00  0.00    +0.259 A 
ATOM     16  C   UNL     1      -8.962 -10.500  16.167  0.00  0.00    +0.040 A 
ATOM     17  C   UNL     1      -8.901 -11.750  15.691  0.00  0.00    +0.015 A 
ENDROOT
BRANCH  16  19
ATOM     19  C   UNL     1     -10.096  -9.648  15.911  0.00  0.00    +0.014 C 
ATOM     24  C   UNL     1     -10.136  -8.778  14.893  0.00  0.00    +0.008 C 
BRANCH  24  26
ATOM      1 CL   UNL     1     -14.716  -5.150  13.693  0.00  0.00    -0.084 Cl
ATOM     26  C   UNL     1     -11.266  -7.881  14.597  0.00  0.00    -0.025 A 
ATOM     27  C   UNL     1     -11.334  -6.645  15.220  0.00  0.00    +0.009 A 
ATOM     28  C   UNL     1     -12.240  -8.292  13.701  0.00  0.00    +0.009 A 
ATOM     30  C   UNL     1     -12.406  -5.797  14.938  0.00  0.00    +0.020 A 
ATOM     31  C   UNL     1     -13.312  -7.444  13.420  0.00  0.00    +0.020 A 
ATOM     32  C   UNL     1     -13.395  -6.196  14.039  0.00  0.00    +0.041 A 
ENDBRANCH  24  26
ENDBRANCH  16  19
BRANCH   4  13
ATOM     13  C   UNL     1      -2.955 -11.276  14.688  0.00  0.00    +0.119 C 
BRANCH  13  18
ATOM     18  C   UNL     1      -3.551 -10.672  13.444  0.00  0.00    -0.033 A 
ATOM     20  C   UNL     1      -2.752 -10.481  12.327  0.00  0.00    +0.008 A 
ATOM     21  C   UNL     1      -4.892 -10.315  13.434  0.00  0.00    +0.008 A 
ATOM     22  C   UNL     1      -3.304  -9.920  11.174  0.00  0.00    +0.046 A 
ATOM     23  C   UNL     1      -5.444  -9.755  12.282  0.00  0.00    +0.046 A 
ATOM     25  C   UNL     1      -4.650  -9.558  11.153  0.00  0.00    +0.120 A 
BRANCH  25   3
ATOM      3  O   UNL     1      -5.189  -9.012  10.028  0.00  0.00    -0.495 OA
ATOM     29  C   UNL     1      -4.458  -9.172   8.814  0.00  0.00    +0.277 C 
ENDBRANCH  25   3
ENDBRANCH  13  18
ENDBRANCH   4  13
TORSDOF 5
ENDMDL
MODEL 9
REMARK VINA RESULT:      -6.5      3.585      8.129
REMARK  Name = 7144071
REMARK  6 active torsions:
REMARK  status: ('A' for Active; 'I' for Inactive)
REMARK    1  A    between atoms: O_3  and  C_25
REMARK    2  A    between atoms: O_3  and  C_29
REMARK    3  A    between atoms: N_4  and  C_13
REMARK    4  A    between atoms: C_13  and  C_18
REMARK    5  A    between atoms: C_16  and  C_19
REMARK    6  A    between atoms: C_24  and  C_26
REMARK                            x       y       z     vdW  Elec       q    Type
REMARK                         _______ _______ _______ _____ _____    ______ ____
ROOT
ATOM      2  O   UNL     1      -7.893  -8.900  17.496  0.00  0.00    -0.267 OA
ATOM      4  N   UNL     1      -4.146 -11.756  15.807  0.00  0.00    -0.297 NA
ATOM      5  N   UNL     1      -6.796 -10.953  17.394  0.00  0.00    -0.311 N 
ATOM      6  C   UNL     1      -4.404 -11.285  18.255  0.00  0.00    +0.024 C 
ATOM      7  C   UNL     1      -5.609 -13.169  17.259  0.00  0.00    +0.050 C 
ATOM      8  C   UNL     1      -4.851 -12.719  18.505  0.00  0.00    +0.017 C 
ATOM      9  C   UNL     1      -3.494 -11.224  17.009  0.00  0.00    +0.090 C 
ATOM     10  C   UNL     1      -4.667 -13.113  16.035  0.00  0.00    +0.094 C 
ATOM     11  C   UNL     1      -5.647 -10.395  18.121  0.00  0.00    +0.130 C 
ATOM     12  C   UNL     1      -6.832 -12.301  17.030  0.00  0.00    +0.026 A 
ATOM     14  C   UNL     1      -7.935 -12.816  16.465  0.00  0.00    +0.022 A 
ATOM     15  C   UNL     1      -7.886 -10.089  17.173  0.00  0.00    +0.259 A 
ATOM     16  C   UNL     1      -9.100 -10.689  16.512  0.00  0.00    +0.040 A 
ATOM     17  C   UNL     1      -9.081 -11.992  16.203  0.00  0.00    +0.015 A 
ENDROOT
BRANCH  16  19
ATOM     19  C   UNL     1     -10.250  -9.865  16.237  0.00  0.00    +0.014 C 
ATOM     24  C   UNL     1     -11.316  -9.811  17.046  0.00  0.00    +0.008 C 
BRANCH  24  26
ATOM      1 CL   UNL     1     -16.177  -6.495  16.068  0.00  0.00    -0.084 Cl
ATOM     26  C   UNL     1     -12.516  -8.993  16.804  0.00  0.00    -0.025 A 
ATOM     27  C   UNL     1     -12.445  -7.928  15.920  0.00  0.00    +0.009 A 
ATOM     28  C   UNL     1     -13.694  -9.303  17.466  0.00  0.00    +0.009 A 
ATOM     30  C   UNL     1     -13.582  -7.153  15.691  0.00  0.00    +0.020 A 
ATOM     31  C   UNL     1     -14.831  -8.527  17.238  0.00  0.00    +0.020 A 
ATOM     32  C   UNL     1     -14.775  -7.452  16.351  0.00  0.00    +0.041 A 
ENDBRANCH  24  26
ENDBRANCH  16  19
BRANCH   4  13
ATOM     13  C   UNL     1      -3.237 -11.731  14.663  0.00  0.00    +0.119 C 
BRANCH  13  18
ATOM     18  C   UNL     1      -3.803 -10.940  13.514  0.00  0.00    -0.033 A 
ATOM     20  C   UNL     1      -5.081 -10.408  13.614  0.00  0.00    +0.008 A 
ATOM     21  C   UNL     1      -3.040 -10.756  12.370  0.00  0.00    +0.008 A 
ATOM     22  C   UNL     1      -5.606  -9.677  12.548  0.00  0.00    +0.046 A 
ATOM     23  C   UNL     1      -3.565 -10.025  11.305  0.00  0.00    +0.046 A 
ATOM     25  C   UNL     1      -4.848  -9.485  11.394  0.00  0.00    +0.120 A 
BRANCH  25   3
ATOM      3  O   UNL     1      -5.360  -8.771  10.355  0.00  0.00    -0.495 OA
ATOM     29  C   UNL     1      -4.647  -8.817   9.121  0.00  0.00    +0.277 C 
ENDBRANCH  25   3
ENDBRANCH  13  18
ENDBRANCH   4  13
TORSDOF 5
ENDMDL
MODEL 10
REMARK VINA RESULT:      -6.4      5.926     11.438
REMARK  Name = 7144071
REMARK  6 active torsions:
REMARK  status: ('A' for Active; 'I' for Inactive)
REMARK    1  A    between atoms: O_3  and  C_25
REMARK    2  A    between atoms: O_3  and  C_29
REMARK    3  A    between atoms: N_4  and  C_13
REMARK    4  A    between atoms: C_13  and  C_18
REMARK    5  A    between atoms: C_16  and  C_19
REMARK    6  A    between atoms: C_24  and  C_26
REMARK                            x       y       z     vdW  Elec       q    Type
REMARK                         _______ _______ _______ _____ _____    ______ ____
ROOT
ATOM      2  O   UNL     1     -12.773  -8.910  13.456  0.00  0.00    -0.267 OA
ATOM      4  N   UNL     1     -12.477  -5.053  10.279  0.00  0.00    -0.297 NA
ATOM      5  N   UNL     1     -13.172  -6.673  12.940  0.00  0.00    -0.311 N 
ATOM      6  C   UNL     1     -14.699  -5.952  11.011  0.00  0.00    +0.024 C 
ATOM      7  C   UNL     1     -13.580  -4.255  12.374  0.00  0.00    +0.050 C 
ATOM      8  C   UNL     1     -14.943  -4.714  11.863  0.00  0.00    +0.017 C 
ATOM      9  C   UNL     1     -13.761  -5.609   9.835  0.00  0.00    +0.090 C 
ATOM     10  C   UNL     1     -12.671  -3.902  11.175  0.00  0.00    +0.094 C 
ATOM     11  C   UNL     1     -14.140  -7.067  11.905  0.00  0.00    +0.130 C 
ATOM     12  C   UNL     1     -12.937  -5.328  13.232  0.00  0.00    +0.026 A 
ATOM     14  C   UNL     1     -12.133  -4.992  14.253  0.00  0.00    +0.022 A 
ATOM     15  C   UNL     1     -12.574  -7.714  13.677  0.00  0.00    +0.259 A 
ATOM     16  C   UNL     1     -11.655  -7.307  14.799  0.00  0.00    +0.040 A 
ATOM     17  C   UNL     1     -11.484  -6.000  15.042  0.00  0.00    +0.015 A 
ENDROOT
BRANCH  16  19
ATOM     19  C   UNL     1     -10.994  -8.314  15.588  0.00  0.00    +0.014 C 
ATOM     24  C   UNL     1     -10.053  -8.024  16.496  0.00  0.00    +0.008 C 
BRANCH  24  26
ATOM      1 CL   UNL     1      -7.175 -12.047  19.831  0.00  0.00    -0.084 Cl
ATOM     26  C   UNL     1      -9.343  -9.018  17.319  0.00  0.00    -0.025 A 
ATOM     27  C   UNL     1     -10.059  -9.794  18.216  0.00  0.00    +0.009 A 
ATOM     28  C   UNL     1      -7.971  -9.158  17.181  0.00  0.00    +0.009 A 
ATOM     30  C   UNL     1      -9.386 -10.735  18.996  0.00  0.00    +0.020 A 
ATOM     31  C   UNL     1      -7.297 -10.099  17.961  0.00  0.00    +0.020 A 
ATOM     32  C   UNL     1      -8.005 -10.887  18.869  0.00  0.00    +0.041 A 
ENDBRANCH  24  26
ENDBRANCH  16  19
BRANCH   4  13
ATOM     13  C   UNL     1     -11.639  -4.692   9.138  0.00  0.00    +0.119 C 
BRANCH  13  18
ATOM     18  C   UNL     1     -10.501  -5.660   8.949  0.00  0.00    -0.033 A 
ATOM     20  C   UNL     1      -9.299  -5.208   8.424  0.00  0.00    +0.008 A 
ATOM     21  C   UNL     1     -10.672  -6.991   9.301  0.00  0.00    +0.008 A 
ATOM     22  C   UNL     1      -8.246  -6.106   8.247  0.00  0.00    +0.046 A 
ATOM     23  C   UNL     1      -9.619  -7.888   9.124  0.00  0.00    +0.046 A 
ATOM     25  C   UNL     1      -8.406  -7.446   8.597  0.00  0.00    +0.120 A 
BRANCH  25   3
ATOM      3  O   UNL     1      -7.378  -8.321   8.426  0.00  0.00    -0.495 OA
ATOM     29  C   UNL     1      -6.461  -8.466   9.509  0.00  0.00    +0.277 C 
ENDBRANCH  25   3
ENDBRANCH  13  18
ENDBRANCH   4  13
TORSDOF 5
ENDMDL
