MODEL 1
REMARK VINA RESULT:      -7.5      0.000      0.000
REMARK  Name = 51137359
REMARK  5 active torsions:
REMARK  status: ('A' for Active; 'I' for Inactive)
REMARK    1  A    between atoms: N_3  and  C_11
REMARK    2  A    between atoms: C_7  and  C_12
REMARK    3  A    between atoms: C_11  and  C_13
REMARK    4  A    between atoms: C_14  and  C_15
REMARK    5  A    between atoms: C_15  and  C_18
REMARK                            x       y       z     vdW  Elec       q    Type
REMARK                         _______ _______ _______ _____ _____    ______ ____
ROOT
ATOM      2  O   UNL     1     -17.283   2.561  27.176  0.00  0.00    -0.424 OA
ATOM      4  N   UNL     1     -16.610   1.341  25.425  0.00  0.00    -0.112 NA
ATOM      5  N   UNL     1     -16.347   0.620  26.575  0.00  0.00    -0.112 NA
ATOM     12  C   UNL     1     -17.157   2.466  25.824  0.00  0.00    +0.222 A 
ATOM     14  C   UNL     1     -16.755   1.370  27.572  0.00  0.00    +0.222 A 
ENDROOT
BRANCH  12   7
ATOM      3  N   UNL     1     -16.391   4.636  23.259  0.00  0.00    -0.297 NA
ATOM      7  C   UNL     1     -17.652   3.639  25.008  0.00  0.00    +0.092 C 
ATOM      8  C   UNL     1     -17.041   4.975  25.455  0.00  0.00    +0.029 C 
ATOM      9  C   UNL     1     -17.346   3.551  23.502  0.00  0.00    +0.097 C 
ATOM     10  C   UNL     1     -16.786   5.720  24.157  0.00  0.00    +0.085 C 
BRANCH   3  11
ATOM     11  C   UNL     1     -16.356   5.050  21.864  0.00  0.00    +0.119 C 
BRANCH  11  13
ATOM      1 CL   UNL     1     -11.111   7.614  20.417  0.00  0.00    -0.084 Cl
ATOM     13  C   UNL     1     -15.044   5.690  21.502  0.00  0.00    -0.033 A 
ATOM     16  C   UNL     1     -15.016   6.778  20.629  0.00  0.00    +0.006 A 
ATOM     17  C   UNL     1     -13.854   5.198  22.039  0.00  0.00    +0.006 A 
ATOM     22  C   UNL     1     -13.800   7.371  20.292  0.00  0.00    +0.020 A 
ATOM     23  C   UNL     1     -12.638   5.792  21.703  0.00  0.00    +0.020 A 
ATOM     24  C   UNL     1     -12.611   6.879  20.829  0.00  0.00    +0.041 A 
ENDBRANCH  11  13
ENDBRANCH   3  11
ENDBRANCH  12   7
BRANCH  14  15
ATOM     15  C   UNL     1     -16.724   1.106  29.015  0.00  0.00    +0.135 C 
BRANCH  15  18
ATOM      6  N   UNL     1     -13.273   1.194  30.344  0.00  0.00    -0.360 N 
ATOM     18  C   UNL     1     -15.384   1.390  29.687  0.00  0.00    -0.013 A 
ATOM     19  C   UNL     1     -15.067   2.510  30.504  0.00  0.00    +0.003 A 
ATOM     20  C   UNL     1     -13.736   2.363  30.903  0.00  0.00    +0.047 A 
ATOM     21  C   UNL     1     -14.262   0.598  29.607  0.00  0.00    +0.087 A 
ATOM     25  C   UNL     1     -15.785   3.640  30.943  0.00  0.00    +0.010 A 
ATOM     26  C   UNL     1     -13.086   3.292  31.723  0.00  0.00    +0.026 A 
ATOM     27  C   UNL     1     -15.148   4.578  31.764  0.00  0.00    +0.001 A 
ATOM     28  C   UNL     1     -13.819   4.405  32.147  0.00  0.00    +0.002 A 
ATOM     29  H   UNL     1     -12.338   0.828  30.461  0.00  0.00    +0.165 HD
ENDBRANCH  15  18
ENDBRANCH  14  15
TORSDOF 5
ENDMDL
MODEL 2
REMARK VINA RESULT:      -7.3     30.823     34.479
REMARK  Name = 51137359
REMARK  5 active torsions:
REMARK  status: ('A' for Active; 'I' for Inactive)
REMARK    1  A    between atoms: N_3  and  C_11
REMARK    2  A    between atoms: C_7  and  C_12
REMARK    3  A    between atoms: C_11  and  C_13
REMARK    4  A    between atoms: C_14  and  C_15
REMARK    5  A    between atoms: C_15  and  C_18
REMARK                            x       y       z     vdW  Elec       q    Type
REMARK                         _______ _______ _______ _____ _____    ______ ____
ROOT
ATOM      2  O   UNL     1      14.828  11.187  16.456  0.00  0.00    -0.424 OA
ATOM      4  N   UNL     1      14.464   9.380  15.187  0.00  0.00    -0.112 NA
ATOM      5  N   UNL     1      15.214  10.276  14.449  0.00  0.00    -0.112 NA
ATOM     12  C   UNL     1      14.262   9.953  16.351  0.00  0.00    +0.222 A 
ATOM     14  C   UNL     1      15.402  11.315  15.228  0.00  0.00    +0.222 A 
ENDROOT
BRANCH  12   7
ATOM      3  N   UNL     1      14.076   7.436  18.697  0.00  0.00    -0.297 NA
ATOM      7  C   UNL     1      13.509   9.443  17.560  0.00  0.00    +0.092 C 
ATOM      8  C   UNL     1      12.529   8.313  17.215  0.00  0.00    +0.029 C 
ATOM      9  C   UNL     1      14.398   8.866  18.676  0.00  0.00    +0.097 C 
ATOM     10  C   UNL     1      12.652   7.346  18.380  0.00  0.00    +0.085 C 
BRANCH   3  11
ATOM     11  C   UNL     1      14.407   6.807  19.967  0.00  0.00    +0.119 C 
BRANCH  11  13
ATOM      1 CL   UNL     1      20.316   5.806  20.494  0.00  0.00    -0.084 Cl
ATOM     13  C   UNL     1      15.885   6.556  20.099  0.00  0.00    -0.033 A 
ATOM     16  C   UNL     1      16.591   5.976  19.046  0.00  0.00    +0.006 A 
ATOM     17  C   UNL     1      16.550   6.904  21.276  0.00  0.00    +0.006 A 
ATOM     22  C   UNL     1      17.961   5.743  19.168  0.00  0.00    +0.020 A 
ATOM     23  C   UNL     1      17.920   6.671  21.398  0.00  0.00    +0.020 A 
ATOM     24  C   UNL     1      18.625   6.091  20.344  0.00  0.00    +0.041 A 
ENDBRANCH  11  13
ENDBRANCH   3  11
ENDBRANCH  12   7
BRANCH  14  15
ATOM     15  C   UNL     1      16.131  12.562  14.964  0.00  0.00    +0.135 C 
BRANCH  15  18
ATOM      6  N   UNL     1      18.843  13.361  17.349  0.00  0.00    -0.360 N 
ATOM     18  C   UNL     1      17.414  12.734  15.770  0.00  0.00    -0.013 A 
ATOM     19  C   UNL     1      18.692  12.194  15.454  0.00  0.00    +0.003 A 
ATOM     20  C   UNL     1      19.570  12.602  16.461  0.00  0.00    +0.047 A 
ATOM     21  C   UNL     1      17.538  13.447  16.940  0.00  0.00    +0.087 A 
ATOM     25  C   UNL     1      19.187  11.393  14.406  0.00  0.00    +0.010 A 
ATOM     26  C   UNL     1      20.924  12.249  16.471  0.00  0.00    +0.026 A 
ATOM     27  C   UNL     1      20.540  11.031  14.403  0.00  0.00    +0.001 A 
ATOM     28  C   UNL     1      21.393  11.454  15.421  0.00  0.00    +0.002 A 
ATOM     29  H   UNL     1      19.218  13.793  18.183  0.00  0.00    +0.165 HD
ENDBRANCH  15  18
ENDBRANCH  14  15
TORSDOF 5
ENDMDL
MODEL 3
REMARK VINA RESULT:      -7.3     20.211     21.815
REMARK  Name = 51137359
REMARK  5 active torsions:
REMARK  status: ('A' for Active; 'I' for Inactive)
REMARK    1  A    between atoms: N_3  and  C_11
REMARK    2  A    between atoms: C_7  and  C_12
REMARK    3  A    between atoms: C_11  and  C_13
REMARK    4  A    between atoms: C_14  and  C_15
REMARK    5  A    between atoms: C_15  and  C_18
REMARK                            x       y       z     vdW  Elec       q    Type
REMARK                         _______ _______ _______ _____ _____    ______ ____
ROOT
ATOM      2  O   UNL     1      -3.214 -11.488  14.870  0.00  0.00    -0.424 OA
ATOM      4  N   UNL     1      -1.309 -10.317  14.944  0.00  0.00    -0.112 NA
ATOM      5  N   UNL     1      -1.843 -10.345  16.219  0.00  0.00    -0.112 NA
ATOM     12  C   UNL     1      -2.142 -10.997  14.190  0.00  0.00    +0.222 A 
ATOM     14  C   UNL     1      -2.953 -11.039  16.129  0.00  0.00    +0.222 A 
ENDROOT
BRANCH  12   7
ATOM      3  N   UNL     1      -3.302 -10.092  11.074  0.00  0.00    -0.297 NA
ATOM      7  C   UNL     1      -2.075 -11.301  12.711  0.00  0.00    +0.092 C 
ATOM      8  C   UNL     1      -3.284 -12.107  12.214  0.00  0.00    +0.029 C 
ATOM      9  C   UNL     1      -2.028 -10.061  11.799  0.00  0.00    +0.097 C 
ATOM     10  C   UNL     1      -3.598 -11.506  10.855  0.00  0.00    +0.085 C 
BRANCH   3  11
ATOM     11  C   UNL     1      -3.258  -9.330   9.835  0.00  0.00    +0.119 C 
BRANCH  11  13
ATOM      1 CL   UNL     1      -8.717  -8.736   7.379  0.00  0.00    -0.084 Cl
ATOM     13  C   UNL     1      -4.624  -9.181   9.220  0.00  0.00    -0.033 A 
ATOM     16  C   UNL     1      -4.893  -9.746   7.974  0.00  0.00    +0.006 A 
ATOM     17  C   UNL     1      -5.621  -8.478   9.897  0.00  0.00    +0.006 A 
ATOM     22  C   UNL     1      -6.159  -9.607   7.405  0.00  0.00    +0.020 A 
ATOM     23  C   UNL     1      -6.886  -8.339   9.328  0.00  0.00    +0.020 A 
ATOM     24  C   UNL     1      -7.155  -8.904   8.081  0.00  0.00    +0.041 A 
ENDBRANCH  11  13
ENDBRANCH   3  11
ENDBRANCH  12   7
BRANCH  14  15
ATOM     15  C   UNL     1      -3.925 -11.388  17.172  0.00  0.00    +0.135 C 
BRANCH  15  18
ATOM      6  N   UNL     1      -6.843  -9.241  16.424  0.00  0.00    -0.360 N 
ATOM     18  C   UNL     1      -5.258 -10.653  17.074  0.00  0.00    -0.013 A 
ATOM     19  C   UNL     1      -6.416 -10.890  17.865  0.00  0.00    +0.003 A 
ATOM     20  C   UNL     1      -7.396  -9.991  17.437  0.00  0.00    +0.047 A 
ATOM     21  C   UNL     1      -5.550  -9.634  16.198  0.00  0.00    +0.087 A 
ATOM     25  C   UNL     1      -6.727 -11.786  18.907  0.00  0.00    +0.010 A 
ATOM     26  C   UNL     1      -8.676  -9.944  18.001  0.00  0.00    +0.026 A 
ATOM     27  C   UNL     1      -8.004 -11.750  19.481  0.00  0.00    +0.001 A 
ATOM     28  C   UNL     1      -8.962 -10.842  19.033  0.00  0.00    +0.002 A 
ATOM     29  H   UNL     1      -7.322  -8.507  15.921  0.00  0.00    +0.165 HD
ENDBRANCH  15  18
ENDBRANCH  14  15
TORSDOF 5
ENDMDL
MODEL 4
REMARK VINA RESULT:      -7.2     27.786     30.827
REMARK  Name = 51137359
REMARK  5 active torsions:
REMARK  status: ('A' for Active; 'I' for Inactive)
REMARK    1  A    between atoms: N_3  and  C_11
REMARK    2  A    between atoms: C_7  and  C_12
REMARK    3  A    between atoms: C_11  and  C_13
REMARK    4  A    between atoms: C_14  and  C_15
REMARK    5  A    between atoms: C_15  and  C_18
REMARK                            x       y       z     vdW  Elec       q    Type
REMARK                         _______ _______ _______ _____ _____    ______ ____
ROOT
ATOM      2  O   UNL     1      11.555   9.487  20.949  0.00  0.00    -0.424 OA
ATOM      4  N   UNL     1      10.711   7.467  21.414  0.00  0.00    -0.112 NA
ATOM      5  N   UNL     1      10.365   8.322  22.444  0.00  0.00    -0.112 NA
ATOM     12  C   UNL     1      11.405   8.190  20.565  0.00  0.00    +0.222 A 
ATOM     14  C   UNL     1      10.879   9.489  22.130  0.00  0.00    +0.222 A 
ENDROOT
BRANCH  12   7
ATOM      3  N   UNL     1      14.389   7.610  18.943  0.00  0.00    -0.297 NA
ATOM      7  C   UNL     1      12.040   7.789  19.252  0.00  0.00    +0.092 C 
ATOM      8  C   UNL     1      12.591   8.988  18.468  0.00  0.00    +0.029 C 
ATOM      9  C   UNL     1      13.232   6.823  19.382  0.00  0.00    +0.097 C 
ATOM     10  C   UNL     1      13.894   8.479  17.877  0.00  0.00    +0.085 C 
BRANCH   3  11
ATOM     11  C   UNL     1      15.502   6.775  18.513  0.00  0.00    +0.119 C 
BRANCH  11  13
ATOM      1 CL   UNL     1      20.014   6.834  22.490  0.00  0.00    -0.084 Cl
ATOM     13  C   UNL     1      16.630   6.790  19.509  0.00  0.00    -0.033 A 
ATOM     16  C   UNL     1      17.711   5.924  19.349  0.00  0.00    +0.006 A 
ATOM     17  C   UNL     1      16.595   7.670  20.591  0.00  0.00    +0.006 A 
ATOM     22  C   UNL     1      18.757   5.937  20.272  0.00  0.00    +0.020 A 
ATOM     23  C   UNL     1      17.641   7.683  21.514  0.00  0.00    +0.020 A 
ATOM     24  C   UNL     1      18.722   6.816  21.354  0.00  0.00    +0.041 A 
ENDBRANCH  11  13
ENDBRANCH   3  11
ENDBRANCH  12   7
BRANCH  14  15
ATOM     15  C   UNL     1      10.822  10.762  22.859  0.00  0.00    +0.135 C 
BRANCH  15  18
ATOM      6  N   UNL     1      12.555  13.698  21.424  0.00  0.00    -0.360 N 
ATOM     18  C   UNL     1      11.778  11.834  22.346  0.00  0.00    -0.013 A 
ATOM     19  C   UNL     1      13.199  11.802  22.409  0.00  0.00    +0.003 A 
ATOM     20  C   UNL     1      13.661  12.984  21.823  0.00  0.00    +0.047 A 
ATOM     21  C   UNL     1      11.411  13.011  21.735  0.00  0.00    +0.087 A 
ATOM     25  C   UNL     1      14.139  10.881  22.909  0.00  0.00    +0.010 A 
ATOM     26  C   UNL     1      15.023  13.289  21.713  0.00  0.00    +0.026 A 
ATOM     27  C   UNL     1      15.504  11.173  22.806  0.00  0.00    +0.001 A 
ATOM     28  C   UNL     1      15.937  12.359  22.216  0.00  0.00    +0.002 A 
ATOM     29  H   UNL     1      12.583  14.599  20.966  0.00  0.00    +0.165 HD
ENDBRANCH  15  18
ENDBRANCH  14  15
TORSDOF 5
ENDMDL
MODEL 5
REMARK VINA RESULT:      -7.1      2.856      8.976
REMARK  Name = 51137359
REMARK  5 active torsions:
REMARK  status: ('A' for Active; 'I' for Inactive)
REMARK    1  A    between atoms: N_3  and  C_11
REMARK    2  A    between atoms: C_7  and  C_12
REMARK    3  A    between atoms: C_11  and  C_13
REMARK    4  A    between atoms: C_14  and  C_15
REMARK    5  A    between atoms: C_15  and  C_18
REMARK                            x       y       z     vdW  Elec       q    Type
REMARK                         _______ _______ _______ _____ _____    ______ ____
ROOT
ATOM      2  O   UNL     1     -16.391   4.476  24.474  0.00  0.00    -0.424 OA
ATOM      4  N   UNL     1     -16.381   2.776  23.019  0.00  0.00    -0.112 NA
ATOM      5  N   UNL     1     -15.561   3.771  22.520  0.00  0.00    -0.112 NA
ATOM     12  C   UNL     1     -16.843   3.231  24.161  0.00  0.00    +0.222 A 
ATOM     14  C   UNL     1     -15.597   4.743  23.401  0.00  0.00    +0.222 A 
ENDROOT
BRANCH  12   7
ATOM      3  N   UNL     1     -17.120   1.902  27.328  0.00  0.00    -0.297 NA
ATOM      7  C   UNL     1     -17.783   2.578  25.149  0.00  0.00    +0.092 C 
ATOM      8  C   UNL     1     -17.599   1.055  25.227  0.00  0.00    +0.029 C 
ATOM      9  C   UNL     1     -17.633   3.066  26.601  0.00  0.00    +0.097 C 
ATOM     10  C   UNL     1     -17.748   0.738  26.705  0.00  0.00    +0.085 C 
BRANCH   3  11
ATOM     11  C   UNL     1     -17.376   1.977  28.758  0.00  0.00    +0.119 C 
BRANCH  11  13
ATOM      1 CL   UNL     1     -12.473   3.616  31.833  0.00  0.00    -0.084 Cl
ATOM     13  C   UNL     1     -16.149   2.387  29.527  0.00  0.00    -0.033 A 
ATOM     16  C   UNL     1     -16.122   3.611  30.196  0.00  0.00    +0.006 A 
ATOM     17  C   UNL     1     -15.039   1.544  29.571  0.00  0.00    +0.006 A 
ATOM     22  C   UNL     1     -14.985   3.991  30.908  0.00  0.00    +0.020 A 
ATOM     23  C   UNL     1     -13.901   1.924  30.283  0.00  0.00    +0.020 A 
ATOM     24  C   UNL     1     -13.875   3.148  30.951  0.00  0.00    +0.041 A 
ENDBRANCH  11  13
ENDBRANCH   3  11
ENDBRANCH  12   7
BRANCH  14  15
ATOM     15  C   UNL     1     -14.915   6.043  23.388  0.00  0.00    +0.135 C 
BRANCH  15  18
ATOM      6  N   UNL     1     -15.587   7.847  20.230  0.00  0.00    -0.360 N 
ATOM     18  C   UNL     1     -14.910   6.748  22.036  0.00  0.00    -0.013 A 
ATOM     19  C   UNL     1     -13.788   6.931  21.180  0.00  0.00    +0.003 A 
ATOM     20  C   UNL     1     -14.241   7.623  20.054  0.00  0.00    +0.047 A 
ATOM     21  C   UNL     1     -16.001   7.321  21.425  0.00  0.00    +0.087 A 
ATOM     25  C   UNL     1     -12.428   6.574  21.255  0.00  0.00    +0.010 A 
ATOM     26  C   UNL     1     -13.396   7.978  18.995  0.00  0.00    +0.026 A 
ATOM     27  C   UNL     1     -11.571   6.922  20.203  0.00  0.00    +0.001 A 
ATOM     28  C   UNL     1     -12.050   7.612  19.092  0.00  0.00    +0.002 A 
ATOM     29  H   UNL     1     -16.184   8.330  19.572  0.00  0.00    +0.165 HD
ENDBRANCH  15  18
ENDBRANCH  14  15
TORSDOF 5
ENDMDL
MODEL 6
REMARK VINA RESULT:      -7.1     19.952     22.316
REMARK  Name = 51137359
REMARK  5 active torsions:
REMARK  status: ('A' for Active; 'I' for Inactive)
REMARK    1  A    between atoms: N_3  and  C_11
REMARK    2  A    between atoms: C_7  and  C_12
REMARK    3  A    between atoms: C_11  and  C_13
REMARK    4  A    between atoms: C_14  and  C_15
REMARK    5  A    between atoms: C_15  and  C_18
REMARK                            x       y       z     vdW  Elec       q    Type
REMARK                         _______ _______ _______ _____ _____    ______ ____
ROOT
ATOM      2  O   UNL     1      -3.328 -12.372  15.184  0.00  0.00    -0.424 OA
ATOM      4  N   UNL     1      -2.836 -10.453  16.223  0.00  0.00    -0.112 NA
ATOM      5  N   UNL     1      -1.957 -10.604  15.168  0.00  0.00    -0.112 NA
ATOM     12  C   UNL     1      -3.618 -11.507  16.194  0.00  0.00    +0.222 A 
ATOM     14  C   UNL     1      -2.280 -11.738  14.590  0.00  0.00    +0.222 A 
ENDROOT
BRANCH  12   7
ATOM      3  N   UNL     1      -6.911 -10.864  16.982  0.00  0.00    -0.297 NA
ATOM      7  C   UNL     1      -4.767 -11.881  17.104  0.00  0.00    +0.092 C 
ATOM      8  C   UNL     1      -4.971 -10.876  18.246  0.00  0.00    +0.029 C 
ATOM      9  C   UNL     1      -6.137 -11.970  16.408  0.00  0.00    +0.097 C 
ATOM     10  C   UNL     1      -6.480 -10.761  18.375  0.00  0.00    +0.085 C 
BRANCH   3  11
ATOM     11  C   UNL     1      -8.347 -11.060  16.852  0.00  0.00    +0.119 C 
BRANCH  11  13
ATOM      1 CL   UNL     1     -11.216  -5.899  15.706  0.00  0.00    -0.084 Cl
ATOM     13  C   UNL     1      -9.065  -9.770  16.565  0.00  0.00    -0.033 A 
ATOM     16  C   UNL     1      -9.401  -8.911  17.612  0.00  0.00    +0.006 A 
ATOM     17  C   UNL     1      -9.394  -9.431  15.253  0.00  0.00    +0.006 A 
ATOM     22  C   UNL     1     -10.068  -7.715  17.346  0.00  0.00    +0.020 A 
ATOM     23  C   UNL     1     -10.060  -8.234  14.987  0.00  0.00    +0.020 A 
ATOM     24  C   UNL     1     -10.397  -7.377  16.034  0.00  0.00    +0.041 A 
ENDBRANCH  11  13
ENDBRANCH   3  11
ENDBRANCH  12   7
BRANCH  14  15
ATOM     15  C   UNL     1      -1.683 -12.395  13.420  0.00  0.00    +0.135 C 
BRANCH  15  18
ATOM      6  N   UNL     1      -3.941 -13.261  10.621  0.00  0.00    -0.360 N 
ATOM     18  C   UNL     1      -2.593 -12.472  12.199  0.00  0.00    -0.013 A 
ATOM     19  C   UNL     1      -2.949 -11.396  11.338  0.00  0.00    +0.003 A 
ATOM     20  C   UNL     1      -3.795 -11.919  10.357  0.00  0.00    +0.047 A 
ATOM     21  C   UNL     1      -3.218 -13.605  11.732  0.00  0.00    +0.087 A 
ATOM     25  C   UNL     1      -2.632 -10.024  11.300  0.00  0.00    +0.010 A 
ATOM     26  C   UNL     1      -4.342 -11.134   9.335  0.00  0.00    +0.026 A 
ATOM     27  C   UNL     1      -3.172  -9.226  10.283  0.00  0.00    +0.001 A 
ATOM     28  C   UNL     1      -4.013  -9.775   9.317  0.00  0.00    +0.002 A 
ATOM     29  H   UNL     1      -4.500 -13.901  10.073  0.00  0.00    +0.165 HD
ENDBRANCH  15  18
ENDBRANCH  14  15
TORSDOF 5
ENDMDL
MODEL 7
REMARK VINA RESULT:      -7.0     30.484     34.483
REMARK  Name = 51137359
REMARK  5 active torsions:
REMARK  status: ('A' for Active; 'I' for Inactive)
REMARK    1  A    between atoms: N_3  and  C_11
REMARK    2  A    between atoms: C_7  and  C_12
REMARK    3  A    between atoms: C_11  and  C_13
REMARK    4  A    between atoms: C_14  and  C_15
REMARK    5  A    between atoms: C_15  and  C_18
REMARK                            x       y       z     vdW  Elec       q    Type
REMARK                         _______ _______ _______ _____ _____    ______ ____
ROOT
ATOM      2  O   UNL     1      14.840  11.121  16.625  0.00  0.00    -0.424 OA
ATOM      4  N   UNL     1      14.159   9.463  15.286  0.00  0.00    -0.112 NA
ATOM      5  N   UNL     1      14.941  10.322  14.537  0.00  0.00    -0.112 NA
ATOM     12  C   UNL     1      14.128   9.968  16.497  0.00  0.00    +0.222 A 
ATOM     14  C   UNL     1      15.317  11.274  15.359  0.00  0.00    +0.222 A 
ENDROOT
BRANCH  12   7
ATOM      3  N   UNL     1      14.010   7.422  18.817  0.00  0.00    -0.297 NA
ATOM      7  C   UNL     1      13.428   9.457  17.737  0.00  0.00    +0.092 C 
ATOM      8  C   UNL     1      12.406   8.353  17.431  0.00  0.00    +0.029 C 
ATOM      9  C   UNL     1      14.362   8.845  18.797  0.00  0.00    +0.097 C 
ATOM     10  C   UNL     1      12.570   7.368  18.574  0.00  0.00    +0.085 C 
BRANCH   3  11
ATOM     11  C   UNL     1      14.394   6.768  20.059  0.00  0.00    +0.119 C 
BRANCH  11  13
ATOM      1 CL   UNL     1      20.342   5.947  20.415  0.00  0.00    -0.084 Cl
ATOM     13  C   UNL     1      15.882   6.563  20.147  0.00  0.00    -0.033 A 
ATOM     16  C   UNL     1      16.572   6.951  21.296  0.00  0.00    +0.006 A 
ATOM     17  C   UNL     1      16.572   5.985  19.082  0.00  0.00    +0.006 A 
ATOM     22  C   UNL     1      17.952   6.762  21.378  0.00  0.00    +0.020 A 
ATOM     23  C   UNL     1      17.951   5.795  19.164  0.00  0.00    +0.020 A 
ATOM     24  C   UNL     1      18.641   6.184  20.312  0.00  0.00    +0.041 A 
ENDBRANCH  11  13
ENDBRANCH   3  11
ENDBRANCH  12   7
BRANCH  14  15
ATOM     15  C   UNL     1      16.160  12.449  15.106  0.00  0.00    +0.135 C 
BRANCH  15  18
ATOM      6  N   UNL     1      19.095  11.773  12.959  0.00  0.00    -0.360 N 
ATOM     18  C   UNL     1      17.200  12.263  14.006  0.00  0.00    -0.013 A 
ATOM     19  C   UNL     1      17.029  12.543  12.622  0.00  0.00    +0.003 A 
ATOM     20  C   UNL     1      18.233  12.226  11.987  0.00  0.00    +0.047 A 
ATOM     21  C   UNL     1      18.481  11.792  14.183  0.00  0.00    +0.087 A 
ATOM     25  C   UNL     1      15.962  13.035  11.844  0.00  0.00    +0.010 A 
ATOM     26  C   UNL     1      18.423  12.379  10.609  0.00  0.00    +0.026 A 
ATOM     27  C   UNL     1      16.138  13.193  10.464  0.00  0.00    +0.001 A 
ATOM     28  C   UNL     1      17.351  12.869   9.858  0.00  0.00    +0.002 A 
ATOM     29  H   UNL     1      20.046  11.471  12.793  0.00  0.00    +0.165 HD
ENDBRANCH  15  18
ENDBRANCH  14  15
TORSDOF 5
ENDMDL
MODEL 8
REMARK VINA RESULT:      -7.0     18.002     19.742
REMARK  Name = 51137359
REMARK  5 active torsions:
REMARK  status: ('A' for Active; 'I' for Inactive)
REMARK    1  A    between atoms: N_3  and  C_11
REMARK    2  A    between atoms: C_7  and  C_12
REMARK    3  A    between atoms: C_11  and  C_13
REMARK    4  A    between atoms: C_14  and  C_15
REMARK    5  A    between atoms: C_15  and  C_18
REMARK                            x       y       z     vdW  Elec       q    Type
REMARK                         _______ _______ _______ _____ _____    ______ ____
ROOT
ATOM      2  O   UNL     1      -7.811 -11.509  17.909  0.00  0.00    -0.424 OA
ATOM      4  N   UNL     1      -7.319 -11.388  20.088  0.00  0.00    -0.112 NA
ATOM      5  N   UNL     1      -8.611 -10.927  19.916  0.00  0.00    -0.112 NA
ATOM     12  C   UNL     1      -6.891 -11.716  18.891  0.00  0.00    +0.222 A 
ATOM     14  C   UNL     1      -8.856 -11.015  18.629  0.00  0.00    +0.222 A 
ENDROOT
BRANCH  12   7
ATOM      3  N   UNL     1      -4.349 -11.491  16.576  0.00  0.00    -0.297 NA
ATOM      7  C   UNL     1      -5.554 -12.279  18.466  0.00  0.00    +0.092 C 
ATOM      8  C   UNL     1      -5.669 -13.256  17.286  0.00  0.00    +0.029 C 
ATOM      9  C   UNL     1      -4.528 -11.227  18.007  0.00  0.00    +0.097 C 
ATOM     10  C   UNL     1      -4.459 -12.940  16.424  0.00  0.00    +0.085 C 
BRANCH   3  11
ATOM     11  C   UNL     1      -3.091 -10.968  16.064  0.00  0.00    +0.119 C 
BRANCH  11  13
ATOM      1 CL   UNL     1      -3.333  -9.946  10.141  0.00  0.00    -0.084 Cl
ATOM     13  C   UNL     1      -3.152 -10.712  14.582  0.00  0.00    -0.033 A 
ATOM     16  C   UNL     1      -1.975 -10.652  13.836  0.00  0.00    +0.006 A 
ATOM     17  C   UNL     1      -4.385 -10.535  13.955  0.00  0.00    +0.006 A 
ATOM     22  C   UNL     1      -2.032 -10.414  12.463  0.00  0.00    +0.020 A 
ATOM     23  C   UNL     1      -4.442 -10.297  12.581  0.00  0.00    +0.020 A 
ATOM     24  C   UNL     1      -3.264 -10.236  11.836  0.00  0.00    +0.041 A 
ENDBRANCH  11  13
ENDBRANCH   3  11
ENDBRANCH  12   7
BRANCH  14  15
ATOM     15  C   UNL     1     -10.070 -10.667  17.882  0.00  0.00    +0.135 C 
BRANCH  15  18
ATOM      6  N   UNL     1      -9.378  -7.297  16.523  0.00  0.00    -0.360 N 
ATOM     18  C   UNL     1     -10.072  -9.262  17.287  0.00  0.00    -0.013 A 
ATOM     19  C   UNL     1     -11.211  -8.523  16.864  0.00  0.00    +0.003 A 
ATOM     20  C   UNL     1     -10.748  -7.293  16.388  0.00  0.00    +0.047 A 
ATOM     21  C   UNL     1      -8.960  -8.483  17.066  0.00  0.00    +0.087 A 
ATOM     25  C   UNL     1     -12.595  -8.782  16.838  0.00  0.00    +0.010 A 
ATOM     26  C   UNL     1     -11.604  -6.306  15.887  0.00  0.00    +0.026 A 
ATOM     27  C   UNL     1     -13.464  -7.804  16.339  0.00  0.00    +0.001 A 
ATOM     28  C   UNL     1     -12.974  -6.586  15.872  0.00  0.00    +0.002 A 
ATOM     29  H   UNL     1      -8.770  -6.534  16.260  0.00  0.00    +0.165 HD
ENDBRANCH  15  18
ENDBRANCH  14  15
TORSDOF 5
ENDMDL
MODEL 9
REMARK VINA RESULT:      -7.0     17.980     20.004
REMARK  Name = 51137359
REMARK  5 active torsions:
REMARK  status: ('A' for Active; 'I' for Inactive)
REMARK    1  A    between atoms: N_3  and  C_11
REMARK    2  A    between atoms: C_7  and  C_12
REMARK    3  A    between atoms: C_11  and  C_13
REMARK    4  A    between atoms: C_14  and  C_15
REMARK    5  A    between atoms: C_15  and  C_18
REMARK                            x       y       z     vdW  Elec       q    Type
REMARK                         _______ _______ _______ _____ _____    ______ ____
ROOT
ATOM      2  O   UNL     1      -6.044 -11.436  17.341  0.00  0.00    -0.424 OA
ATOM      4  N   UNL     1      -6.793  -9.447  16.639  0.00  0.00    -0.112 NA
ATOM      5  N   UNL     1      -5.443  -9.521  16.352  0.00  0.00    -0.112 NA
ATOM     12  C   UNL     1      -7.101 -10.586  17.215  0.00  0.00    +0.222 A 
ATOM     14  C   UNL     1      -5.048 -10.697  16.779  0.00  0.00    +0.222 A 
ENDROOT
BRANCH  12   7
ATOM      3  N   UNL     1     -10.260  -9.623  18.197  0.00  0.00    -0.297 NA
ATOM      7  C   UNL     1      -8.432 -11.071  17.742  0.00  0.00    +0.092 C 
ATOM      8  C   UNL     1      -8.595 -10.838  19.251  0.00  0.00    +0.029 C 
ATOM      9  C   UNL     1      -9.661 -10.398  17.106  0.00  0.00    +0.097 C 
ATOM     10  C   UNL     1     -10.045 -10.413  19.408  0.00  0.00    +0.085 C 
BRANCH   3  11
ATOM     11  C   UNL     1     -11.666  -9.325  17.966  0.00  0.00    +0.119 C 
BRANCH  11  13
ATOM      1 CL   UNL     1     -12.385  -4.938  13.914  0.00  0.00    -0.084 Cl
ATOM     13  C   UNL     1     -11.846  -8.227  16.952  0.00  0.00    -0.033 A 
ATOM     16  C   UNL     1     -10.913  -7.194  16.870  0.00  0.00    +0.006 A 
ATOM     17  C   UNL     1     -12.946  -8.243  16.095  0.00  0.00    +0.006 A 
ATOM     22  C   UNL     1     -11.081  -6.176  15.931  0.00  0.00    +0.020 A 
ATOM     23  C   UNL     1     -13.114  -7.225  15.155  0.00  0.00    +0.020 A 
ATOM     24  C   UNL     1     -12.181  -6.192  15.075  0.00  0.00    +0.041 A 
ENDBRANCH  11  13
ENDBRANCH   3  11
ENDBRANCH  12   7
BRANCH  14  15
ATOM     15  C   UNL     1      -3.714 -11.310  16.732  0.00  0.00    +0.135 C 
BRANCH  15  18
ATOM      6  N   UNL     1      -1.134  -9.772  14.573  0.00  0.00    -0.360 N 
ATOM     18  C   UNL     1      -2.809 -10.783  15.624  0.00  0.00    -0.013 A 
ATOM     19  C   UNL     1      -2.999 -10.947  14.224  0.00  0.00    +0.003 A 
ATOM     20  C   UNL     1      -1.934 -10.303  13.587  0.00  0.00    +0.047 A 
ATOM     21  C   UNL     1      -1.655 -10.056  15.808  0.00  0.00    +0.087 A 
ATOM     25  C   UNL     1      -3.976 -11.583  13.434  0.00  0.00    +0.010 A 
ATOM     26  C   UNL     1      -1.799 -10.265  12.195  0.00  0.00    +0.026 A 
ATOM     27  C   UNL     1      -3.854 -11.553  12.039  0.00  0.00    +0.001 A 
ATOM     28  C   UNL     1      -2.781 -10.903  11.431  0.00  0.00    +0.002 A 
ATOM     29  H   UNL     1      -0.286  -9.248  14.409  0.00  0.00    +0.165 HD
ENDBRANCH  15  18
ENDBRANCH  14  15
TORSDOF 5
ENDMDL
MODEL 10
REMARK VINA RESULT:      -7.0     31.564     34.759
REMARK  Name = 51137359
REMARK  5 active torsions:
REMARK  status: ('A' for Active; 'I' for Inactive)
REMARK    1  A    between atoms: N_3  and  C_11
REMARK    2  A    between atoms: C_7  and  C_12
REMARK    3  A    between atoms: C_11  and  C_13
REMARK    4  A    between atoms: C_14  and  C_15
REMARK    5  A    between atoms: C_15  and  C_18
REMARK                            x       y       z     vdW  Elec       q    Type
REMARK                         _______ _______ _______ _____ _____    ______ ____
ROOT
ATOM      2  O   UNL     1      16.947   7.179  21.004  0.00  0.00    -0.424 OA
ATOM      4  N   UNL     1      17.776   5.965  19.316  0.00  0.00    -0.112 NA
ATOM      5  N   UNL     1      16.397   5.895  19.256  0.00  0.00    -0.112 NA
ATOM     12  C   UNL     1      18.052   6.725  20.350  0.00  0.00    +0.222 A 
ATOM     14  C   UNL     1      15.955   6.617  20.259  0.00  0.00    +0.222 A 
ENDROOT
BRANCH  12   7
ATOM      3  N   UNL     1      20.360   6.219  22.859  0.00  0.00    -0.297 NA
ATOM      7  C   UNL     1      19.394   7.154  20.900  0.00  0.00    +0.092 C 
ATOM      8  C   UNL     1      19.268   8.112  22.094  0.00  0.00    +0.029 C 
ATOM      9  C   UNL     1      20.279   6.003  21.411  0.00  0.00    +0.097 C 
ATOM     10  C   UNL     1      20.368   7.669  23.043  0.00  0.00    +0.085 C 
BRANCH   3  11
ATOM     11  C   UNL     1      21.518   5.572  23.457  0.00  0.00    +0.119 C 
BRANCH  11  13
ATOM      1 CL   UNL     1      25.038   3.005  19.309  0.00  0.00    -0.084 Cl
ATOM     13  C   UNL     1      22.399   4.930  22.420  0.00  0.00    -0.033 A 
ATOM     16  C   UNL     1      22.248   3.577  22.117  0.00  0.00    +0.006 A 
ATOM     17  C   UNL     1      23.367   5.688  21.760  0.00  0.00    +0.006 A 
ATOM     22  C   UNL     1      23.065   2.982  21.156  0.00  0.00    +0.020 A 
ATOM     23  C   UNL     1      24.184   5.093  20.798  0.00  0.00    +0.020 A 
ATOM     24  C   UNL     1      24.032   3.739  20.497  0.00  0.00    +0.041 A 
ENDBRANCH  11  13
ENDBRANCH   3  11
ENDBRANCH  12   7
BRANCH  14  15
ATOM     15  C   UNL     1      14.575   6.895  20.676  0.00  0.00    +0.135 C 
BRANCH  15  18
ATOM      6  N   UNL     1      11.910   7.183  18.127  0.00  0.00    -0.360 N 
ATOM     18  C   UNL     1      13.624   7.246  19.536  0.00  0.00    -0.013 A 
ATOM     19  C   UNL     1      13.751   8.337  18.632  0.00  0.00    +0.003 A 
ATOM     20  C   UNL     1      12.662   8.274  17.758  0.00  0.00    +0.047 A 
ATOM     21  C   UNL     1      12.483   6.554  19.201  0.00  0.00    +0.087 A 
ATOM     25  C   UNL     1      14.689   9.375  18.472  0.00  0.00    +0.010 A 
ATOM     26  C   UNL     1      12.466   9.202  16.729  0.00  0.00    +0.026 A 
ATOM     27  C   UNL     1      14.505  10.311  17.447  0.00  0.00    +0.001 A 
ATOM     28  C   UNL     1      13.410  10.223  16.590  0.00  0.00    +0.002 A 
ATOM     29  H   UNL     1      11.057   6.888  17.671  0.00  0.00    +0.165 HD
ENDBRANCH  15  18
ENDBRANCH  14  15
TORSDOF 5
ENDMDL
