MODEL 1
REMARK VINA RESULT:      -6.4      0.000      0.000
REMARK  Name = 11941501
REMARK  5 active torsions:
REMARK  status: ('A' for Active; 'I' for Inactive)
REMARK    1  A    between atoms: S_1  and  C_21
REMARK    2  A    between atoms: S_1  and  C_27
REMARK    3  A    between atoms: N_7  and  C_9
REMARK    4  A    between atoms: C_17  and  C_21
REMARK    5  A    between atoms: C_20  and  C_23
REMARK                            x       y       z     vdW  Elec       q    Type
REMARK                         _______ _______ _______ _____ _____    ______ ____
ROOT
ATOM      3  O   UNL     1      -0.664 -10.838  15.458  0.00  0.00    -0.273 OA
ATOM      4  O   UNL     1      -5.774 -10.025  14.468  0.00  0.00    -0.270 OA
ATOM      6  N   UNL     1      -3.688 -10.940  14.154  0.00  0.00    -0.284 N 
ATOM      8  N   UNL     1      -2.470 -11.035  16.830  0.00  0.00    -0.283 N 
ATOM      9  C   UNL     1      -1.840 -12.088  13.223  0.00  0.00    +0.104 C 
ATOM     10  C   UNL     1      -2.632 -11.866  14.519  0.00  0.00    +0.183 C 
ATOM     11  C   UNL     1      -2.081 -10.797  12.435  0.00  0.00    +0.043 C 
ATOM     12  C   UNL     1      -3.506 -10.419  12.807  0.00  0.00    +0.111 C 
ATOM     13  C   UNL     1      -1.840 -11.171  15.612  0.00  0.00    +0.240 C 
ATOM     14  C   UNL     1      -4.828 -10.691  14.888  0.00  0.00    +0.249 C 
ATOM     15  C   UNL     1      -4.905 -11.236  16.268  0.00  0.00    +0.059 A 
ATOM     16  C   UNL     1      -3.819 -11.295  17.158  0.00  0.00    +0.046 A 
ATOM     18  C   UNL     1      -6.197 -11.545  16.732  0.00  0.00    +0.023 A 
ATOM     19  C   UNL     1      -4.065 -11.599  18.508  0.00  0.00    +0.024 A 
ATOM     20  C   UNL     1      -6.414 -11.890  18.065  0.00  0.00    -0.017 A 
ATOM     22  C   UNL     1      -5.350 -11.905  18.957  0.00  0.00    +0.010 A 
ATOM     29  H   UNL     1      -1.864 -10.792  17.610  0.00  0.00    +0.155 HD
ENDROOT
BRANCH  20  23
ATOM      2  S   UNL     1     -10.307 -12.352  18.519  0.00  0.00    -0.104 S 
ATOM     23  C   UNL     1      -7.739 -12.206  18.520  0.00  0.00    -0.011 A 
ATOM     24  C   UNL     1      -8.101 -12.866  19.732  0.00  0.00    +0.016 A 
ATOM     25  C   UNL     1      -8.846 -11.872  17.767  0.00  0.00    +0.053 A 
ATOM     26  C   UNL     1      -9.465 -13.010  19.858  0.00  0.00    +0.046 A 
ENDBRANCH  20  23
BRANCH   9   7
ATOM      5  O   UNL     1      -1.048 -14.848  13.577  0.00  0.00    -0.275 OA
ATOM      7  N   UNL     1      -2.337 -13.239  12.505  0.00  0.00    -0.309 N 
ATOM     17  C   UNL     1      -1.895 -14.530  12.744  0.00  0.00    +0.223 C 
ATOM     28  H   UNL     1      -3.085 -13.095  11.832  0.00  0.00    +0.149 HD
BRANCH  17  21
ATOM     21  C   UNL     1      -2.553 -15.554  11.850  0.00  0.00    +0.164 C 
BRANCH  21   1
ATOM      1  S   UNL     1      -1.658 -17.119  11.993  0.00  0.00    -0.155 S 
ATOM     27  C   UNL     1      -0.546 -16.923  10.580  0.00  0.00    +0.085 C 
ENDBRANCH  21   1
ENDBRANCH  17  21
ENDBRANCH   9   7
TORSDOF 4
ENDMDL
MODEL 2
REMARK VINA RESULT:      -6.2     21.352     22.293
REMARK  Name = 11941501
REMARK  5 active torsions:
REMARK  status: ('A' for Active; 'I' for Inactive)
REMARK    1  A    between atoms: S_1  and  C_21
REMARK    2  A    between atoms: S_1  and  C_27
REMARK    3  A    between atoms: N_7  and  C_9
REMARK    4  A    between atoms: C_17  and  C_21
REMARK    5  A    between atoms: C_20  and  C_23
REMARK                            x       y       z     vdW  Elec       q    Type
REMARK                         _______ _______ _______ _____ _____    ______ ____
ROOT
ATOM      3  O   UNL     1     -10.104   9.233  17.315  0.00  0.00    -0.273 OA
ATOM      4  O   UNL     1     -14.900   9.552  19.472  0.00  0.00    -0.270 OA
ATOM      6  N   UNL     1     -13.365   9.252  17.787  0.00  0.00    -0.284 N 
ATOM      8  N   UNL     1     -10.986   8.119  19.095  0.00  0.00    -0.283 N 
ATOM      9  C   UNL     1     -12.369   9.000  15.655  0.00  0.00    +0.104 C 
ATOM     10  C   UNL     1     -12.374   8.453  17.090  0.00  0.00    +0.183 C 
ATOM     11  C   UNL     1     -12.834  10.448  15.826  0.00  0.00    +0.043 C 
ATOM     12  C   UNL     1     -13.830  10.365  16.972  0.00  0.00    +0.111 C 
ATOM     13  C   UNL     1     -11.071   8.676  17.837  0.00  0.00    +0.240 C 
ATOM     14  C   UNL     1     -13.948   8.935  18.995  0.00  0.00    +0.249 C 
ATOM     15  C   UNL     1     -13.379   7.803  19.771  0.00  0.00    +0.059 A 
ATOM     16  C   UNL     1     -12.007   7.516  19.862  0.00  0.00    +0.046 A 
ATOM     18  C   UNL     1     -14.287   7.103  20.586  0.00  0.00    +0.023 A 
ATOM     19  C   UNL     1     -11.572   6.579  20.816  0.00  0.00    +0.024 A 
ATOM     20  C   UNL     1     -13.842   6.142  21.493  0.00  0.00    -0.017 A 
ATOM     22  C   UNL     1     -12.481   5.889  21.617  0.00  0.00    +0.010 A 
ATOM     29  H   UNL     1     -10.048   8.065  19.485  0.00  0.00    +0.155 HD
ENDROOT
BRANCH  20  23
ATOM      2  S   UNL     1     -15.702   4.108  24.316  0.00  0.00    -0.104 S 
ATOM     23  C   UNL     1     -14.783   5.435  22.314  0.00  0.00    -0.011 A 
ATOM     24  C   UNL     1     -16.160   5.190  22.032  0.00  0.00    +0.016 A 
ATOM     25  C   UNL     1     -14.405   4.900  23.527  0.00  0.00    +0.053 A 
ATOM     26  C   UNL     1     -16.778   4.479  23.036  0.00  0.00    +0.046 A 
ENDBRANCH  20  23
BRANCH   9   7
ATOM      5  O   UNL     1     -11.693   7.342  13.382  0.00  0.00    -0.275 OA
ATOM      7  N   UNL     1     -13.278   8.255  14.816  0.00  0.00    -0.309 N 
ATOM     17  C   UNL     1     -12.861   7.485  13.743  0.00  0.00    +0.223 C 
ATOM     28  H   UNL     1     -14.264   8.255  15.062  0.00  0.00    +0.149 HD
BRANCH  17  21
ATOM     21  C   UNL     1     -14.004   6.820  13.012  0.00  0.00    +0.164 C 
BRANCH  21   1
ATOM      1  S   UNL     1     -15.566   7.441  13.680  0.00  0.00    -0.155 S 
ATOM     27  C   UNL     1     -16.302   5.859  14.157  0.00  0.00    +0.085 C 
ENDBRANCH  21   1
ENDBRANCH  17  21
ENDBRANCH   9   7
TORSDOF 4
ENDMDL
MODEL 3
REMARK VINA RESULT:      -6.1      5.305      9.333
REMARK  Name = 11941501
REMARK  5 active torsions:
REMARK  status: ('A' for Active; 'I' for Inactive)
REMARK    1  A    between atoms: S_1  and  C_21
REMARK    2  A    between atoms: S_1  and  C_27
REMARK    3  A    between atoms: N_7  and  C_9
REMARK    4  A    between atoms: C_17  and  C_21
REMARK    5  A    between atoms: C_20  and  C_23
REMARK                            x       y       z     vdW  Elec       q    Type
REMARK                         _______ _______ _______ _____ _____    ______ ____
ROOT
ATOM      3  O   UNL     1     -11.008  -9.546  18.964  0.00  0.00    -0.273 OA
ATOM      4  O   UNL     1      -8.658 -11.548  14.695  0.00  0.00    -0.270 OA
ATOM      6  N   UNL     1      -9.947 -10.063  15.888  0.00  0.00    -0.284 N 
ATOM      8  N   UNL     1      -8.820 -10.066  18.606  0.00  0.00    -0.283 N 
ATOM      9  C   UNL     1     -11.446  -8.326  16.462  0.00  0.00    +0.104 C 
ATOM     10  C   UNL     1     -10.092  -8.956  16.815  0.00  0.00    +0.183 C 
ATOM     11  C   UNL     1     -12.234  -9.492  15.859  0.00  0.00    +0.043 C 
ATOM     12  C   UNL     1     -11.169 -10.296  15.131  0.00  0.00    +0.111 C 
ATOM     13  C   UNL     1     -10.042  -9.573  18.200  0.00  0.00    +0.240 C 
ATOM     14  C   UNL     1      -8.772 -10.726  15.604  0.00  0.00    +0.249 C 
ATOM     15  C   UNL     1      -7.587 -10.447  16.457  0.00  0.00    +0.059 A 
ATOM     16  C   UNL     1      -7.643 -10.237  17.844  0.00  0.00    +0.046 A 
ATOM     18  C   UNL     1      -6.336 -10.577  15.827  0.00  0.00    +0.023 A 
ATOM     19  C   UNL     1      -6.443 -10.229  18.578  0.00  0.00    +0.024 A 
ATOM     20  C   UNL     1      -5.155 -10.519  16.564  0.00  0.00    -0.017 A 
ATOM     22  C   UNL     1      -5.208 -10.357  17.943  0.00  0.00    +0.010 A 
ATOM     29  H   UNL     1      -8.735 -10.255  19.602  0.00  0.00    +0.155 HD
ENDROOT
BRANCH  20  23
ATOM      2  S   UNL     1      -2.188 -10.836  13.981  0.00  0.00    -0.104 S 
ATOM     23  C   UNL     1      -3.887 -10.651  15.904  0.00  0.00    -0.011 A 
ATOM     24  C   UNL     1      -2.604 -10.771  16.516  0.00  0.00    +0.016 A 
ATOM     25  C   UNL     1      -3.802 -10.672  14.527  0.00  0.00    +0.053 A 
ATOM     26  C   UNL     1      -1.593 -10.880  15.587  0.00  0.00    +0.046 A 
ENDBRANCH  20  23
BRANCH   9   7
ATOM      5  O   UNL     1     -13.453  -6.423  15.610  0.00  0.00    -0.275 OA
ATOM      7  N   UNL     1     -11.285  -7.254  15.507  0.00  0.00    -0.309 N 
ATOM     17  C   UNL     1     -12.309  -6.388  15.159  0.00  0.00    +0.223 C 
ATOM     28  H   UNL     1     -10.360  -7.098  15.116  0.00  0.00    +0.149 HD
BRANCH  17  21
ATOM     21  C   UNL     1     -11.894  -5.367  14.127  0.00  0.00    +0.164 C 
BRANCH  21   1
ATOM      1  S   UNL     1     -13.377  -4.673  13.358  0.00  0.00    -0.155 S 
ATOM     27  C   UNL     1     -12.574  -3.548  12.192  0.00  0.00    +0.085 C 
ENDBRANCH  21   1
ENDBRANCH  17  21
ENDBRANCH   9   7
TORSDOF 4
ENDMDL
MODEL 4
REMARK VINA RESULT:      -6.1     25.427     27.904
REMARK  Name = 11941501
REMARK  5 active torsions:
REMARK  status: ('A' for Active; 'I' for Inactive)
REMARK    1  A    between atoms: S_1  and  C_21
REMARK    2  A    between atoms: S_1  and  C_27
REMARK    3  A    between atoms: N_7  and  C_9
REMARK    4  A    between atoms: C_17  and  C_21
REMARK    5  A    between atoms: C_20  and  C_23
REMARK                            x       y       z     vdW  Elec       q    Type
REMARK                         _______ _______ _______ _____ _____    ______ ____
ROOT
ATOM      3  O   UNL     1      10.146   5.125   7.668  0.00  0.00    -0.273 OA
ATOM      4  O   UNL     1       8.078   7.693   3.558  0.00  0.00    -0.270 OA
ATOM      6  N   UNL     1       9.304   7.448   5.489  0.00  0.00    -0.284 N 
ATOM      8  N   UNL     1      10.286   4.676   5.439  0.00  0.00    -0.283 N 
ATOM      9  C   UNL     1      10.552   7.905   7.446  0.00  0.00    +0.104 C 
ATOM     10  C   UNL     1      10.488   7.008   6.202  0.00  0.00    +0.183 C 
ATOM     11  C   UNL     1       9.090   8.292   7.680  0.00  0.00    +0.043 C 
ATOM     12  C   UNL     1       8.524   8.396   6.272  0.00  0.00    +0.111 C 
ATOM     13  C   UNL     1      10.255   5.541   6.513  0.00  0.00    +0.240 C 
ATOM     14  C   UNL     1       9.006   7.167   4.173  0.00  0.00    +0.249 C 
ATOM     15  C   UNL     1       9.837   6.157   3.468  0.00  0.00    +0.059 A 
ATOM     16  C   UNL     1      10.332   4.985   4.062  0.00  0.00    +0.046 A 
ATOM     18  C   UNL     1       9.973   6.340   2.079  0.00  0.00    +0.023 A 
ATOM     19  C   UNL     1      10.892   3.992   3.239  0.00  0.00    +0.024 A 
ATOM     20  C   UNL     1      10.575   5.364   1.286  0.00  0.00    -0.017 A 
ATOM     22  C   UNL     1      11.024   4.183   1.864  0.00  0.00    +0.010 A 
ATOM     29  H   UNL     1      10.369   3.690   5.676  0.00  0.00    +0.155 HD
ENDROOT
BRANCH  20  23
ATOM      2  S   UNL     1      11.836   6.047  -2.391  0.00  0.00    -0.104 S 
ATOM     23  C   UNL     1      10.708   5.569  -0.129  0.00  0.00    -0.011 A 
ATOM     24  C   UNL     1       9.672   5.522  -1.109  0.00  0.00    +0.016 A 
ATOM     25  C   UNL     1      11.936   5.845  -0.694  0.00  0.00    +0.053 A 
ATOM     26  C   UNL     1      10.147   5.764  -2.379  0.00  0.00    +0.046 A 
ENDBRANCH  20  23
BRANCH   9   7
ATOM      5  O   UNL     1      13.429   7.996   7.149  0.00  0.00    -0.275 OA
ATOM      7  N   UNL     1      11.369   9.071   7.201  0.00  0.00    -0.309 N 
ATOM     17  C   UNL     1      12.747   9.017   7.074  0.00  0.00    +0.223 C 
ATOM     28  H   UNL     1      10.900   9.961   7.062  0.00  0.00    +0.149 HD
BRANCH  17  21
ATOM     21  C   UNL     1      13.371  10.373   6.840  0.00  0.00    +0.164 C 
BRANCH  21   1
ATOM      1  S   UNL     1      15.108  10.149   6.388  0.00  0.00    -0.155 S 
ATOM     27  C   UNL     1      14.904  10.016   4.596  0.00  0.00    +0.085 C 
ENDBRANCH  21   1
ENDBRANCH  17  21
ENDBRANCH   9   7
TORSDOF 4
ENDMDL
MODEL 5
REMARK VINA RESULT:      -6.1      3.576      8.358
REMARK  Name = 11941501
REMARK  5 active torsions:
REMARK  status: ('A' for Active; 'I' for Inactive)
REMARK    1  A    between atoms: S_1  and  C_21
REMARK    2  A    between atoms: S_1  and  C_27
REMARK    3  A    between atoms: N_7  and  C_9
REMARK    4  A    between atoms: C_17  and  C_21
REMARK    5  A    between atoms: C_20  and  C_23
REMARK                            x       y       z     vdW  Elec       q    Type
REMARK                         _______ _______ _______ _____ _____    ______ ____
ROOT
ATOM      3  O   UNL     1      -5.976 -11.437  20.607  0.00  0.00    -0.273 OA
ATOM      4  O   UNL     1      -6.576 -13.423  15.764  0.00  0.00    -0.270 OA
ATOM      6  N   UNL     1      -7.173 -12.242  17.645  0.00  0.00    -0.284 N 
ATOM      8  N   UNL     1      -4.645 -11.241  18.770  0.00  0.00    -0.283 N 
ATOM      9  C   UNL     1      -8.419 -11.043  19.259  0.00  0.00    +0.104 C 
ATOM     10  C   UNL     1      -7.086 -11.072  18.499  0.00  0.00    +0.183 C 
ATOM     11  C   UNL     1      -8.846 -12.512  19.283  0.00  0.00    +0.043 C 
ATOM     12  C   UNL     1      -8.349 -13.045  17.949  0.00  0.00    +0.111 C 
ATOM     13  C   UNL     1      -5.877 -11.303  19.387  0.00  0.00    +0.240 C 
ATOM     14  C   UNL     1      -6.366 -12.507  16.559  0.00  0.00    +0.249 C 
ATOM     15  C   UNL     1      -5.168 -11.652  16.353  0.00  0.00    +0.059 A 
ATOM     16  C   UNL     1      -4.355 -11.165  17.390  0.00  0.00    +0.046 A 
ATOM     18  C   UNL     1      -4.759 -11.485  15.017  0.00  0.00    +0.023 A 
ATOM     19  C   UNL     1      -3.119 -10.580  17.064  0.00  0.00    +0.024 A 
ATOM     20  C   UNL     1      -3.552 -10.859  14.712  0.00  0.00    -0.017 A 
ATOM     22  C   UNL     1      -2.725 -10.417  15.736  0.00  0.00    +0.010 A 
ATOM     29  H   UNL     1      -3.848 -11.158  19.396  0.00  0.00    +0.155 HD
ENDROOT
BRANCH  20  23
ATOM      2  S   UNL     1      -3.340 -10.626  10.778  0.00  0.00    -0.104 S 
ATOM     23  C   UNL     1      -3.153 -10.693  13.343  0.00  0.00    -0.011 A 
ATOM     24  C   UNL     1      -1.859 -10.336  12.858  0.00  0.00    +0.016 A 
ATOM     25  C   UNL     1      -4.052 -10.880  12.314  0.00  0.00    +0.053 A 
ATOM     26  C   UNL     1      -1.821 -10.264  11.483  0.00  0.00    +0.046 A 
ENDBRANCH  20  23
BRANCH   9   7
ATOM      5  O   UNL     1     -11.047 -10.275  20.197  0.00  0.00    -0.275 OA
ATOM      7  N   UNL     1      -9.391 -10.227  18.568  0.00  0.00    -0.309 N 
ATOM     17  C   UNL     1     -10.631  -9.911  19.098  0.00  0.00    +0.223 C 
ATOM     28  H   UNL     1      -9.125  -9.824  17.673  0.00  0.00    +0.149 HD
BRANCH  17  21
ATOM     21  C   UNL     1     -11.470  -9.063  18.173  0.00  0.00    +0.164 C 
BRANCH  21   1
ATOM      1  S   UNL     1     -10.375  -8.034  17.165  0.00  0.00    -0.155 S 
ATOM     27  C   UNL     1     -11.536  -7.621  15.842  0.00  0.00    +0.085 C 
ENDBRANCH  21   1
ENDBRANCH  17  21
ENDBRANCH   9   7
TORSDOF 4
ENDMDL
MODEL 6
REMARK VINA RESULT:      -6.0     28.524     30.954
REMARK  Name = 11941501
REMARK  5 active torsions:
REMARK  status: ('A' for Active; 'I' for Inactive)
REMARK    1  A    between atoms: S_1  and  C_21
REMARK    2  A    between atoms: S_1  and  C_27
REMARK    3  A    between atoms: N_7  and  C_9
REMARK    4  A    between atoms: C_17  and  C_21
REMARK    5  A    between atoms: C_20  and  C_23
REMARK                            x       y       z     vdW  Elec       q    Type
REMARK                         _______ _______ _______ _____ _____    ______ ____
ROOT
ATOM      3  O   UNL     1      10.539  11.755  25.696  0.00  0.00    -0.273 OA
ATOM      4  O   UNL     1      12.462  13.504  21.112  0.00  0.00    -0.270 OA
ATOM      6  N   UNL     1      12.482  13.039  23.364  0.00  0.00    -0.284 N 
ATOM      8  N   UNL     1      10.735  10.694  23.690  0.00  0.00    -0.283 N 
ATOM      9  C   UNL     1      13.084  12.965  25.651  0.00  0.00    +0.104 C 
ATOM     10  C   UNL     1      12.588  12.112  24.476  0.00  0.00    +0.183 C 
ATOM     11  C   UNL     1      12.580  14.369  25.308  0.00  0.00    +0.043 C 
ATOM     12  C   UNL     1      12.678  14.417  23.791  0.00  0.00    +0.111 C 
ATOM     13  C   UNL     1      11.192  11.548  24.672  0.00  0.00    +0.240 C 
ATOM     14  C   UNL     1      12.384  12.692  22.034  0.00  0.00    +0.249 C 
ATOM     15  C   UNL     1      12.148  11.263  21.699  0.00  0.00    +0.059 A 
ATOM     16  C   UNL     1      11.315  10.404  22.435  0.00  0.00    +0.046 A 
ATOM     18  C   UNL     1      12.675  10.829  20.469  0.00  0.00    +0.023 A 
ATOM     19  C   UNL     1      10.976   9.154  21.888  0.00  0.00    +0.024 A 
ATOM     20  C   UNL     1      12.366   9.566  19.965  0.00  0.00    -0.017 A 
ATOM     22  C   UNL     1      11.506   8.733  20.668  0.00  0.00    +0.010 A 
ATOM     29  H   UNL     1       9.917  10.143  23.939  0.00  0.00    +0.155 HD
ENDROOT
BRANCH  20  23
ATOM      2  S   UNL     1      13.610   9.235  16.235  0.00  0.00    -0.104 S 
ATOM     23  C   UNL     1      12.915   9.138  18.709  0.00  0.00    -0.011 A 
ATOM     24  C   UNL     1      13.521   7.880  18.416  0.00  0.00    +0.016 A 
ATOM     25  C   UNL     1      12.899   9.969  17.608  0.00  0.00    +0.053 A 
ATOM     26  C   UNL     1      13.943   7.799  17.108  0.00  0.00    +0.046 A 
ENDBRANCH  20  23
BRANCH   9   7
ATOM      5  O   UNL     1      14.710  11.052  27.091  0.00  0.00    -0.275 OA
ATOM      7  N   UNL     1      14.526  12.934  25.740  0.00  0.00    -0.309 N 
ATOM     17  C   UNL     1      15.221  11.975  26.457  0.00  0.00    +0.223 C 
ATOM     28  H   UNL     1      15.052  13.619  25.203  0.00  0.00    +0.149 HD
BRANCH  17  21
ATOM     21  C   UNL     1      16.718  12.172  26.410  0.00  0.00    +0.164 C 
BRANCH  21   1
ATOM      1  S   UNL     1      17.099  13.486  25.227  0.00  0.00    -0.155 S 
ATOM     27  C   UNL     1      17.569  12.452  23.819  0.00  0.00    +0.085 C 
ENDBRANCH  21   1
ENDBRANCH  17  21
ENDBRANCH   9   7
TORSDOF 4
ENDMDL
MODEL 7
REMARK VINA RESULT:      -6.0     22.997     26.477
REMARK  Name = 11941501
REMARK  5 active torsions:
REMARK  status: ('A' for Active; 'I' for Inactive)
REMARK    1  A    between atoms: S_1  and  C_21
REMARK    2  A    between atoms: S_1  and  C_27
REMARK    3  A    between atoms: N_7  and  C_9
REMARK    4  A    between atoms: C_17  and  C_21
REMARK    5  A    between atoms: C_20  and  C_23
REMARK                            x       y       z     vdW  Elec       q    Type
REMARK                         _______ _______ _______ _____ _____    ______ ____
ROOT
ATOM      3  O   UNL     1     -13.973   4.832  34.827  0.00  0.00    -0.273 OA
ATOM      4  O   UNL     1     -17.168   6.088  30.830  0.00  0.00    -0.270 OA
ATOM      6  N   UNL     1     -15.356   6.312  32.228  0.00  0.00    -0.284 N 
ATOM      8  N   UNL     1     -14.674   3.575  33.062  0.00  0.00    -0.283 N 
ATOM      9  C   UNL     1     -13.459   7.175  33.348  0.00  0.00    +0.104 C 
ATOM     10  C   UNL     1     -14.033   5.920  32.676  0.00  0.00    +0.183 C 
ATOM     11  C   UNL     1     -14.706   7.929  33.817  0.00  0.00    +0.043 C 
ATOM     12  C   UNL     1     -15.727   7.627  32.732  0.00  0.00    +0.111 C 
ATOM     13  C   UNL     1     -14.252   4.759  33.629  0.00  0.00    +0.240 C 
ATOM     14  C   UNL     1     -16.126   5.638  31.305  0.00  0.00    +0.249 C 
ATOM     15  C   UNL     1     -15.682   4.285  30.880  0.00  0.00    +0.059 A 
ATOM     16  C   UNL     1     -15.101   3.336  31.737  0.00  0.00    +0.046 A 
ATOM     18  C   UNL     1     -16.038   3.908  29.572  0.00  0.00    +0.023 A 
ATOM     19  C   UNL     1     -14.950   2.014  31.284  0.00  0.00    +0.024 A 
ATOM     20  C   UNL     1     -15.837   2.604  29.123  0.00  0.00    -0.017 A 
ATOM     22  C   UNL     1     -15.305   1.652  29.984  0.00  0.00    +0.010 A 
ATOM     29  H   UNL     1     -14.589   2.753  33.655  0.00  0.00    +0.155 HD
ENDROOT
BRANCH  20  23
ATOM      2  S   UNL     1     -16.619   2.480  25.258  0.00  0.00    -0.104 S 
ATOM     23  C   UNL     1     -16.204   2.238  27.784  0.00  0.00    -0.011 A 
ATOM     24  C   UNL     1     -16.665   0.966  27.333  0.00  0.00    +0.016 A 
ATOM     25  C   UNL     1     -16.133   3.153  26.754  0.00  0.00    +0.053 A 
ATOM     26  C   UNL     1     -16.928   0.958  25.981  0.00  0.00    +0.046 A 
ENDBRANCH  20  23
BRANCH   9   7
ATOM      5  O   UNL     1     -11.530   9.246  33.954  0.00  0.00    -0.275 OA
ATOM      7  N   UNL     1     -12.695   7.962  32.407  0.00  0.00    -0.309 N 
ATOM     17  C   UNL     1     -11.791   8.937  32.792  0.00  0.00    +0.223 C 
ATOM     28  H   UNL     1     -12.791   7.747  31.418  0.00  0.00    +0.149 HD
BRANCH  17  21
ATOM     21  C   UNL     1     -11.136   9.630  31.621  0.00  0.00    +0.164 C 
BRANCH  21   1
ATOM      1  S   UNL     1     -12.422  10.229  30.499  0.00  0.00    -0.155 S 
ATOM     27  C   UNL     1     -11.485  10.161  28.954  0.00  0.00    +0.085 C 
ENDBRANCH  21   1
ENDBRANCH  17  21
ENDBRANCH   9   7
TORSDOF 4
ENDMDL
MODEL 8
REMARK VINA RESULT:      -5.7      8.344     10.431
REMARK  Name = 11941501
REMARK  5 active torsions:
REMARK  status: ('A' for Active; 'I' for Inactive)
REMARK    1  A    between atoms: S_1  and  C_21
REMARK    2  A    between atoms: S_1  and  C_27
REMARK    3  A    between atoms: N_7  and  C_9
REMARK    4  A    between atoms: C_17  and  C_21
REMARK    5  A    between atoms: C_20  and  C_23
REMARK                            x       y       z     vdW  Elec       q    Type
REMARK                         _______ _______ _______ _____ _____    ______ ____
ROOT
ATOM      3  O   UNL     1     -12.636  -3.108  12.504  0.00  0.00    -0.273 OA
ATOM      4  O   UNL     1     -14.143  -8.129  13.025  0.00  0.00    -0.270 OA
ATOM      6  N   UNL     1     -13.283  -6.290  11.946  0.00  0.00    -0.284 N 
ATOM      8  N   UNL     1     -12.036  -4.663  14.056  0.00  0.00    -0.283 N 
ATOM      9  C   UNL     1     -12.476  -4.823  10.274  0.00  0.00    +0.104 C 
ATOM     10  C   UNL     1     -12.215  -5.339  11.696  0.00  0.00    +0.183 C 
ATOM     11  C   UNL     1     -13.987  -4.996  10.105  0.00  0.00    +0.043 C 
ATOM     12  C   UNL     1     -14.286  -6.263  10.891  0.00  0.00    +0.111 C 
ATOM     13  C   UNL     1     -12.355  -4.277  12.770  0.00  0.00    +0.240 C 
ATOM     14  C   UNL     1     -13.299  -7.237  12.947  0.00  0.00    +0.249 C 
ATOM     15  C   UNL     1     -12.253  -7.159  14.000  0.00  0.00    +0.059 A 
ATOM     16  C   UNL     1     -11.764  -5.960  14.543  0.00  0.00    +0.046 A 
ATOM     18  C   UNL     1     -11.878  -8.385  14.580  0.00  0.00    +0.023 A 
ATOM     19  C   UNL     1     -10.963  -6.015  15.697  0.00  0.00    +0.024 A 
ATOM     20  C   UNL     1     -11.043  -8.422  15.696  0.00  0.00    -0.017 A 
ATOM     22  C   UNL     1     -10.595  -7.236  16.263  0.00  0.00    +0.010 A 
ATOM     29  H   UNL     1     -11.901  -3.902  14.718  0.00  0.00    +0.155 HD
ENDROOT
BRANCH  20  23
ATOM      2  S   UNL     1      -9.369 -11.373  17.710  0.00  0.00    -0.104 S 
ATOM     23  C   UNL     1     -10.668  -9.682  16.273  0.00  0.00    -0.011 A 
ATOM     24  C   UNL     1     -11.273 -10.953  16.038  0.00  0.00    +0.016 A 
ATOM     25  C   UNL     1      -9.619  -9.770  17.164  0.00  0.00    +0.053 A 
ATOM     26  C   UNL     1     -10.665 -11.958  16.756  0.00  0.00    +0.046 A 
ENDBRANCH  20  23
BRANCH   9   7
ATOM      5  O   UNL     1     -10.008  -4.104   8.944  0.00  0.00    -0.275 OA
ATOM      7  N   UNL     1     -11.748  -5.603   9.299  0.00  0.00    -0.309 N 
ATOM     17  C   UNL     1     -10.569  -5.174   8.713  0.00  0.00    +0.223 C 
ATOM     28  H   UNL     1     -12.093  -6.533   9.079  0.00  0.00    +0.149 HD
BRANCH  17  21
ATOM     21  C   UNL     1     -10.014  -6.162   7.713  0.00  0.00    +0.164 C 
BRANCH  21   1
ATOM      1  S   UNL     1      -8.260  -6.430   8.066  0.00  0.00    -0.155 S 
ATOM     27  C   UNL     1      -8.410  -7.945   9.041  0.00  0.00    +0.085 C 
ENDBRANCH  21   1
ENDBRANCH  17  21
ENDBRANCH   9   7
TORSDOF 4
ENDMDL
MODEL 9
REMARK VINA RESULT:      -5.6     22.501     25.762
REMARK  Name = 11941501
REMARK  5 active torsions:
REMARK  status: ('A' for Active; 'I' for Inactive)
REMARK    1  A    between atoms: S_1  and  C_21
REMARK    2  A    between atoms: S_1  and  C_27
REMARK    3  A    between atoms: N_7  and  C_9
REMARK    4  A    between atoms: C_17  and  C_21
REMARK    5  A    between atoms: C_20  and  C_23
REMARK                            x       y       z     vdW  Elec       q    Type
REMARK                         _______ _______ _______ _____ _____    ______ ____
ROOT
ATOM      3  O   UNL     1     -18.676   3.183  29.924  0.00  0.00    -0.273 OA
ATOM      4  O   UNL     1     -13.674   3.145  31.578  0.00  0.00    -0.270 OA
ATOM      6  N   UNL     1     -15.384   3.099  30.042  0.00  0.00    -0.284 N 
ATOM      8  N   UNL     1     -17.563   4.657  31.257  0.00  0.00    -0.283 N 
ATOM      9  C   UNL     1     -16.611   2.863  28.033  0.00  0.00    +0.104 C 
ATOM     10  C   UNL     1     -16.426   3.751  29.271  0.00  0.00    +0.183 C 
ATOM     11  C   UNL     1     -16.171   1.480  28.519  0.00  0.00    +0.043 C 
ATOM     12  C   UNL     1     -15.048   1.792  29.495  0.00  0.00    +0.111 C 
ATOM     13  C   UNL     1     -17.640   3.797  30.181  0.00  0.00    +0.240 C 
ATOM     14  C   UNL     1     -14.657   3.675  31.061  0.00  0.00    +0.249 C 
ATOM     15  C   UNL     1     -15.100   4.996  31.576  0.00  0.00    +0.059 A 
ATOM     16  C   UNL     1     -16.444   5.374  31.733  0.00  0.00    +0.046 A 
ATOM     18  C   UNL     1     -14.085   5.826  32.086  0.00  0.00    +0.023 A 
ATOM     19  C   UNL     1     -16.740   6.544  32.456  0.00  0.00    +0.024 A 
ATOM     20  C   UNL     1     -14.396   7.007  32.758  0.00  0.00    -0.017 A 
ATOM     22  C   UNL     1     -15.724   7.360  32.954  0.00  0.00    +0.010 A 
ATOM     29  H   UNL     1     -18.448   4.860  31.716  0.00  0.00    +0.155 HD
ENDROOT
BRANCH  20  23
ATOM      2  S   UNL     1     -11.862   9.058  34.982  0.00  0.00    -0.104 S 
ATOM     23  C   UNL     1     -13.346   7.843  33.268  0.00  0.00    -0.011 A 
ATOM     24  C   UNL     1     -12.378   8.569  32.513  0.00  0.00    +0.016 A 
ATOM     25  C   UNL     1     -13.177   8.022  34.625  0.00  0.00    +0.053 A 
ATOM     26  C   UNL     1     -11.511   9.273  33.319  0.00  0.00    +0.046 A 
ENDBRANCH  20  23
BRANCH   9   7
ATOM      5  O   UNL     1     -17.424   3.322  25.293  0.00  0.00    -0.275 OA
ATOM      7  N   UNL     1     -15.784   3.321  26.940  0.00  0.00    -0.309 N 
ATOM     17  C   UNL     1     -16.264   3.512  25.655  0.00  0.00    +0.223 C 
ATOM     28  H   UNL     1     -14.819   3.565  27.142  0.00  0.00    +0.149 HD
BRANCH  17  21
ATOM     21  C   UNL     1     -15.198   3.976  24.690  0.00  0.00    +0.164 C 
BRANCH  21   1
ATOM      1  S   UNL     1     -15.968   4.335  23.093  0.00  0.00    -0.155 S 
ATOM     27  C   UNL     1     -14.542   5.081  22.268  0.00  0.00    +0.085 C 
ENDBRANCH  21   1
ENDBRANCH  17  21
ENDBRANCH   9   7
TORSDOF 4
ENDMDL
MODEL 10
REMARK VINA RESULT:      -5.6     25.218     28.218
REMARK  Name = 11941501
REMARK  5 active torsions:
REMARK  status: ('A' for Active; 'I' for Inactive)
REMARK    1  A    between atoms: S_1  and  C_21
REMARK    2  A    between atoms: S_1  and  C_27
REMARK    3  A    between atoms: N_7  and  C_9
REMARK    4  A    between atoms: C_17  and  C_21
REMARK    5  A    between atoms: C_20  and  C_23
REMARK                            x       y       z     vdW  Elec       q    Type
REMARK                         _______ _______ _______ _____ _____    ______ ____
ROOT
ATOM      3  O   UNL     1      11.511   8.971   7.166  0.00  0.00    -0.273 OA
ATOM      4  O   UNL     1      10.286   4.425   4.802  0.00  0.00    -0.270 OA
ATOM      6  N   UNL     1       9.918   6.550   5.599  0.00  0.00    -0.284 N 
ATOM      8  N   UNL     1      12.520   7.909   5.422  0.00  0.00    -0.283 N 
ATOM      9  C   UNL     1       8.866   8.554   6.289  0.00  0.00    +0.104 C 
ATOM     10  C   UNL     1      10.062   7.991   5.508  0.00  0.00    +0.183 C 
ATOM     11  C   UNL     1       8.544   7.445   7.294  0.00  0.00    +0.043 C 
ATOM     12  C   UNL     1       8.859   6.172   6.525  0.00  0.00    +0.111 C 
ATOM     13  C   UNL     1      11.408   8.307   6.134  0.00  0.00    +0.240 C 
ATOM     14  C   UNL     1      10.558   5.625   4.803  0.00  0.00    +0.249 C 
ATOM     15  C   UNL     1      11.651   6.103   3.917  0.00  0.00    +0.059 A 
ATOM     16  C   UNL     1      12.584   7.091   4.273  0.00  0.00    +0.046 A 
ATOM     18  C   UNL     1      11.833   5.378   2.725  0.00  0.00    +0.023 A 
ATOM     19  C   UNL     1      13.713   7.284   3.457  0.00  0.00    +0.024 A 
ATOM     20  C   UNL     1      12.934   5.616   1.904  0.00  0.00    -0.017 A 
ATOM     22  C   UNL     1      13.882   6.561   2.276  0.00  0.00    +0.010 A 
ATOM     29  H   UNL     1      13.399   8.327   5.719  0.00  0.00    +0.155 HD
ENDROOT
BRANCH  20  23
ATOM      2  S   UNL     1      13.900   4.298  -1.687  0.00  0.00    -0.104 S 
ATOM     23  C   UNL     1      13.101   4.869   0.689  0.00  0.00    -0.011 A 
ATOM     24  C   UNL     1      12.561   3.584   0.386  0.00  0.00    +0.016 A 
ATOM     25  C   UNL     1      13.850   5.371  -0.355  0.00  0.00    +0.053 A 
ATOM     26  C   UNL     1      12.918   3.155  -0.874  0.00  0.00    +0.046 A 
ENDBRANCH  20  23
BRANCH   9   7
ATOM      5  O   UNL     1       8.272  11.001   4.862  0.00  0.00    -0.275 OA
ATOM      7  N   UNL     1       7.747   8.804   5.410  0.00  0.00    -0.309 N 
ATOM     17  C   UNL     1       7.543  10.014   4.767  0.00  0.00    +0.223 C 
ATOM     28  H   UNL     1       7.112   8.034   5.214  0.00  0.00    +0.149 HD
BRANCH  17  21
ATOM     21  C   UNL     1       6.293  10.029   3.920  0.00  0.00    +0.164 C 
BRANCH  21   1
ATOM      1  S   UNL     1       6.724  10.567   2.247  0.00  0.00    -0.155 S 
ATOM     27  C   UNL     1       7.777   9.172   1.780  0.00  0.00    +0.085 C 
ENDBRANCH  21   1
ENDBRANCH  17  21
ENDBRANCH   9   7
TORSDOF 4
ENDMDL
