MODEL 1
REMARK VINA RESULT:      -7.8      0.000      0.000
REMARK  Name = 11886125
REMARK  5 active torsions:
REMARK  status: ('A' for Active; 'I' for Inactive)
REMARK    1  A    between atoms: S_1  and  N_7
REMARK    2  A    between atoms: S_1  and  C_18
REMARK    3  A    between atoms: N_6  and  C_14
REMARK    4  A    between atoms: N_7  and  C_13
REMARK    5  A    between atoms: C_17  and  C_19
REMARK                            x       y       z     vdW  Elec       q    Type
REMARK                         _______ _______ _______ _____ _____    ______ ____
ROOT
ATOM      2  O   UNL     1      -5.487  -9.712  16.569  0.00  0.00    -0.370 OA
ATOM      3  O   UNL     1      -5.017 -11.735  18.932  0.00  0.00    -0.370 OA
ATOM     11  C   UNL     1      -5.201 -11.876  17.514  0.00  0.00    +0.170 C 
ATOM     12  C   UNL     1      -6.219 -10.841  17.077  0.00  0.00    +0.175 C 
ATOM     13  C   UNL     1      -3.937 -11.491  16.780  0.00  0.00    +0.133 C 
ATOM     14  C   UNL     1      -6.947 -10.454  18.350  0.00  0.00    +0.168 C 
ATOM     15  C   UNL     1      -4.081  -9.985  16.656  0.00  0.00    +0.183 C 
ATOM     16  C   UNL     1      -5.912 -10.732  19.435  0.00  0.00    +0.190 C 
ENDROOT
BRANCH  14   6
ATOM      6  N   UNL     1      -8.219 -11.164  18.509  0.00  0.00    -0.217 N 
ATOM      8  N   UNL     1      -8.289 -12.271  19.255  0.00  0.00    -0.043 NA
ATOM      9  N   UNL     1     -10.287 -11.783  18.395  0.00  0.00    -0.108 NA
ATOM     10  N   UNL     1      -9.560 -12.647  19.183  0.00  0.00    -0.023 NA
ATOM     17  C   UNL     1      -9.434 -10.871  17.990  0.00  0.00    +0.182 A 
BRANCH  17  19
ATOM     19  C   UNL     1      -9.712  -9.743  17.138  0.00  0.00    +0.021 A 
ATOM     22  C   UNL     1      -9.555  -9.855  15.755  0.00  0.00    +0.011 A 
ATOM     23  C   UNL     1     -10.142  -8.536  17.692  0.00  0.00    +0.011 A 
ATOM     27  C   UNL     1      -9.823  -8.763  14.930  0.00  0.00    +0.001 A 
ATOM     28  C   UNL     1     -10.410  -7.444  16.867  0.00  0.00    +0.001 A 
ATOM     31  C   UNL     1     -10.251  -7.558  15.486  0.00  0.00    +0.000 A 
ENDBRANCH  17  19
ENDBRANCH  14   6
BRANCH  13   7
ATOM      7  N   UNL     1      -3.876 -12.118  15.482  0.00  0.00    -0.182 NA
ATOM     34  H   UNL     1      -4.563 -12.855  15.284  0.00  0.00    +0.148 HD
BRANCH   7   1
ATOM      1  S   UNL     1      -2.420 -12.106  14.607  0.00  0.00    +0.059 S 
ATOM      4  O   UNL     1      -2.114 -13.452  14.160  0.00  0.00    -0.153 OA
ATOM      5  O   UNL     1      -1.435 -11.342  15.348  0.00  0.00    -0.153 OA
BRANCH   1  18
ATOM     18  C   UNL     1      -2.854 -11.146  13.188  0.00  0.00    +0.106 A 
ATOM     20  C   UNL     1      -4.171 -10.753  13.016  0.00  0.00    +0.037 A 
ATOM     21  C   UNL     1      -1.874 -10.804  12.278  0.00  0.00    +0.029 A 
ATOM     24  C   UNL     1      -4.534  -9.991  11.893  0.00  0.00    -0.016 A 
ATOM     25  C   UNL     1      -2.215 -10.046  11.158  0.00  0.00    +0.010 A 
ATOM     26  C   UNL     1      -3.541  -9.631  10.951  0.00  0.00    -0.018 A 
ATOM     29  C   UNL     1      -5.859  -9.575  11.687  0.00  0.00    +0.008 A 
ATOM     30  C   UNL     1      -3.903  -8.869   9.829  0.00  0.00    +0.008 A 
ATOM     32  C   UNL     1      -6.201  -8.818  10.566  0.00  0.00    +0.001 A 
ATOM     33  C   UNL     1      -5.225  -8.465   9.640  0.00  0.00    +0.001 A 
ENDBRANCH   1  18
ENDBRANCH   7   1
ENDBRANCH  13   7
TORSDOF 5
ENDMDL
MODEL 2
REMARK VINA RESULT:      -7.4     24.515     28.194
REMARK  Name = 11886125
REMARK  5 active torsions:
REMARK  status: ('A' for Active; 'I' for Inactive)
REMARK    1  A    between atoms: S_1  and  N_7
REMARK    2  A    between atoms: S_1  and  C_18
REMARK    3  A    between atoms: N_6  and  C_14
REMARK    4  A    between atoms: N_7  and  C_13
REMARK    5  A    between atoms: C_17  and  C_19
REMARK                            x       y       z     vdW  Elec       q    Type
REMARK                         _______ _______ _______ _____ _____    ______ ____
ROOT
ATOM      2  O   UNL     1      12.574   7.738   0.310  0.00  0.00    -0.370 OA
ATOM      3  O   UNL     1       9.646   7.899  -0.827  0.00  0.00    -0.370 OA
ATOM     11  C   UNL     1      10.218   7.418   0.399  0.00  0.00    +0.170 C 
ATOM     12  C   UNL     1      11.545   6.764   0.062  0.00  0.00    +0.175 C 
ATOM     13  C   UNL     1      10.590   8.577   1.295  0.00  0.00    +0.133 C 
ATOM     14  C   UNL     1      11.462   6.467  -1.423  0.00  0.00    +0.168 C 
ATOM     15  C   UNL     1      11.971   8.949   0.787  0.00  0.00    +0.183 C 
ATOM     16  C   UNL     1      10.483   7.521  -1.929  0.00  0.00    +0.190 C 
ENDROOT
BRANCH  14   6
ATOM      6  N   UNL     1      11.078   5.080  -1.699  0.00  0.00    -0.217 N 
ATOM      8  N   UNL     1       9.981   4.809  -2.413  0.00  0.00    -0.043 NA
ATOM      9  N   UNL     1      10.993   2.922  -1.793  0.00  0.00    -0.108 NA
ATOM     10  N   UNL     1       9.933   3.484  -2.469  0.00  0.00    -0.023 NA
ATOM     17  C   UNL     1      11.690   3.932  -1.325  0.00  0.00    +0.182 A 
BRANCH  17  19
ATOM     19  C   UNL     1      12.898   3.862  -0.544  0.00  0.00    +0.021 A 
ATOM     22  C   UNL     1      12.836   3.540   0.813  0.00  0.00    +0.011 A 
ATOM     23  C   UNL     1      14.134   4.115  -1.142  0.00  0.00    +0.011 A 
ATOM     27  C   UNL     1      14.006   3.473   1.570  0.00  0.00    +0.001 A 
ATOM     28  C   UNL     1      15.303   4.048  -0.385  0.00  0.00    +0.001 A 
ATOM     31  C   UNL     1      15.239   3.726   0.971  0.00  0.00    +0.000 A 
ENDBRANCH  17  19
ENDBRANCH  14   6
BRANCH  13   7
ATOM      7  N   UNL     1      10.635   8.174   2.680  0.00  0.00    -0.182 NA
ATOM     34  H   UNL     1      11.311   7.443   2.933  0.00  0.00    +0.148 HD
BRANCH   7   1
ATOM      1  S   UNL     1       9.275   8.404   3.671  0.00  0.00    +0.059 S 
ATOM      4  O   UNL     1       8.070   8.177   2.897  0.00  0.00    -0.153 OA
ATOM      5  O   UNL     1       9.442   9.638   4.415  0.00  0.00    -0.153 OA
BRANCH   1  18
ATOM     18  C   UNL     1       9.438   7.079   4.828  0.00  0.00    +0.106 A 
ATOM     20  C   UNL     1       9.178   7.315   6.168  0.00  0.00    +0.037 A 
ATOM     21  C   UNL     1       9.823   5.832   4.376  0.00  0.00    +0.029 A 
ATOM     24  C   UNL     1       9.304   6.274   7.101  0.00  0.00    -0.016 A 
ATOM     25  C   UNL     1       9.953   4.785   5.289  0.00  0.00    +0.010 A 
ATOM     26  C   UNL     1       9.697   4.989   6.654  0.00  0.00    -0.018 A 
ATOM     29  C   UNL     1       9.047   6.477   8.466  0.00  0.00    +0.008 A 
ATOM     30  C   UNL     1       9.823   3.947   7.587  0.00  0.00    +0.008 A 
ATOM     32  C   UNL     1       9.178   5.430   9.379  0.00  0.00    +0.001 A 
ATOM     33  C   UNL     1       9.565   4.168   8.940  0.00  0.00    +0.001 A 
ENDBRANCH   1  18
ENDBRANCH   7   1
ENDBRANCH  13   7
TORSDOF 5
ENDMDL
MODEL 3
REMARK VINA RESULT:      -7.2      2.506      7.851
REMARK  Name = 11886125
REMARK  5 active torsions:
REMARK  status: ('A' for Active; 'I' for Inactive)
REMARK    1  A    between atoms: S_1  and  N_7
REMARK    2  A    between atoms: S_1  and  C_18
REMARK    3  A    between atoms: N_6  and  C_14
REMARK    4  A    between atoms: N_7  and  C_13
REMARK    5  A    between atoms: C_17  and  C_19
REMARK                            x       y       z     vdW  Elec       q    Type
REMARK                         _______ _______ _______ _____ _____    ______ ____
ROOT
ATOM      2  O   UNL     1      -5.446 -11.625  13.703  0.00  0.00    -0.370 OA
ATOM      3  O   UNL     1      -2.638 -13.040  13.629  0.00  0.00    -0.370 OA
ATOM     11  C   UNL     1      -3.210 -11.993  14.428  0.00  0.00    +0.170 C 
ATOM     12  C   UNL     1      -4.097 -11.157  13.525  0.00  0.00    +0.175 C 
ATOM     13  C   UNL     1      -4.160 -12.573  15.452  0.00  0.00    +0.133 C 
ATOM     14  C   UNL     1      -3.622 -11.473  12.120  0.00  0.00    +0.168 C 
ATOM     15  C   UNL     1      -5.452 -12.690  14.664  0.00  0.00    +0.183 C 
ATOM     16  C   UNL     1      -3.039 -12.875  12.261  0.00  0.00    +0.190 C 
ENDROOT
BRANCH  14   6
ATOM      6  N   UNL     1      -2.695 -10.465  11.599  0.00  0.00    -0.217 N 
ATOM      8  N   UNL     1      -1.463 -10.350  12.106  0.00  0.00    -0.043 NA
ATOM      9  N   UNL     1      -1.781  -8.853  10.485  0.00  0.00    -0.108 NA
ATOM     10  N   UNL     1      -0.906  -9.360  11.419  0.00  0.00    -0.023 NA
ATOM     17  C   UNL     1      -2.884  -9.555  10.615  0.00  0.00    +0.182 A 
BRANCH  17  19
ATOM     19  C   UNL     1      -4.100  -9.405   9.857  0.00  0.00    +0.021 A 
ATOM     22  C   UNL     1      -5.032  -8.429  10.216  0.00  0.00    +0.011 A 
ATOM     23  C   UNL     1      -4.350 -10.235   8.762  0.00  0.00    +0.011 A 
ATOM     27  C   UNL     1      -6.210  -8.285   9.484  0.00  0.00    +0.001 A 
ATOM     28  C   UNL     1      -5.527 -10.089   8.030  0.00  0.00    +0.001 A 
ATOM     31  C   UNL     1      -6.457  -9.114   8.391  0.00  0.00    +0.000 A 
ENDBRANCH  17  19
ENDBRANCH  14   6
BRANCH  13   7
ATOM      7  N   UNL     1      -4.315 -11.689  16.581  0.00  0.00    -0.182 NA
ATOM     34  H   UNL     1      -3.817 -10.791  16.545  0.00  0.00    +0.148 HD
BRANCH   7   1
ATOM      1  S   UNL     1      -4.741 -12.323  18.098  0.00  0.00    +0.059 S 
ATOM      4  O   UNL     1      -3.889 -11.745  19.119  0.00  0.00    -0.153 OA
ATOM      5  O   UNL     1      -4.869 -13.763  17.983  0.00  0.00    -0.153 OA
BRANCH   1  18
ATOM     18  C   UNL     1      -6.371 -11.678  18.318  0.00  0.00    +0.106 A 
ATOM     20  C   UNL     1      -6.771 -10.582  17.572  0.00  0.00    +0.037 A 
ATOM     21  C   UNL     1      -7.218 -12.279  19.229  0.00  0.00    +0.029 A 
ATOM     24  C   UNL     1      -8.063 -10.056  17.736  0.00  0.00    -0.016 A 
ATOM     25  C   UNL     1      -8.505 -11.771  19.404  0.00  0.00    +0.010 A 
ATOM     26  C   UNL     1      -8.943 -10.660  18.665  0.00  0.00    -0.018 A 
ATOM     29  C   UNL     1      -8.501  -8.946  16.996  0.00  0.00    +0.008 A 
ATOM     30  C   UNL     1     -10.235 -10.135  18.828  0.00  0.00    +0.008 A 
ATOM     32  C   UNL     1      -9.788  -8.437  17.171  0.00  0.00    +0.001 A 
ATOM     33  C   UNL     1     -10.653  -9.030  18.085  0.00  0.00    +0.001 A 
ENDBRANCH   1  18
ENDBRANCH   7   1
ENDBRANCH  13   7
TORSDOF 5
ENDMDL
MODEL 4
REMARK VINA RESULT:      -7.2      1.942      2.765
REMARK  Name = 11886125
REMARK  5 active torsions:
REMARK  status: ('A' for Active; 'I' for Inactive)
REMARK    1  A    between atoms: S_1  and  N_7
REMARK    2  A    between atoms: S_1  and  C_18
REMARK    3  A    between atoms: N_6  and  C_14
REMARK    4  A    between atoms: N_7  and  C_13
REMARK    5  A    between atoms: C_17  and  C_19
REMARK                            x       y       z     vdW  Elec       q    Type
REMARK                         _______ _______ _______ _____ _____    ______ ____
ROOT
ATOM      2  O   UNL     1      -5.551 -10.312  18.028  0.00  0.00    -0.370 OA
ATOM      3  O   UNL     1      -6.547 -12.507  16.006  0.00  0.00    -0.370 OA
ATOM     11  C   UNL     1      -5.802 -11.286  15.871  0.00  0.00    +0.170 C 
ATOM     12  C   UNL     1      -6.380 -10.284  16.852  0.00  0.00    +0.175 C 
ATOM     13  C   UNL     1      -4.378 -11.486  16.337  0.00  0.00    +0.133 C 
ATOM     14  C   UNL     1      -7.760 -10.818  17.181  0.00  0.00    +0.168 C 
ATOM     15  C   UNL     1      -4.492 -11.261  17.833  0.00  0.00    +0.183 C 
ATOM     16  C   UNL     1      -7.612 -12.318  16.949  0.00  0.00    +0.190 C 
ENDROOT
BRANCH  14   6
ATOM      6  N   UNL     1      -8.816 -10.171  16.398  0.00  0.00    -0.217 N 
ATOM      8  N   UNL     1      -8.535  -9.597  15.224  0.00  0.00    -0.043 NA
ATOM      9  N   UNL     1     -10.704  -9.388  15.693  0.00  0.00    -0.108 NA
ATOM     10  N   UNL     1      -9.696  -9.118  14.795  0.00  0.00    -0.023 NA
ATOM     17  C   UNL     1     -10.134 -10.043  16.679  0.00  0.00    +0.182 A 
BRANCH  17  19
ATOM     19  C   UNL     1     -10.773 -10.548  17.866  0.00  0.00    +0.021 A 
ATOM     22  C   UNL     1     -10.894  -9.736  18.995  0.00  0.00    +0.011 A 
ATOM     23  C   UNL     1     -11.275 -11.851  17.892  0.00  0.00    +0.011 A 
ATOM     27  C   UNL     1     -11.512 -10.225  20.146  0.00  0.00    +0.001 A 
ATOM     28  C   UNL     1     -11.893 -12.340  19.042  0.00  0.00    +0.001 A 
ATOM     31  C   UNL     1     -12.012 -11.527  20.169  0.00  0.00    +0.000 A 
ENDBRANCH  17  19
ENDBRANCH  14   6
BRANCH  13   7
ATOM      7  N   UNL     1      -3.490 -10.524  15.731  0.00  0.00    -0.182 NA
ATOM     34  H   UNL     1      -3.854  -9.573  15.592  0.00  0.00    +0.148 HD
BRANCH   7   1
ATOM      1  S   UNL     1      -2.208 -11.058  14.752  0.00  0.00    +0.059 S 
ATOM      4  O   UNL     1      -2.206 -12.507  14.708  0.00  0.00    -0.153 OA
ATOM      5  O   UNL     1      -1.006 -10.337  15.123  0.00  0.00    -0.153 OA
BRANCH   1  18
ATOM     18  C   UNL     1      -2.694 -10.463  13.160  0.00  0.00    +0.106 A 
ATOM     20  C   UNL     1      -4.041 -10.327  12.872  0.00  0.00    +0.037 A 
ATOM     21  C   UNL     1      -1.721 -10.146  12.233  0.00  0.00    +0.029 A 
ATOM     24  C   UNL     1      -4.444  -9.858  11.611  0.00  0.00    -0.016 A 
ATOM     25  C   UNL     1      -2.102  -9.677  10.976  0.00  0.00    +0.010 A 
ATOM     26  C   UNL     1      -3.460  -9.527  10.649  0.00  0.00    -0.018 A 
ATOM     29  C   UNL     1      -5.801  -9.707  11.285  0.00  0.00    +0.008 A 
ATOM     30  C   UNL     1      -3.862  -9.057   9.389  0.00  0.00    +0.008 A 
ATOM     32  C   UNL     1      -6.183  -9.239  10.027  0.00  0.00    +0.001 A 
ATOM     33  C   UNL     1      -5.216  -8.914   9.082  0.00  0.00    +0.001 A 
ENDBRANCH   1  18
ENDBRANCH   7   1
ENDBRANCH  13   7
TORSDOF 5
ENDMDL
MODEL 5
REMARK VINA RESULT:      -7.2      2.812      8.705
REMARK  Name = 11886125
REMARK  5 active torsions:
REMARK  status: ('A' for Active; 'I' for Inactive)
REMARK    1  A    between atoms: S_1  and  N_7
REMARK    2  A    between atoms: S_1  and  C_18
REMARK    3  A    between atoms: N_6  and  C_14
REMARK    4  A    between atoms: N_7  and  C_13
REMARK    5  A    between atoms: C_17  and  C_19
REMARK                            x       y       z     vdW  Elec       q    Type
REMARK                         _______ _______ _______ _____ _____    ______ ____
ROOT
ATOM      2  O   UNL     1      -7.110  -9.716  14.731  0.00  0.00    -0.370 OA
ATOM      3  O   UNL     1      -5.893 -12.609  14.944  0.00  0.00    -0.370 OA
ATOM     11  C   UNL     1      -5.882 -11.453  15.796  0.00  0.00    +0.170 C 
ATOM     12  C   UNL     1      -5.777 -10.228  14.909  0.00  0.00    +0.175 C 
ATOM     13  C   UNL     1      -7.216 -11.299  16.490  0.00  0.00    +0.133 C 
ATOM     14  C   UNL     1      -5.246 -10.752  13.589  0.00  0.00    +0.168 C 
ATOM     15  C   UNL     1      -8.031 -10.541  15.459  0.00  0.00    +0.183 C 
ATOM     16  C   UNL     1      -5.720 -12.201  13.579  0.00  0.00    +0.190 C 
ENDROOT
BRANCH  14   6
ATOM      6  N   UNL     1      -3.798 -10.573  13.454  0.00  0.00    -0.217 N 
ATOM      8  N   UNL     1      -3.010 -10.572  14.535  0.00  0.00    -0.043 NA
ATOM      9  N   UNL     1      -1.798 -10.275  12.688  0.00  0.00    -0.108 NA
ATOM     10  N   UNL     1      -1.785 -10.390  14.060  0.00  0.00    -0.023 NA
ATOM     17  C   UNL     1      -3.058 -10.393  12.335  0.00  0.00    +0.182 A 
BRANCH  17  19
ATOM     19  C   UNL     1      -3.591 -10.342  10.998  0.00  0.00    +0.021 A 
ATOM     22  C   UNL     1      -3.790  -9.110  10.370  0.00  0.00    +0.011 A 
ATOM     23  C   UNL     1      -3.909 -11.523  10.325  0.00  0.00    +0.011 A 
ATOM     27  C   UNL     1      -4.307  -9.061   9.076  0.00  0.00    +0.001 A 
ATOM     28  C   UNL     1      -4.425 -11.473   9.030  0.00  0.00    +0.001 A 
ATOM     31  C   UNL     1      -4.624 -10.241   8.406  0.00  0.00    +0.000 A 
ENDBRANCH  17  19
ENDBRANCH  14   6
BRANCH  13   7
ATOM      7  N   UNL     1      -7.086 -10.542  17.712  0.00  0.00    -0.182 NA
ATOM     34  H   UNL     1      -6.774  -9.567  17.627  0.00  0.00    +0.148 HD
BRANCH   7   1
ATOM      1  S   UNL     1      -6.840 -11.352  19.184  0.00  0.00    +0.059 S 
ATOM      4  O   UNL     1      -6.300 -10.425  20.161  0.00  0.00    -0.153 OA
ATOM      5  O   UNL     1      -6.165 -12.608  18.920  0.00  0.00    -0.153 OA
BRANCH   1  18
ATOM     18  C   UNL     1      -8.494 -11.748  19.663  0.00  0.00    +0.106 A 
ATOM     20  C   UNL     1      -9.449 -10.745  19.687  0.00  0.00    +0.037 A 
ATOM     21  C   UNL     1      -8.805 -13.049  20.005  0.00  0.00    +0.029 A 
ATOM     24  C   UNL     1     -10.768 -11.042  20.066  0.00  0.00    -0.016 A 
ATOM     25  C   UNL     1     -10.110 -13.363  20.384  0.00  0.00    +0.010 A 
ATOM     26  C   UNL     1     -11.104 -12.371  20.419  0.00  0.00    -0.018 A 
ATOM     29  C   UNL     1     -11.762 -10.051  20.101  0.00  0.00    +0.008 A 
ATOM     30  C   UNL     1     -12.423 -12.668  20.799  0.00  0.00    +0.008 A 
ATOM     32  C   UNL     1     -13.067 -10.364  20.480  0.00  0.00    +0.001 A 
ATOM     33  C   UNL     1     -13.397 -11.670  20.828  0.00  0.00    +0.001 A 
ENDBRANCH   1  18
ENDBRANCH   7   1
ENDBRANCH  13   7
TORSDOF 5
ENDMDL
MODEL 6
REMARK VINA RESULT:      -7.0     20.286     23.803
REMARK  Name = 11886125
REMARK  5 active torsions:
REMARK  status: ('A' for Active; 'I' for Inactive)
REMARK    1  A    between atoms: S_1  and  N_7
REMARK    2  A    between atoms: S_1  and  C_18
REMARK    3  A    between atoms: N_6  and  C_14
REMARK    4  A    between atoms: N_7  and  C_13
REMARK    5  A    between atoms: C_17  and  C_19
REMARK                            x       y       z     vdW  Elec       q    Type
REMARK                         _______ _______ _______ _____ _____    ______ ____
ROOT
ATOM      2  O   UNL     1      -8.473  -9.699  40.219  0.00  0.00    -0.370 OA
ATOM      3  O   UNL     1     -11.503  -8.912  39.915  0.00  0.00    -0.370 OA
ATOM     11  C   UNL     1     -10.444  -9.194  38.986  0.00  0.00    +0.170 C 
ATOM     12  C   UNL     1      -9.163  -8.622  39.561  0.00  0.00    +0.175 C 
ATOM     13  C   UNL     1     -10.190 -10.683  38.917  0.00  0.00    +0.133 C 
ATOM     14  C   UNL     1      -9.622  -7.602  40.586  0.00  0.00    +0.168 C 
ATOM     15  C   UNL     1      -9.240 -10.904  40.080  0.00  0.00    +0.183 C 
ATOM     16  C   UNL     1     -10.992  -8.126  41.001  0.00  0.00    +0.190 C 
ENDROOT
BRANCH  14   6
ATOM      6  N   UNL     1      -9.615  -6.234  40.060  0.00  0.00    -0.217 N 
ATOM      8  N   UNL     1     -10.746  -5.667  39.629  0.00  0.00    -0.043 NA
ATOM      9  N   UNL     1      -9.033  -4.257  39.406  0.00  0.00    -0.108 NA
ATOM     10  N   UNL     1     -10.384  -4.454  39.229  0.00  0.00    -0.023 NA
ATOM     17  C   UNL     1      -8.577  -5.375  39.924  0.00  0.00    +0.182 A 
BRANCH  17  19
ATOM     19  C   UNL     1      -7.216  -5.667  40.292  0.00  0.00    +0.021 A 
ATOM     22  C   UNL     1      -6.784  -5.451  41.602  0.00  0.00    +0.011 A 
ATOM     23  C   UNL     1      -6.324  -6.167  39.340  0.00  0.00    +0.011 A 
ATOM     27  C   UNL     1      -5.465  -5.732  41.958  0.00  0.00    +0.001 A 
ATOM     28  C   UNL     1      -5.006  -6.448  39.697  0.00  0.00    +0.001 A 
ATOM     31  C   UNL     1      -4.577  -6.231  41.007  0.00  0.00    +0.000 A 
ENDBRANCH  17  19
ENDBRANCH  14   6
BRANCH  13   7
ATOM      7  N   UNL     1      -9.576 -11.050  37.665  0.00  0.00    -0.182 NA
ATOM     34  H   UNL     1      -9.385 -10.294  36.996  0.00  0.00    +0.148 HD
BRANCH   7   1
ATOM      1  S   UNL     1      -9.743 -12.635  37.075  0.00  0.00    +0.059 S 
ATOM      4  O   UNL     1     -10.110 -13.519  38.164  0.00  0.00    -0.153 OA
ATOM      5  O   UNL     1      -8.600 -12.944  36.237  0.00  0.00    -0.153 OA
BRANCH   1  18
ATOM     18  C   UNL     1     -11.139 -12.479  36.003  0.00  0.00    +0.106 A 
ATOM     20  C   UNL     1     -11.327 -13.413  34.998  0.00  0.00    +0.037 A 
ATOM     21  C   UNL     1     -12.018 -11.430  36.188  0.00  0.00    +0.029 A 
ATOM     24  C   UNL     1     -12.430 -13.303  34.137  0.00  0.00    -0.016 A 
ATOM     25  C   UNL     1     -13.121 -11.306  35.343  0.00  0.00    +0.010 A 
ATOM     26  C   UNL     1     -13.342 -12.235  34.312  0.00  0.00    -0.018 A 
ATOM     29  C   UNL     1     -12.652 -14.232  33.107  0.00  0.00    +0.008 A 
ATOM     30  C   UNL     1     -14.445 -12.125  33.451  0.00  0.00    +0.008 A 
ATOM     32  C   UNL     1     -13.754 -14.108  32.261  0.00  0.00    +0.001 A 
ATOM     33  C   UNL     1     -14.649 -13.057  32.433  0.00  0.00    +0.001 A 
ENDBRANCH   1  18
ENDBRANCH   7   1
ENDBRANCH  13   7
TORSDOF 5
ENDMDL
MODEL 7
REMARK VINA RESULT:      -6.9     31.019     33.880
REMARK  Name = 11886125
REMARK  5 active torsions:
REMARK  status: ('A' for Active; 'I' for Inactive)
REMARK    1  A    between atoms: S_1  and  N_7
REMARK    2  A    between atoms: S_1  and  C_18
REMARK    3  A    between atoms: N_6  and  C_14
REMARK    4  A    between atoms: N_7  and  C_13
REMARK    5  A    between atoms: C_17  and  C_19
REMARK                            x       y       z     vdW  Elec       q    Type
REMARK                         _______ _______ _______ _____ _____    ______ ____
ROOT
ATOM      2  O   UNL     1      24.040   5.824  22.592  0.00  0.00    -0.370 OA
ATOM      3  O   UNL     1      24.921   8.102  20.610  0.00  0.00    -0.370 OA
ATOM     11  C   UNL     1      23.829   7.170  20.642  0.00  0.00    +0.170 C 
ATOM     12  C   UNL     1      24.359   5.859  21.190  0.00  0.00    +0.175 C 
ATOM     13  C   UNL     1      22.795   7.607  21.654  0.00  0.00    +0.133 C 
ATOM     14  C   UNL     1      25.862   5.943  21.004  0.00  0.00    +0.168 C 
ATOM     15  C   UNL     1      23.339   7.025  22.945  0.00  0.00    +0.183 C 
ATOM     16  C   UNL     1      26.127   7.444  21.025  0.00  0.00    +0.190 C 
ENDROOT
BRANCH  14   6
ATOM      6  N   UNL     1      26.319   5.249  19.797  0.00  0.00    -0.217 N 
ATOM      8  N   UNL     1      26.813   5.939  18.764  0.00  0.00    -0.043 NA
ATOM      9  N   UNL     1      26.826   3.755  18.319  0.00  0.00    -0.108 NA
ATOM     10  N   UNL     1      27.123   5.018  17.860  0.00  0.00    -0.023 NA
ATOM     17  C   UNL     1      26.330   3.923  19.523  0.00  0.00    +0.182 A 
BRANCH  17  19
ATOM     19  C   UNL     1      25.867   2.896  20.421  0.00  0.00    +0.021 A 
ATOM     22  C   UNL     1      26.703   2.424  21.434  0.00  0.00    +0.011 A 
ATOM     23  C   UNL     1      24.581   2.370  20.280  0.00  0.00    +0.011 A 
ATOM     27  C   UNL     1      26.256   1.428  22.302  0.00  0.00    +0.001 A 
ATOM     28  C   UNL     1      24.134   1.376  21.149  0.00  0.00    +0.001 A 
ATOM     31  C   UNL     1      24.972   0.905  22.161  0.00  0.00    +0.000 A 
ENDBRANCH  17  19
ENDBRANCH  14   6
BRANCH  13   7
ATOM      7  N   UNL     1      21.496   7.061  21.342  0.00  0.00    -0.182 NA
ATOM     34  H   UNL     1      21.293   6.870  20.354  0.00  0.00    +0.148 HD
BRANCH   7   1
ATOM      1  S   UNL     1      20.196   7.315  22.406  0.00  0.00    +0.059 S 
ATOM      4  O   UNL     1      20.231   8.681  22.894  0.00  0.00    -0.153 OA
ATOM      5  O   UNL     1      20.135   6.208  23.341  0.00  0.00    -0.153 OA
BRANCH   1  18
ATOM     18  C   UNL     1      18.806   7.156  21.328  0.00  0.00    +0.106 A 
ATOM     20  C   UNL     1      17.775   8.076  21.414  0.00  0.00    +0.037 A 
ATOM     21  C   UNL     1      18.772   6.116  20.419  0.00  0.00    +0.029 A 
ATOM     24  C   UNL     1      16.662   7.963  20.565  0.00  0.00    -0.016 A 
ATOM     25  C   UNL     1      17.676   5.989  19.567  0.00  0.00    +0.010 A 
ATOM     26  C   UNL     1      16.612   6.904  19.627  0.00  0.00    -0.018 A 
ATOM     29  C   UNL     1      15.599   8.879  20.624  0.00  0.00    +0.008 A 
ATOM     30  C   UNL     1      15.499   6.791  18.778  0.00  0.00    +0.008 A 
ATOM     32  C   UNL     1      14.501   8.751  19.772  0.00  0.00    +0.001 A 
ATOM     33  C   UNL     1      14.452   7.710  18.851  0.00  0.00    +0.001 A 
ENDBRANCH   1  18
ENDBRANCH   7   1
ENDBRANCH  13   7
TORSDOF 5
ENDMDL
MODEL 8
REMARK VINA RESULT:      -6.9     26.385     29.519
REMARK  Name = 11886125
REMARK  5 active torsions:
REMARK  status: ('A' for Active; 'I' for Inactive)
REMARK    1  A    between atoms: S_1  and  N_7
REMARK    2  A    between atoms: S_1  and  C_18
REMARK    3  A    between atoms: N_6  and  C_14
REMARK    4  A    between atoms: N_7  and  C_13
REMARK    5  A    between atoms: C_17  and  C_19
REMARK                            x       y       z     vdW  Elec       q    Type
REMARK                         _______ _______ _______ _____ _____    ______ ____
ROOT
ATOM      2  O   UNL     1      13.854   7.014   6.474  0.00  0.00    -0.370 OA
ATOM      3  O   UNL     1      12.959   8.252   3.725  0.00  0.00    -0.370 OA
ATOM     11  C   UNL     1      13.425   8.804   4.966  0.00  0.00    +0.170 C 
ATOM     12  C   UNL     1      12.845   7.965   6.089  0.00  0.00    +0.175 C 
ATOM     13  C   UNL     1      14.919   8.618   5.095  0.00  0.00    +0.133 C 
ATOM     14  C   UNL     1      11.668   7.242   5.462  0.00  0.00    +0.168 C 
ATOM     15  C   UNL     1      15.023   7.217   5.669  0.00  0.00    +0.183 C 
ATOM     16  C   UNL     1      12.056   7.169   3.989  0.00  0.00    +0.190 C 
ENDROOT
BRANCH  14   6
ATOM      6  N   UNL     1      10.390   7.906   5.735  0.00  0.00    -0.217 N 
ATOM      8  N   UNL     1      10.068   9.042   5.108  0.00  0.00    -0.043 NA
ATOM      9  N   UNL     1       8.440   8.433   6.503  0.00  0.00    -0.108 NA
ATOM     10  N   UNL     1       8.870   9.361   5.582  0.00  0.00    -0.023 NA
ATOM     17  C   UNL     1       9.399   7.539   6.580  0.00  0.00    +0.182 A 
BRANCH  17  19
ATOM     19  C   UNL     1       9.421   6.364   7.412  0.00  0.00    +0.021 A 
ATOM     22  C   UNL     1       9.094   6.458   8.766  0.00  0.00    +0.011 A 
ATOM     23  C   UNL     1       9.770   5.126   6.867  0.00  0.00    +0.011 A 
ATOM     27  C   UNL     1       9.117   5.320   9.572  0.00  0.00    +0.001 A 
ATOM     28  C   UNL     1       9.793   3.989   7.673  0.00  0.00    +0.001 A 
ATOM     31  C   UNL     1       9.466   4.086   9.026  0.00  0.00    +0.000 A 
ENDBRANCH  17  19
ENDBRANCH  14   6
BRANCH  13   7
ATOM      7  N   UNL     1      15.492   9.593   5.991  0.00  0.00    -0.182 NA
ATOM     34  H   UNL     1      14.913   9.898   6.783  0.00  0.00    +0.148 HD
BRANCH   7   1
ATOM      1  S   UNL     1      16.729  10.620   5.443  0.00  0.00    +0.059 S 
ATOM      4  O   UNL     1      16.969  11.655   6.431  0.00  0.00    -0.153 OA
ATOM      5  O   UNL     1      16.463  10.976   4.063  0.00  0.00    -0.153 OA
BRANCH   1  18
ATOM     18  C   UNL     1      18.125   9.538   5.437  0.00  0.00    +0.106 A 
ATOM     20  C   UNL     1      18.631   9.094   4.226  0.00  0.00    +0.037 A 
ATOM     21  C   UNL     1      18.688   9.154   6.638  0.00  0.00    +0.029 A 
ATOM     24  C   UNL     1      19.740   8.233   4.203  0.00  0.00    -0.016 A 
ATOM     25  C   UNL     1      19.790   8.299   6.635  0.00  0.00    +0.010 A 
ATOM     26  C   UNL     1      20.329   7.830   5.425  0.00  0.00    -0.018 A 
ATOM     29  C   UNL     1      20.279   7.764   2.994  0.00  0.00    +0.008 A 
ATOM     30  C   UNL     1      21.437   6.968   5.402  0.00  0.00    +0.008 A 
ATOM     32  C   UNL     1      21.381   6.909   2.990  0.00  0.00    +0.001 A 
ATOM     33  C   UNL     1      21.959   6.512   4.192  0.00  0.00    +0.001 A 
ENDBRANCH   1  18
ENDBRANCH   7   1
ENDBRANCH  13   7
TORSDOF 5
ENDMDL
MODEL 9
REMARK VINA RESULT:      -6.9      4.151      8.802
REMARK  Name = 11886125
REMARK  5 active torsions:
REMARK  status: ('A' for Active; 'I' for Inactive)
REMARK    1  A    between atoms: S_1  and  N_7
REMARK    2  A    between atoms: S_1  and  C_18
REMARK    3  A    between atoms: N_6  and  C_14
REMARK    4  A    between atoms: N_7  and  C_13
REMARK    5  A    between atoms: C_17  and  C_19
REMARK                            x       y       z     vdW  Elec       q    Type
REMARK                         _______ _______ _______ _____ _____    ______ ____
ROOT
ATOM      2  O   UNL     1      -2.978 -10.472   9.943  0.00  0.00    -0.370 OA
ATOM      3  O   UNL     1      -5.292  -8.612  10.983  0.00  0.00    -0.370 OA
ATOM     11  C   UNL     1      -4.890  -9.962  11.265  0.00  0.00    +0.170 C 
ATOM     12  C   UNL     1      -4.413 -10.581   9.965  0.00  0.00    +0.175 C 
ATOM     13  C   UNL     1      -3.667  -9.970  12.153  0.00  0.00    +0.133 C 
ATOM     14  C   UNL     1      -5.013  -9.708   8.879  0.00  0.00    +0.168 C 
ATOM     15  C   UNL     1      -2.536  -9.834  11.150  0.00  0.00    +0.183 C 
ATOM     16  C   UNL     1      -5.178  -8.361   9.574  0.00  0.00    +0.190 C 
ENDROOT
BRANCH  14   6
ATOM      6  N   UNL     1      -6.244 -10.273   8.320  0.00  0.00    -0.217 N 
ATOM      8  N   UNL     1      -7.438  -9.820   8.713  0.00  0.00    -0.043 NA
ATOM      9  N   UNL     1      -7.679 -11.437   7.197  0.00  0.00    -0.108 NA
ATOM     10  N   UNL     1      -8.316 -10.537   8.022  0.00  0.00    -0.023 NA
ATOM     17  C   UNL     1      -6.394 -11.254   7.399  0.00  0.00    +0.182 A 
BRANCH  17  19
ATOM     19  C   UNL     1      -5.309 -11.959   6.766  0.00  0.00    +0.021 A 
ATOM     22  C   UNL     1      -4.775 -11.489   5.565  0.00  0.00    +0.011 A 
ATOM     23  C   UNL     1      -4.788 -13.115   7.352  0.00  0.00    +0.011 A 
ATOM     27  C   UNL     1      -3.726 -12.172   4.951  0.00  0.00    +0.001 A 
ATOM     28  C   UNL     1      -3.739 -13.797   6.739  0.00  0.00    +0.001 A 
ATOM     31  C   UNL     1      -3.207 -13.326   5.538  0.00  0.00    +0.000 A 
ENDBRANCH  17  19
ENDBRANCH  14   6
BRANCH  13   7
ATOM      7  N   UNL     1      -3.564 -11.206  12.890  0.00  0.00    -0.182 NA
ATOM     34  H   UNL     1      -4.294 -11.911  12.726  0.00  0.00    +0.148 HD
BRANCH   7   1
ATOM      1  S   UNL     1      -2.707 -11.247  14.356  0.00  0.00    +0.059 S 
ATOM      4  O   UNL     1      -1.776 -10.135  14.402  0.00  0.00    -0.153 OA
ATOM      5  O   UNL     1      -2.239 -12.600  14.586  0.00  0.00    -0.153 OA
BRANCH   1  18
ATOM     18  C   UNL     1      -3.986 -10.937  15.535  0.00  0.00    +0.106 A 
ATOM     20  C   UNL     1      -3.830 -11.388  16.836  0.00  0.00    +0.037 A 
ATOM     21  C   UNL     1      -5.118 -10.252  15.139  0.00  0.00    +0.029 A 
ATOM     24  C   UNL     1      -4.838 -11.151  17.785  0.00  0.00    -0.016 A 
ATOM     25  C   UNL     1      -6.128 -10.006  16.069  0.00  0.00    +0.010 A 
ATOM     26  C   UNL     1      -6.004 -10.449  17.396  0.00  0.00    -0.018 A 
ATOM     29  C   UNL     1      -4.713 -11.593  19.112  0.00  0.00    +0.008 A 
ATOM     30  C   UNL     1      -7.011 -10.212  18.345  0.00  0.00    +0.008 A 
ATOM     32  C   UNL     1      -5.724 -11.349  20.041  0.00  0.00    +0.001 A 
ATOM     33  C   UNL     1      -6.870 -10.660  19.659  0.00  0.00    +0.001 A 
ENDBRANCH   1  18
ENDBRANCH   7   1
ENDBRANCH  13   7
TORSDOF 5
ENDMDL
MODEL 10
REMARK VINA RESULT:      -6.9     22.466     25.204
REMARK  Name = 11886125
REMARK  5 active torsions:
REMARK  status: ('A' for Active; 'I' for Inactive)
REMARK    1  A    between atoms: S_1  and  N_7
REMARK    2  A    between atoms: S_1  and  C_18
REMARK    3  A    between atoms: N_6  and  C_14
REMARK    4  A    between atoms: N_7  and  C_13
REMARK    5  A    between atoms: C_17  and  C_19
REMARK                            x       y       z     vdW  Elec       q    Type
REMARK                         _______ _______ _______ _____ _____    ______ ____
ROOT
ATOM      2  O   UNL     1      -1.065   9.437   1.435  0.00  0.00    -0.370 OA
ATOM      3  O   UNL     1      -0.372  12.270   2.613  0.00  0.00    -0.370 OA
ATOM     11  C   UNL     1       0.372  11.056   2.422  0.00  0.00    +0.170 C 
ATOM     12  C   UNL     1      -0.562   9.894   2.703  0.00  0.00    +0.175 C 
ATOM     13  C   UNL     1       0.744  10.892   0.966  0.00  0.00    +0.133 C 
ATOM     14  C   UNL     1      -1.691  10.496   3.518  0.00  0.00    +0.168 C 
ATOM     15  C   UNL     1      -0.494  10.234   0.387  0.00  0.00    +0.183 C 
ATOM     16  C   UNL     1      -1.693  11.956   3.076  0.00  0.00    +0.190 C 
ENDROOT
BRANCH  14   6
ATOM      6  N   UNL     1      -1.520  10.284   4.958  0.00  0.00    -0.217 N 
ATOM      8  N   UNL     1      -0.534  10.896   5.622  0.00  0.00    -0.043 NA
ATOM      9  N   UNL     1      -1.732   9.624   7.006  0.00  0.00    -0.108 NA
ATOM     10  N   UNL     1      -0.668  10.489   6.878  0.00  0.00    -0.023 NA
ATOM     17  C   UNL     1      -2.246   9.514   5.802  0.00  0.00    +0.182 A 
BRANCH  17  19
ATOM     19  C   UNL     1      -3.381   8.717   5.415  0.00  0.00    +0.021 A 
ATOM     22  C   UNL     1      -3.287   7.324   5.401  0.00  0.00    +0.011 A 
ATOM     23  C   UNL     1      -4.580   9.335   5.054  0.00  0.00    +0.011 A 
ATOM     27  C   UNL     1      -4.386   6.553   5.026  0.00  0.00    +0.001 A 
ATOM     28  C   UNL     1      -5.679   8.563   4.679  0.00  0.00    +0.001 A 
ATOM     31  C   UNL     1      -5.583   7.172   4.665  0.00  0.00    +0.000 A 
ENDBRANCH  17  19
ENDBRANCH  14   6
BRANCH  13   7
ATOM      7  N   UNL     1       1.903  10.046   0.815  0.00  0.00    -0.182 NA
ATOM     34  H   UNL     1       1.966   9.223   1.427  0.00  0.00    +0.148 HD
BRANCH   7   1
ATOM      1  S   UNL     1       3.335  10.684   0.160  0.00  0.00    +0.059 S 
ATOM      4  O   UNL     1       3.176  12.111  -0.049  0.00  0.00    -0.153 OA
ATOM      5  O   UNL     1       3.770   9.832  -0.929  0.00  0.00    -0.153 OA
BRANCH   1  18
ATOM     18  C   UNL     1       4.479  10.450   1.486  0.00  0.00    +0.106 A 
ATOM     20  C   UNL     1       5.672   9.791   1.241  0.00  0.00    +0.037 A 
ATOM     21  C   UNL     1       4.163  10.930   2.742  0.00  0.00    +0.029 A 
ATOM     24  C   UNL     1       6.591   9.595   2.284  0.00  0.00    -0.016 A 
ATOM     25  C   UNL     1       5.065  10.746   3.790  0.00  0.00    +0.010 A 
ATOM     26  C   UNL     1       6.284  10.081   3.577  0.00  0.00    -0.018 A 
ATOM     29  C   UNL     1       7.810   8.931   2.071  0.00  0.00    +0.008 A 
ATOM     30  C   UNL     1       7.204   9.885   4.620  0.00  0.00    +0.008 A 
ATOM     32  C   UNL     1       8.712   8.746   3.119  0.00  0.00    +0.001 A 
ATOM     33  C   UNL     1       8.410   9.223   4.391  0.00  0.00    +0.001 A 
ENDBRANCH   1  18
ENDBRANCH   7   1
ENDBRANCH  13   7
TORSDOF 5
ENDMDL
