MODEL 1
REMARK VINA RESULT:      -7.1      0.000      0.000
REMARK  Name = 11865718
REMARK  7 active torsions:
REMARK  status: ('A' for Active; 'I' for Inactive)
REMARK    1  A    between atoms: O_2  and  C_11
REMARK    2  A    between atoms: O_3  and  C_13
REMARK    3  A    between atoms: N_7  and  C_12
REMARK    4  A    between atoms: N_8  and  C_19
REMARK    5  A    between atoms: N_9  and  C_20
REMARK    6  A    between atoms: C_15  and  C_17
REMARK    7  A    between atoms: C_19  and  C_21
REMARK                            x       y       z     vdW  Elec       q    Type
REMARK                         _______ _______ _______ _____ _____    ______ ____
ROOT
ATOM     11  C   UNL     1      11.413   7.491  21.549  0.00  0.00    +0.167 C 
ATOM     12  C   UNL     1      12.097   8.850  21.800  0.00  0.00    +0.129 C 
ATOM     13  C   UNL     1      12.256   6.599  20.631  0.00  0.00    +0.149 C 
ATOM     14  C   UNL     1      12.579   7.287  19.293  0.00  0.00    +0.074 C 
ATOM     15  C   UNL     1      12.878   8.752  19.433  0.00  0.00    +0.015 C 
ATOM     16  C   UNL     1      12.675   9.463  20.553  0.00  0.00    +0.006 C 
ENDROOT
BRANCH  12   7
ATOM      5  O   UNL     1      12.805  11.323  23.059  0.00  0.00    -0.252 OA
ATOM      7  N   UNL     1      11.195   9.796  22.409  0.00  0.00    -0.290 N 
ATOM      9  N   UNL     1      10.532  11.700  23.510  0.00  0.00    -0.268 N 
ATOM     18  C   UNL     1      11.624  10.987  23.006  0.00  0.00    +0.304 C 
ATOM     27  H   UNL     1      10.207   9.565  22.456  0.00  0.00    +0.151 HD
ATOM     31  H   UNL     1       9.614  11.281  23.384  0.00  0.00    +0.156 HD
BRANCH   9  20
ATOM      1 BR   UNL     1      10.144  14.185  21.604  0.00  0.00    -0.048 Br
ATOM     20  C   UNL     1      10.543  12.945  24.181  0.00  0.00    +0.049 A 
ATOM     22  C   UNL     1      10.384  14.133  23.486  0.00  0.00    +0.039 A 
ATOM     23  C   UNL     1      10.716  12.935  25.558  0.00  0.00    +0.024 A 
ATOM     24  C   UNL     1      10.399  15.342  24.182  0.00  0.00    +0.017 A 
ATOM     25  C   UNL     1      10.732  14.144  26.254  0.00  0.00    +0.002 A 
ATOM     26  C   UNL     1      10.574  15.347  25.567  0.00  0.00    +0.001 A 
ENDBRANCH   9  20
ENDBRANCH  12   7
BRANCH  15  17
ATOM      4  O   UNL     1      13.821  10.624  18.370  0.00  0.00    -0.271 OA
ATOM      8  N   UNL     1      13.511   8.666  17.144  0.00  0.00    -0.303 N 
ATOM     17  C   UNL     1      13.451   9.454  18.281  0.00  0.00    +0.240 C 
ATOM     30  H   UNL     1      13.137   7.724  17.142  0.00  0.00    +0.150 HD
BRANCH   8  19
ATOM     19  C   UNL     1      14.034   9.138  15.882  0.00  0.00    +0.200 C 
BRANCH  19  21
ATOM      6  O   UNL     1      11.978   9.877  14.839  0.00  0.00    -0.274 OA
ATOM     10  N   UNL     1      13.631  11.419  15.253  0.00  0.00    -0.328 N 
ATOM     21  C   UNL     1      13.087  10.154  15.287  0.00  0.00    +0.228 C 
ATOM     32  H   UNL     1      14.559  11.625  15.609  0.00  0.00    +0.145 HD
ATOM     33  H   UNL     1      13.111  12.200  14.865  0.00  0.00    +0.145 HD
ENDBRANCH  19  21
ENDBRANCH   8  19
ENDBRANCH  15  17
BRANCH  11   2
ATOM      2  O   UNL     1      10.138   7.703  20.942  0.00  0.00    -0.387 OA
ATOM     28  H   UNL     1      10.179   8.547  20.460  0.00  0.00    +0.210 HD
ENDBRANCH  11   2
BRANCH  13   3
ATOM      3  O   UNL     1      13.462   6.216  21.288  0.00  0.00    -0.389 OA
ATOM     29  H   UNL     1      13.219   5.638  22.032  0.00  0.00    +0.210 HD
ENDBRANCH  13   3
TORSDOF 7
ENDMDL
MODEL 2
REMARK VINA RESULT:      -6.8     15.760     20.361
REMARK  Name = 11865718
REMARK  7 active torsions:
REMARK  status: ('A' for Active; 'I' for Inactive)
REMARK    1  A    between atoms: O_2  and  C_11
REMARK    2  A    between atoms: O_3  and  C_13
REMARK    3  A    between atoms: N_7  and  C_12
REMARK    4  A    between atoms: N_8  and  C_19
REMARK    5  A    between atoms: N_9  and  C_20
REMARK    6  A    between atoms: C_15  and  C_17
REMARK    7  A    between atoms: C_19  and  C_21
REMARK                            x       y       z     vdW  Elec       q    Type
REMARK                         _______ _______ _______ _____ _____    ______ ____
ROOT
ATOM     11  C   UNL     1      13.443   3.734   1.699  0.00  0.00    +0.167 C 
ATOM     12  C   UNL     1      12.406   4.871   1.617  0.00  0.00    +0.129 C 
ATOM     13  C   UNL     1      14.348   3.709   0.463  0.00  0.00    +0.149 C 
ATOM     14  C   UNL     1      13.543   3.602  -0.843  0.00  0.00    +0.074 C 
ATOM     15  C   UNL     1      12.276   4.409  -0.830  0.00  0.00    +0.015 C 
ATOM     16  C   UNL     1      11.759   4.990   0.263  0.00  0.00    +0.006 C 
ENDROOT
BRANCH  12   7
ATOM      5  O   UNL     1      11.991   6.539   3.909  0.00  0.00    -0.252 OA
ATOM      7  N   UNL     1      11.374   4.725   2.614  0.00  0.00    -0.290 N 
ATOM      9  N   UNL     1      10.157   5.200   4.503  0.00  0.00    -0.268 N 
ATOM     18  C   UNL     1      11.240   5.587   3.710  0.00  0.00    +0.304 C 
ATOM     27  H   UNL     1      10.746   3.929   2.552  0.00  0.00    +0.151 HD
ATOM     31  H   UNL     1       9.633   4.384   4.198  0.00  0.00    +0.156 HD
BRANCH   9  20
ATOM      1 BR   UNL     1       8.351   7.742   4.018  0.00  0.00    -0.048 Br
ATOM     20  C   UNL     1       9.690   5.808   5.692  0.00  0.00    +0.049 A 
ATOM     22  C   UNL     1       8.885   6.935   5.651  0.00  0.00    +0.039 A 
ATOM     23  C   UNL     1      10.066   5.237   6.900  0.00  0.00    +0.024 A 
ATOM     24  C   UNL     1       8.444   7.507   6.844  0.00  0.00    +0.017 A 
ATOM     25  C   UNL     1       9.626   5.810   8.093  0.00  0.00    +0.002 A 
ATOM     26  C   UNL     1       8.815   6.944   8.066  0.00  0.00    +0.001 A 
ENDBRANCH   9  20
ENDBRANCH  12   7
BRANCH  15  17
ATOM      4  O   UNL     1      11.991   5.357  -2.961  0.00  0.00    -0.271 OA
ATOM      8  N   UNL     1      10.403   3.841  -2.179  0.00  0.00    -0.303 N 
ATOM     17  C   UNL     1      11.562   4.595  -2.096  0.00  0.00    +0.240 C 
ATOM     30  H   UNL     1      10.093   3.275  -1.397  0.00  0.00    +0.150 HD
BRANCH   8  19
ATOM     19  C   UNL     1       9.528   3.860  -3.329  0.00  0.00    +0.200 C 
BRANCH  19  21
ATOM      6  O   UNL     1       9.318   1.452  -3.188  0.00  0.00    -0.274 OA
ATOM     10  N   UNL     1       9.395   2.441  -5.261  0.00  0.00    -0.328 N 
ATOM     21  C   UNL     1       9.386   2.462  -3.884  0.00  0.00    +0.228 C 
ATOM     32  H   UNL     1       9.473   3.286  -5.819  0.00  0.00    +0.145 HD
ATOM     33  H   UNL     1       9.321   1.566  -5.770  0.00  0.00    +0.145 HD
ENDBRANCH  19  21
ENDBRANCH   8  19
ENDBRANCH  15  17
BRANCH  11   2
ATOM      2  O   UNL     1      12.769   2.479   1.801  0.00  0.00    -0.387 OA
ATOM     28  H   UNL     1      12.716   2.251   2.746  0.00  0.00    +0.210 HD
ENDBRANCH  11   2
BRANCH  13   3
ATOM      3  O   UNL     1      15.174   4.872   0.435  0.00  0.00    -0.389 OA
ATOM     29  H   UNL     1      14.774   5.500  -0.192  0.00  0.00    +0.210 HD
ENDBRANCH  13   3
TORSDOF 7
ENDMDL
MODEL 3
REMARK VINA RESULT:      -6.7      2.823      8.261
REMARK  Name = 11865718
REMARK  7 active torsions:
REMARK  status: ('A' for Active; 'I' for Inactive)
REMARK    1  A    between atoms: O_2  and  C_11
REMARK    2  A    between atoms: O_3  and  C_13
REMARK    3  A    between atoms: N_7  and  C_12
REMARK    4  A    between atoms: N_8  and  C_19
REMARK    5  A    between atoms: N_9  and  C_20
REMARK    6  A    between atoms: C_15  and  C_17
REMARK    7  A    between atoms: C_19  and  C_21
REMARK                            x       y       z     vdW  Elec       q    Type
REMARK                         _______ _______ _______ _____ _____    ______ ____
ROOT
ATOM     11  C   UNL     1      13.687   7.999  18.501  0.00  0.00    +0.167 C 
ATOM     12  C   UNL     1      12.558   9.026  18.287  0.00  0.00    +0.129 C 
ATOM     13  C   UNL     1      13.311   6.966  19.570  0.00  0.00    +0.149 C 
ATOM     14  C   UNL     1      12.932   7.628  20.906  0.00  0.00    +0.074 C 
ATOM     15  C   UNL     1      12.139   8.892  20.742  0.00  0.00    +0.015 C 
ATOM     16  C   UNL     1      11.956   9.525  19.573  0.00  0.00    +0.006 C 
ENDROOT
BRANCH  12   7
ATOM      5  O   UNL     1      12.718   9.192  15.431  0.00  0.00    -0.252 OA
ATOM      7  N   UNL     1      13.007  10.157  17.513  0.00  0.00    -0.290 N 
ATOM      9  N   UNL     1      13.530  11.384  15.643  0.00  0.00    -0.268 N 
ATOM     18  C   UNL     1      13.055  10.156  16.113  0.00  0.00    +0.304 C 
ATOM     27  H   UNL     1      13.355  10.975  18.004  0.00  0.00    +0.151 HD
ATOM     31  H   UNL     1      13.767  12.083  16.342  0.00  0.00    +0.156 HD
BRANCH   9  20
ATOM      1 BR   UNL     1      16.562  11.544  14.782  0.00  0.00    -0.048 Br
ATOM     20  C   UNL     1      13.724  11.783  14.299  0.00  0.00    +0.049 A 
ATOM     22  C   UNL     1      14.998  11.901  13.767  0.00  0.00    +0.039 A 
ATOM     23  C   UNL     1      12.598  12.050  13.535  0.00  0.00    +0.024 A 
ATOM     24  C   UNL     1      15.152  12.297  12.437  0.00  0.00    +0.017 A 
ATOM     25  C   UNL     1      12.751  12.446  12.207  0.00  0.00    +0.002 A 
ATOM     26  C   UNL     1      14.027  12.570  11.658  0.00  0.00    +0.001 A 
ENDBRANCH   9  20
ENDBRANCH  12   7
BRANCH  15  17
ATOM      4  O   UNL     1      10.949   8.752  22.763  0.00  0.00    -0.271 OA
ATOM      8  N   UNL     1      11.599  10.848  21.978  0.00  0.00    -0.303 N 
ATOM     17  C   UNL     1      11.502   9.468  21.929  0.00  0.00    +0.240 C 
ATOM     30  H   UNL     1      12.029  11.368  21.221  0.00  0.00    +0.150 HD
BRANCH   8  19
ATOM     19  C   UNL     1      11.045  11.643  23.051  0.00  0.00    +0.200 C 
BRANCH  19  21
ATOM      6  O   UNL     1      13.041  12.091  24.344  0.00  0.00    -0.274 OA
ATOM     10  N   UNL     1      11.403  10.761  25.254  0.00  0.00    -0.328 N 
ATOM     21  C   UNL     1      11.939  11.555  24.265  0.00  0.00    +0.228 C 
ATOM     32  H   UNL     1      10.498  10.309  25.162  0.00  0.00    +0.145 HD
ATOM     33  H   UNL     1      11.903  10.602  26.123  0.00  0.00    +0.145 HD
ENDBRANCH  19  21
ENDBRANCH   8  19
ENDBRANCH  15  17
BRANCH  11   2
ATOM      2  O   UNL     1      14.877   8.674  18.911  0.00  0.00    -0.387 OA
ATOM     28  H   UNL     1      14.611   9.530  19.290  0.00  0.00    +0.210 HD
ENDBRANCH  11   2
BRANCH  13   3
ATOM      3  O   UNL     1      12.239   6.147  19.108  0.00  0.00    -0.389 OA
ATOM     29  H   UNL     1      12.628   5.342  18.727  0.00  0.00    +0.210 HD
ENDBRANCH  13   3
TORSDOF 7
ENDMDL
MODEL 4
REMARK VINA RESULT:      -6.6      1.855      2.459
REMARK  Name = 11865718
REMARK  7 active torsions:
REMARK  status: ('A' for Active; 'I' for Inactive)
REMARK    1  A    between atoms: O_2  and  C_11
REMARK    2  A    between atoms: O_3  and  C_13
REMARK    3  A    between atoms: N_7  and  C_12
REMARK    4  A    between atoms: N_8  and  C_19
REMARK    5  A    between atoms: N_9  and  C_20
REMARK    6  A    between atoms: C_15  and  C_17
REMARK    7  A    between atoms: C_19  and  C_21
REMARK                            x       y       z     vdW  Elec       q    Type
REMARK                         _______ _______ _______ _____ _____    ______ ____
ROOT
ATOM     11  C   UNL     1      12.643   7.966  20.214  0.00  0.00    +0.167 C 
ATOM     12  C   UNL     1      12.835   9.488  20.072  0.00  0.00    +0.129 C 
ATOM     13  C   UNL     1      13.547   7.193  19.248  0.00  0.00    +0.149 C 
ATOM     14  C   UNL     1      13.334   7.623  17.786  0.00  0.00    +0.074 C 
ATOM     15  C   UNL     1      13.115   9.100  17.625  0.00  0.00    +0.015 C 
ATOM     16  C   UNL     1      12.899   9.949  18.641  0.00  0.00    +0.006 C 
ENDROOT
BRANCH  12   7
ATOM      5  O   UNL     1      13.119  11.990  21.440  0.00  0.00    -0.252 OA
ATOM      7  N   UNL     1      11.796  10.222  20.752  0.00  0.00    -0.290 N 
ATOM      9  N   UNL     1      10.833  11.918  21.966  0.00  0.00    -0.268 N 
ATOM     18  C   UNL     1      12.019  11.444  21.399  0.00  0.00    +0.304 C 
ATOM     27  H   UNL     1      10.869   9.811  20.812  0.00  0.00    +0.151 HD
ATOM     31  H   UNL     1      10.003  11.343  21.841  0.00  0.00    +0.156 HD
BRANCH   9  20
ATOM      1 BR   UNL     1      11.173  11.572  25.084  0.00  0.00    -0.048 Br
ATOM     20  C   UNL     1      10.637  13.111  22.700  0.00  0.00    +0.049 A 
ATOM     22  C   UNL     1      10.751  13.127  24.081  0.00  0.00    +0.039 A 
ATOM     23  C   UNL     1      10.327  14.263  21.991  0.00  0.00    +0.024 A 
ATOM     24  C   UNL     1      10.551  14.323  24.772  0.00  0.00    +0.017 A 
ATOM     25  C   UNL     1      10.126  15.458  22.681  0.00  0.00    +0.002 A 
ATOM     26  C   UNL     1      10.238  15.488  24.071  0.00  0.00    +0.001 A 
ENDBRANCH   9  20
ENDBRANCH  12   7
BRANCH  15  17
ATOM      4  O   UNL     1      12.760   9.019  15.304  0.00  0.00    -0.271 OA
ATOM      8  N   UNL     1      13.688  10.942  16.237  0.00  0.00    -0.303 N 
ATOM     17  C   UNL     1      13.161   9.662  16.272  0.00  0.00    +0.240 C 
ATOM     30  H   UNL     1      14.043  11.383  17.078  0.00  0.00    +0.150 HD
BRANCH   8  19
ATOM     19  C   UNL     1      13.837  11.703  15.017  0.00  0.00    +0.200 C 
BRANCH  19  21
ATOM      6  O   UNL     1      15.246  10.760  13.289  0.00  0.00    -0.274 OA
ATOM     10  N   UNL     1      16.235  11.736  15.120  0.00  0.00    -0.328 N 
ATOM     21  C   UNL     1      15.152  11.356  14.358  0.00  0.00    +0.228 C 
ATOM     32  H   UNL     1      16.137  12.210  16.012  0.00  0.00    +0.145 HD
ATOM     33  H   UNL     1      17.183  11.553  14.805  0.00  0.00    +0.145 HD
ENDBRANCH  19  21
ENDBRANCH   8  19
ENDBRANCH  15  17
BRANCH  11   2
ATOM      2  O   UNL     1      11.282   7.628  19.941  0.00  0.00    -0.387 OA
ATOM     28  H   UNL     1      11.254   6.680  19.723  0.00  0.00    +0.210 HD
ENDBRANCH  11   2
BRANCH  13   3
ATOM      3  O   UNL     1      14.916   7.362  19.613  0.00  0.00    -0.389 OA
ATOM     29  H   UNL     1      15.448   6.805  19.020  0.00  0.00    +0.210 HD
ENDBRANCH  13   3
TORSDOF 7
ENDMDL
MODEL 5
REMARK VINA RESULT:      -6.5     26.607     28.483
REMARK  Name = 11865718
REMARK  7 active torsions:
REMARK  status: ('A' for Active; 'I' for Inactive)
REMARK    1  A    between atoms: O_2  and  C_11
REMARK    2  A    between atoms: O_3  and  C_13
REMARK    3  A    between atoms: N_7  and  C_12
REMARK    4  A    between atoms: N_8  and  C_19
REMARK    5  A    between atoms: N_9  and  C_20
REMARK    6  A    between atoms: C_15  and  C_17
REMARK    7  A    between atoms: C_19  and  C_21
REMARK                            x       y       z     vdW  Elec       q    Type
REMARK                         _______ _______ _______ _____ _____    ______ ____
ROOT
ATOM     11  C   UNL     1      -6.851 -11.289  17.617  0.00  0.00    +0.167 C 
ATOM     12  C   UNL     1      -6.439  -9.893  17.113  0.00  0.00    +0.129 C 
ATOM     13  C   UNL     1      -5.708 -11.972  18.376  0.00  0.00    +0.149 C 
ATOM     14  C   UNL     1      -4.427 -12.068  17.531  0.00  0.00    +0.074 C 
ATOM     15  C   UNL     1      -4.175 -10.850  16.689  0.00  0.00    +0.015 C 
ATOM     16  C   UNL     1      -5.064  -9.863  16.499  0.00  0.00    +0.006 C 
ENDROOT
BRANCH  12   7
ATOM      5  O   UNL     1      -8.992  -8.730  17.694  0.00  0.00    -0.252 OA
ATOM      7  N   UNL     1      -7.385  -9.370  16.158  0.00  0.00    -0.290 N 
ATOM      9  N   UNL     1      -9.320  -8.396  15.394  0.00  0.00    -0.268 N 
ATOM     18  C   UNL     1      -8.618  -8.816  16.527  0.00  0.00    +0.304 C 
ATOM     27  H   UNL     1      -7.175  -9.455  15.168  0.00  0.00    +0.151 HD
ATOM     31  H   UNL     1      -8.868  -8.539  14.494  0.00  0.00    +0.156 HD
BRANCH   9  20
ATOM      1 BR   UNL     1     -11.676 -10.414  14.817  0.00  0.00    -0.048 Br
ATOM     20  C   UNL     1     -10.596  -7.787  15.339  0.00  0.00    +0.049 A 
ATOM     22  C   UNL     1     -11.735  -8.537  15.095  0.00  0.00    +0.039 A 
ATOM     23  C   UNL     1     -10.667  -6.416  15.539  0.00  0.00    +0.024 A 
ATOM     24  C   UNL     1     -12.977  -7.903  15.048  0.00  0.00    +0.017 A 
ATOM     25  C   UNL     1     -11.908  -5.781  15.492  0.00  0.00    +0.002 A 
ATOM     26  C   UNL     1     -13.063  -6.524  15.247  0.00  0.00    +0.001 A 
ENDBRANCH   9  20
ENDBRANCH  12   7
BRANCH  15  17
ATOM      4  O   UNL     1      -1.826 -10.849  16.687  0.00  0.00    -0.271 OA
ATOM      8  N   UNL     1      -2.956 -10.423  14.694  0.00  0.00    -0.303 N 
ATOM     17  C   UNL     1      -2.866 -10.713  16.045  0.00  0.00    +0.240 C 
ATOM     30  H   UNL     1      -3.856 -10.276  14.251  0.00  0.00    +0.150 HD
BRANCH   8  19
ATOM     19  C   UNL     1      -1.801 -10.238  13.846  0.00  0.00    +0.200 C 
BRANCH  19  21
ATOM      6  O   UNL     1      -2.443 -10.425  11.520  0.00  0.00    -0.274 OA
ATOM     10  N   UNL     1      -1.707 -12.302  12.624  0.00  0.00    -0.328 N 
ATOM     21  C   UNL     1      -2.009 -10.960  12.536  0.00  0.00    +0.228 C 
ATOM     32  H   UNL     1      -1.369 -12.731  13.480  0.00  0.00    +0.145 HD
ATOM     33  H   UNL     1      -1.815 -12.913  11.821  0.00  0.00    +0.145 HD
ENDBRANCH  19  21
ENDBRANCH   8  19
ENDBRANCH  15  17
BRANCH  11   2
ATOM      2  O   UNL     1      -7.220 -12.109  16.507  0.00  0.00    -0.387 OA
ATOM     28  H   UNL     1      -6.473 -12.112  15.884  0.00  0.00    +0.210 HD
ENDBRANCH  11   2
BRANCH  13   3
ATOM      3  O   UNL     1      -5.440 -11.276  19.592  0.00  0.00    -0.389 OA
ATOM     29  H   UNL     1      -6.146 -10.617  19.714  0.00  0.00    +0.210 HD
ENDBRANCH  13   3
TORSDOF 7
ENDMDL
MODEL 6
REMARK VINA RESULT:      -6.3     15.301     19.469
REMARK  Name = 11865718
REMARK  7 active torsions:
REMARK  status: ('A' for Active; 'I' for Inactive)
REMARK    1  A    between atoms: O_2  and  C_11
REMARK    2  A    between atoms: O_3  and  C_13
REMARK    3  A    between atoms: N_7  and  C_12
REMARK    4  A    between atoms: N_8  and  C_19
REMARK    5  A    between atoms: N_9  and  C_20
REMARK    6  A    between atoms: C_15  and  C_17
REMARK    7  A    between atoms: C_19  and  C_21
REMARK                            x       y       z     vdW  Elec       q    Type
REMARK                         _______ _______ _______ _____ _____    ______ ____
ROOT
ATOM     11  C   UNL     1       9.459   4.923   5.696  0.00  0.00    +0.167 C 
ATOM     12  C   UNL     1      10.216   5.602   4.539  0.00  0.00    +0.129 C 
ATOM     13  C   UNL     1       9.278   5.875   6.884  0.00  0.00    +0.149 C 
ATOM     14  C   UNL     1      10.619   6.439   7.384  0.00  0.00    +0.074 C 
ATOM     15  C   UNL     1      11.580   6.761   6.276  0.00  0.00    +0.015 C 
ATOM     16  C   UNL     1      11.409   6.400   4.995  0.00  0.00    +0.006 C 
ENDROOT
BRANCH  12   7
ATOM      5  O   UNL     1      11.266   6.183   1.937  0.00  0.00    -0.252 OA
ATOM      7  N   UNL     1      10.648   4.645   3.550  0.00  0.00    -0.290 N 
ATOM      9  N   UNL     1      11.486   3.877   1.554  0.00  0.00    -0.268 N 
ATOM     18  C   UNL     1      11.151   5.013   2.296  0.00  0.00    +0.304 C 
ATOM     27  H   UNL     1      10.533   3.655   3.748  0.00  0.00    +0.151 HD
ATOM     31  H   UNL     1      11.328   2.976   1.998  0.00  0.00    +0.156 HD
BRANCH   9  20
ATOM      1 BR   UNL     1      14.635   3.701   1.471  0.00  0.00    -0.048 Br
ATOM     20  C   UNL     1      12.023   3.821   0.246  0.00  0.00    +0.049 A 
ATOM     22  C   UNL     1      13.391   3.741   0.039  0.00  0.00    +0.039 A 
ATOM     23  C   UNL     1      11.134   3.849  -0.819  0.00  0.00    +0.024 A 
ATOM     24  C   UNL     1      13.884   3.688  -1.266  0.00  0.00    +0.017 A 
ATOM     25  C   UNL     1      11.628   3.797  -2.122  0.00  0.00    +0.002 A 
ATOM     26  C   UNL     1      13.002   3.716  -2.346  0.00  0.00    +0.001 A 
ENDBRANCH   9  20
ENDBRANCH  12   7
BRANCH  15  17
ATOM      4  O   UNL     1      12.702   8.565   7.279  0.00  0.00    -0.271 OA
ATOM      8  N   UNL     1      13.937   6.994   6.078  0.00  0.00    -0.303 N 
ATOM     17  C   UNL     1      12.777   7.539   6.604  0.00  0.00    +0.240 C 
ATOM     30  H   UNL     1      13.905   6.171   5.488  0.00  0.00    +0.150 HD
BRANCH   8  19
ATOM     19  C   UNL     1      15.243   7.585   6.264  0.00  0.00    +0.200 C 
BRANCH  19  21
ATOM      6  O   UNL     1      16.616   8.688   4.604  0.00  0.00    -0.274 OA
ATOM     10  N   UNL     1      15.675   6.654   4.094  0.00  0.00    -0.328 N 
ATOM     21  C   UNL     1      15.936   7.719   4.928  0.00  0.00    +0.228 C 
ATOM     32  H   UNL     1      15.093   5.871   4.373  0.00  0.00    +0.145 HD
ATOM     33  H   UNL     1      16.066   6.618   3.158  0.00  0.00    +0.145 HD
ENDBRANCH  19  21
ENDBRANCH   8  19
ENDBRANCH  15  17
BRANCH  11   2
ATOM      2  O   UNL     1      10.185   3.773   6.134  0.00  0.00    -0.387 OA
ATOM     28  H   UNL     1      10.364   3.224   5.351  0.00  0.00    +0.210 HD
ENDBRANCH  11   2
BRANCH  13   3
ATOM      3  O   UNL     1       8.399   6.942   6.530  0.00  0.00    -0.389 OA
ATOM     29  H   UNL     1       8.865   7.776   6.711  0.00  0.00    +0.210 HD
ENDBRANCH  13   3
TORSDOF 7
ENDMDL
MODEL 7
REMARK VINA RESULT:      -6.3      7.191      8.999
REMARK  Name = 11865718
REMARK  7 active torsions:
REMARK  status: ('A' for Active; 'I' for Inactive)
REMARK    1  A    between atoms: O_2  and  C_11
REMARK    2  A    between atoms: O_3  and  C_13
REMARK    3  A    between atoms: N_7  and  C_12
REMARK    4  A    between atoms: N_8  and  C_19
REMARK    5  A    between atoms: N_9  and  C_20
REMARK    6  A    between atoms: C_15  and  C_17
REMARK    7  A    between atoms: C_19  and  C_21
REMARK                            x       y       z     vdW  Elec       q    Type
REMARK                         _______ _______ _______ _____ _____    ______ ____
ROOT
ATOM     11  C   UNL     1      19.642   9.000  22.211  0.00  0.00    +0.167 C 
ATOM     12  C   UNL     1      18.677   8.144  21.367  0.00  0.00    +0.129 C 
ATOM     13  C   UNL     1      21.094   8.825  21.753  0.00  0.00    +0.149 C 
ATOM     14  C   UNL     1      21.534   7.351  21.772  0.00  0.00    +0.074 C 
ATOM     15  C   UNL     1      20.462   6.403  21.317  0.00  0.00    +0.015 C 
ATOM     16  C   UNL     1      19.180   6.747  21.123  0.00  0.00    +0.006 C 
ENDROOT
BRANCH  12   7
ATOM      5  O   UNL     1      16.160   8.314  20.009  0.00  0.00    -0.252 OA
ATOM      7  N   UNL     1      17.368   8.070  21.966  0.00  0.00    -0.290 N 
ATOM      9  N   UNL     1      15.073   8.058  22.073  0.00  0.00    -0.268 N 
ATOM     18  C   UNL     1      16.181   8.162  21.228  0.00  0.00    +0.304 C 
ATOM     27  H   UNL     1      17.298   8.001  22.977  0.00  0.00    +0.151 HD
ATOM     31  H   UNL     1      15.263   7.935  23.065  0.00  0.00    +0.156 HD
BRANCH   9  20
ATOM      1 BR   UNL     1      13.699  10.846  22.619  0.00  0.00    -0.048 Br
ATOM     20  C   UNL     1      13.704   8.102  21.720  0.00  0.00    +0.049 A 
ATOM     22  C   UNL     1      12.957   9.255  21.898  0.00  0.00    +0.039 A 
ATOM     23  C   UNL     1      13.136   6.952  21.190  0.00  0.00    +0.024 A 
ATOM     24  C   UNL     1      11.608   9.262  21.537  0.00  0.00    +0.017 A 
ATOM     25  C   UNL     1      11.789   6.958  20.831  0.00  0.00    +0.002 A 
ATOM     26  C   UNL     1      11.025   8.112  21.004  0.00  0.00    +0.001 A 
ENDBRANCH   9  20
ENDBRANCH  12   7
BRANCH  15  17
ATOM      4  O   UNL     1      20.359   4.402  20.090  0.00  0.00    -0.271 OA
ATOM      8  N   UNL     1      21.753   4.513  21.955  0.00  0.00    -0.303 N 
ATOM     17  C   UNL     1      20.838   5.014  21.043  0.00  0.00    +0.240 C 
ATOM     30  H   UNL     1      22.060   5.069  22.744  0.00  0.00    +0.150 HD
BRANCH   8  19
ATOM     19  C   UNL     1      22.271   3.165  21.895  0.00  0.00    +0.200 C 
BRANCH  19  21
ATOM      6  O   UNL     1      24.391   3.950  21.029  0.00  0.00    -0.274 OA
ATOM     10  N   UNL     1      23.427   2.087  20.089  0.00  0.00    -0.328 N 
ATOM     21  C   UNL     1      23.483   3.124  20.993  0.00  0.00    +0.228 C 
ATOM     32  H   UNL     1      22.657   1.427  20.060  0.00  0.00    +0.145 HD
ATOM     33  H   UNL     1      24.170   1.947  19.411  0.00  0.00    +0.145 HD
ENDBRANCH  19  21
ENDBRANCH   8  19
ENDBRANCH  15  17
BRANCH  11   2
ATOM      2  O   UNL     1      19.543   8.618  23.584  0.00  0.00    -0.387 OA
ATOM     28  H   UNL     1      20.288   8.022  23.776  0.00  0.00    +0.210 HD
ENDBRANCH  11   2
BRANCH  13   3
ATOM      3  O   UNL     1      21.267   9.371  20.447  0.00  0.00    -0.389 OA
ATOM     29  H   UNL     1      22.223   9.417  20.272  0.00  0.00    +0.210 HD
ENDBRANCH  13   3
TORSDOF 7
ENDMDL
MODEL 8
REMARK VINA RESULT:      -6.2     27.422     29.334
REMARK  Name = 11865718
REMARK  7 active torsions:
REMARK  status: ('A' for Active; 'I' for Inactive)
REMARK    1  A    between atoms: O_2  and  C_11
REMARK    2  A    between atoms: O_3  and  C_13
REMARK    3  A    between atoms: N_7  and  C_12
REMARK    4  A    between atoms: N_8  and  C_19
REMARK    5  A    between atoms: N_9  and  C_20
REMARK    6  A    between atoms: C_15  and  C_17
REMARK    7  A    between atoms: C_19  and  C_21
REMARK                            x       y       z     vdW  Elec       q    Type
REMARK                         _______ _______ _______ _____ _____    ______ ____
ROOT
ATOM     11  C   UNL     1      -4.079 -10.936  16.525  0.00  0.00    +0.167 C 
ATOM     12  C   UNL     1      -5.430 -11.102  15.804  0.00  0.00    +0.129 C 
ATOM     13  C   UNL     1      -4.082 -11.629  17.892  0.00  0.00    +0.149 C 
ATOM     14  C   UNL     1      -5.229 -11.133  18.790  0.00  0.00    +0.074 C 
ATOM     15  C   UNL     1      -6.509 -10.892  18.043  0.00  0.00    +0.015 C 
ATOM     16  C   UNL     1      -6.616 -10.884  16.705  0.00  0.00    +0.006 C 
ENDROOT
BRANCH  12   7
ATOM      5  O   UNL     1      -4.881 -11.755  13.069  0.00  0.00    -0.252 OA
ATOM      7  N   UNL     1      -5.540 -10.220  14.668  0.00  0.00    -0.290 N 
ATOM      9  N   UNL     1      -5.447  -9.557  12.471  0.00  0.00    -0.268 N 
ATOM     18  C   UNL     1      -5.251 -10.620  13.357  0.00  0.00    +0.304 C 
ATOM     27  H   UNL     1      -5.787  -9.248  14.829  0.00  0.00    +0.151 HD
ATOM     31  H   UNL     1      -5.757  -8.676  12.873  0.00  0.00    +0.156 HD
BRANCH   9  20
ATOM      1 BR   UNL     1      -8.016 -10.400  10.844  0.00  0.00    -0.048 Br
ATOM     20  C   UNL     1      -5.265  -9.552  11.068  0.00  0.00    +0.049 A 
ATOM     22  C   UNL     1      -6.298  -9.898  10.212  0.00  0.00    +0.039 A 
ATOM     23  C   UNL     1      -4.018  -9.188  10.580  0.00  0.00    +0.024 A 
ATOM     24  C   UNL     1      -6.082  -9.881   8.834  0.00  0.00    +0.017 A 
ATOM     25  C   UNL     1      -3.801  -9.172   9.202  0.00  0.00    +0.002 A 
ATOM     26  C   UNL     1      -4.832  -9.518   8.329  0.00  0.00    +0.001 A 
ENDBRANCH   9  20
ENDBRANCH  12   7
BRANCH  15  17
ATOM      4  O   UNL     1      -7.780 -10.942  20.018  0.00  0.00    -0.271 OA
ATOM      8  N   UNL     1      -8.767 -10.151  18.061  0.00  0.00    -0.303 N 
ATOM     17  C   UNL     1      -7.733 -10.672  18.819  0.00  0.00    +0.240 C 
ATOM     30  H   UNL     1      -8.660 -10.005  17.064  0.00  0.00    +0.150 HD
BRANCH   8  19
ATOM     19  C   UNL     1     -10.073  -9.852  18.604  0.00  0.00    +0.200 C 
BRANCH  19  21
ATOM      6  O   UNL     1     -11.849  -8.668  17.463  0.00  0.00    -0.274 OA
ATOM     10  N   UNL     1      -9.773  -7.691  17.603  0.00  0.00    -0.328 N 
ATOM     21  C   UNL     1     -10.685  -8.693  17.852  0.00  0.00    +0.228 C 
ATOM     32  H   UNL     1      -8.808  -7.740  17.914  0.00  0.00    +0.145 HD
ATOM     33  H   UNL     1     -10.044  -6.856  17.093  0.00  0.00    +0.145 HD
ENDBRANCH  19  21
ENDBRANCH   8  19
ENDBRANCH  15  17
BRANCH  11   2
ATOM      2  O   UNL     1      -3.805  -9.547  16.714  0.00  0.00    -0.387 OA
ATOM     28  H   UNL     1      -4.307  -9.253  17.494  0.00  0.00    +0.210 HD
ENDBRANCH  11   2
BRANCH  13   3
ATOM      3  O   UNL     1      -4.167 -13.043  17.726  0.00  0.00    -0.389 OA
ATOM     29  H   UNL     1      -3.288 -13.414  17.916  0.00  0.00    +0.210 HD
ENDBRANCH  13   3
TORSDOF 7
ENDMDL
MODEL 9
REMARK VINA RESULT:      -6.1     16.268     20.476
REMARK  Name = 11865718
REMARK  7 active torsions:
REMARK  status: ('A' for Active; 'I' for Inactive)
REMARK    1  A    between atoms: O_2  and  C_11
REMARK    2  A    between atoms: O_3  and  C_13
REMARK    3  A    between atoms: N_7  and  C_12
REMARK    4  A    between atoms: N_8  and  C_19
REMARK    5  A    between atoms: N_9  and  C_20
REMARK    6  A    between atoms: C_15  and  C_17
REMARK    7  A    between atoms: C_19  and  C_21
REMARK                            x       y       z     vdW  Elec       q    Type
REMARK                         _______ _______ _______ _____ _____    ______ ____
ROOT
ATOM     11  C   UNL     1      14.995   4.723   1.580  0.00  0.00    +0.167 C 
ATOM     12  C   UNL     1      13.565   5.245   1.338  0.00  0.00    +0.129 C 
ATOM     13  C   UNL     1      15.827   4.746   0.293  0.00  0.00    +0.149 C 
ATOM     14  C   UNL     1      15.157   3.955  -0.844  0.00  0.00    +0.074 C 
ATOM     15  C   UNL     1      13.665   4.120  -0.885  0.00  0.00    +0.015 C 
ATOM     16  C   UNL     1      12.939   4.703   0.081  0.00  0.00    +0.006 C 
ENDROOT
BRANCH  12   7
ATOM      5  O   UNL     1      11.978   7.125   2.805  0.00  0.00    -0.252 OA
ATOM      7  N   UNL     1      12.697   4.955   2.453  0.00  0.00    -0.290 N 
ATOM      9  N   UNL     1      11.206   5.364   4.152  0.00  0.00    -0.268 N 
ATOM     18  C   UNL     1      11.952   5.937   3.118  0.00  0.00    +0.304 C 
ATOM     27  H   UNL     1      12.662   4.004   2.809  0.00  0.00    +0.151 HD
ATOM     31  H   UNL     1      11.297   4.359   4.281  0.00  0.00    +0.156 HD
BRANCH   9  20
ATOM      1 BR   UNL     1      12.676   6.888   6.492  0.00  0.00    -0.048 Br
ATOM     20  C   UNL     1      10.330   6.012   5.054  0.00  0.00    +0.049 A 
ATOM     22  C   UNL     1      10.818   6.726   6.136  0.00  0.00    +0.039 A 
ATOM     23  C   UNL     1       8.967   5.910   4.816  0.00  0.00    +0.024 A 
ATOM     24  C   UNL     1       9.924   7.353   7.005  0.00  0.00    +0.017 A 
ATOM     25  C   UNL     1       8.072   6.535   5.684  0.00  0.00    +0.002 A 
ATOM     26  C   UNL     1       8.550   7.257   6.778  0.00  0.00    +0.001 A 
ENDBRANCH   9  20
ENDBRANCH  12   7
BRANCH  15  17
ATOM      4  O   UNL     1      13.350   3.884  -3.202  0.00  0.00    -0.271 OA
ATOM      8  N   UNL     1      11.821   2.894  -1.748  0.00  0.00    -0.303 N 
ATOM     17  C   UNL     1      12.948   3.632  -2.067  0.00  0.00    +0.240 C 
ATOM     30  H   UNL     1      11.530   2.775  -0.784  0.00  0.00    +0.150 HD
BRANCH   8  19
ATOM     19  C   UNL     1      10.950   2.311  -2.744  0.00  0.00    +0.200 C 
BRANCH  19  21
ATOM      6  O   UNL     1       9.600   4.296  -2.430  0.00  0.00    -0.274 OA
ATOM     10  N   UNL     1       9.063   2.845  -4.129  0.00  0.00    -0.328 N 
ATOM     21  C   UNL     1       9.831   3.273  -3.068  0.00  0.00    +0.228 C 
ATOM     32  H   UNL     1       9.257   1.984  -4.631  0.00  0.00    +0.145 HD
ATOM     33  H   UNL     1       8.267   3.387  -4.448  0.00  0.00    +0.145 HD
ENDBRANCH  19  21
ENDBRANCH   8  19
ENDBRANCH  15  17
BRANCH  11   2
ATOM      2  O   UNL     1      14.939   3.382   2.068  0.00  0.00    -0.387 OA
ATOM     28  H   UNL     1      15.847   3.115   2.297  0.00  0.00    +0.210 HD
ENDBRANCH  11   2
BRANCH  13   3
ATOM      3  O   UNL     1      16.059   6.092  -0.118  0.00  0.00    -0.389 OA
ATOM     29  H   UNL     1      15.669   6.199  -1.003  0.00  0.00    +0.210 HD
ENDBRANCH  13   3
TORSDOF 7
ENDMDL
MODEL 10
REMARK VINA RESULT:      -6.0     26.686     28.387
REMARK  Name = 11865718
REMARK  7 active torsions:
REMARK  status: ('A' for Active; 'I' for Inactive)
REMARK    1  A    between atoms: O_2  and  C_11
REMARK    2  A    between atoms: O_3  and  C_13
REMARK    3  A    between atoms: N_7  and  C_12
REMARK    4  A    between atoms: N_8  and  C_19
REMARK    5  A    between atoms: N_9  and  C_20
REMARK    6  A    between atoms: C_15  and  C_17
REMARK    7  A    between atoms: C_19  and  C_21
REMARK                            x       y       z     vdW  Elec       q    Type
REMARK                         _______ _______ _______ _____ _____    ______ ____
ROOT
ATOM     11  C   UNL     1      -3.076 -11.329  15.578  0.00  0.00    +0.167 C 
ATOM     12  C   UNL     1      -4.279 -10.555  15.004  0.00  0.00    +0.129 C 
ATOM     13  C   UNL     1      -1.784 -10.999  14.821  0.00  0.00    +0.149 C 
ATOM     14  C   UNL     1      -1.914 -11.261  13.311  0.00  0.00    +0.074 C 
ATOM     15  C   UNL     1      -3.255 -10.877  12.753  0.00  0.00    +0.015 C 
ATOM     16  C   UNL     1      -4.321 -10.551  13.499  0.00  0.00    +0.006 C 
ENDROOT
BRANCH  12   7
ATOM      5  O   UNL     1      -6.127  -9.197  16.720  0.00  0.00    -0.252 OA
ATOM      7  N   UNL     1      -5.530 -11.070  15.503  0.00  0.00    -0.290 N 
ATOM      9  N   UNL     1      -7.513 -11.090  16.662  0.00  0.00    -0.268 N 
ATOM     18  C   UNL     1      -6.380 -10.338  16.342  0.00  0.00    +0.304 C 
ATOM     27  H   UNL     1      -5.785 -12.028  15.281  0.00  0.00    +0.151 HD
ATOM     31  H   UNL     1      -7.571 -12.024  16.265  0.00  0.00    +0.156 HD
BRANCH   9  20
ATOM      1 BR   UNL     1      -7.429 -12.329  19.563  0.00  0.00    -0.048 Br
ATOM     20  C   UNL     1      -8.604 -10.712  17.479  0.00  0.00    +0.049 A 
ATOM     22  C   UNL     1      -8.715 -11.171  18.782  0.00  0.00    +0.039 A 
ATOM     23  C   UNL     1      -9.558  -9.865  16.932  0.00  0.00    +0.024 A 
ATOM     24  C   UNL     1      -9.805 -10.776  19.558  0.00  0.00    +0.017 A 
ATOM     25  C   UNL     1     -10.648  -9.471  17.707  0.00  0.00    +0.002 A 
ATOM     26  C   UNL     1     -10.772  -9.926  19.020  0.00  0.00    +0.001 A 
ENDBRANCH   9  20
ENDBRANCH  12   7
BRANCH  15  17
ATOM      4  O   UNL     1      -3.302 -11.853  10.616  0.00  0.00    -0.271 OA
ATOM      8  N   UNL     1      -3.681  -9.563  10.820  0.00  0.00    -0.303 N 
ATOM     17  C   UNL     1      -3.411 -10.834  11.296  0.00  0.00    +0.240 C 
ATOM     30  H   UNL     1      -3.705  -8.765  11.445  0.00  0.00    +0.150 HD
BRANCH   8  19
ATOM     19  C   UNL     1      -3.872  -9.268   9.418  0.00  0.00    +0.200 C 
BRANCH  19  21
ATOM      6  O   UNL     1      -5.804 -10.214   8.308  0.00  0.00    -0.274 OA
ATOM     10  N   UNL     1      -6.089  -8.380   9.664  0.00  0.00    -0.328 N 
ATOM     21  C   UNL     1      -5.339  -9.372   9.070  0.00  0.00    +0.228 C 
ATOM     32  H   UNL     1      -5.682  -7.679  10.275  0.00  0.00    +0.145 HD
ATOM     33  H   UNL     1      -7.090  -8.319   9.506  0.00  0.00    +0.145 HD
ENDBRANCH  19  21
ENDBRANCH   8  19
ENDBRANCH  15  17
BRANCH  11   2
ATOM      2  O   UNL     1      -3.320 -12.733  15.481  0.00  0.00    -0.387 OA
ATOM     28  H   UNL     1      -3.786 -13.005  16.291  0.00  0.00    +0.210 HD
ENDBRANCH  11   2
BRANCH  13   3
ATOM      3  O   UNL     1      -1.411  -9.642  15.052  0.00  0.00    -0.389 OA
ATOM     29  H   UNL     1      -1.519  -9.161  14.213  0.00  0.00    +0.210 HD
ENDBRANCH  13   3
TORSDOF 7
ENDMDL
