MODEL 1
REMARK VINA RESULT:      -6.5      0.000      0.000
REMARK  Name = 75536569
REMARK  8 active torsions:
REMARK  status: ('A' for Active; 'I' for Inactive)
REMARK    1  A    between atoms: O_2  and  C_8
REMARK    2  A    between atoms: N_4  and  C_16
REMARK    3  A    between atoms: N_5  and  C_10
REMARK    4  A    between atoms: N_5  and  C_18
REMARK    5  A    between atoms: C_7  and  C_16
REMARK    6  A    between atoms: C_9  and  C_17
REMARK    7  A    between atoms: C_18  and  C_19
REMARK    8  A    between atoms: C_22  and  C_25
REMARK                            x       y       z     vdW  Elec       q    Type
REMARK                         _______ _______ _______ _____ _____    ______ ____
ROOT
ATOM      1  O   UNL     1      10.962   8.159  19.604  0.00  0.00    -0.371 OA
ATOM      7  C   UNL     1      11.420   7.580  20.838  0.00  0.00    +0.165 C 
ATOM      8  C   UNL     1      12.941   7.613  20.779  0.00  0.00    +0.164 C 
ATOM     10  C   UNL     1      13.181   7.370  19.300  0.00  0.00    +0.111 C 
ATOM     15  C   UNL     1      12.059   8.183  18.676  0.00  0.00    +0.181 C 
ENDROOT
BRANCH   8   2
ATOM      2  O   UNL     1      13.523   6.617  21.598  0.00  0.00    -0.388 OA
ATOM     28  H   UNL     1      14.372   6.953  21.931  0.00  0.00    +0.210 HD
ENDBRANCH   8   2
BRANCH  10   5
ATOM      5  N   UNL     1      14.500   7.783  18.847  0.00  0.00    -0.305 NA
ATOM     27  H   UNL     1      14.838   8.534  19.448  0.00  0.00    +0.123 HD
BRANCH   5  18
ATOM     18  C   UNL     1      15.444   6.674  18.901  0.00  0.00    +0.116 C 
BRANCH  18  19
ATOM     19  C   UNL     1      16.635   6.992  19.766  0.00  0.00    -0.032 A 
ATOM     20  C   UNL     1      17.752   6.157  19.752  0.00  0.00    +0.023 A 
ATOM     21  C   UNL     1      16.620   8.124  20.581  0.00  0.00    +0.005 A 
ATOM     22  C   UNL     1      18.855   6.455  20.552  0.00  0.00    +0.052 A 
ATOM     23  C   UNL     1      17.723   8.422  21.382  0.00  0.00    +0.002 A 
ATOM     24  C   UNL     1      18.840   7.586  21.368  0.00  0.00    +0.019 A 
BRANCH  22  25
ATOM      6  N   UNL     1      20.930   4.906  20.527  0.00  0.00    -0.191 NA
ATOM     25  C   UNL     1      20.000   5.600  20.538  0.00  0.00    +0.099 C 
ENDBRANCH  22  25
ENDBRANCH  18  19
ENDBRANCH   5  18
ENDBRANCH  10   5
BRANCH   7  16
ATOM     16  C   UNL     1      10.848   8.354  22.012  0.00  0.00    +0.138 C 
BRANCH  16   4
ATOM      3  O   UNL     1      11.231  11.213  21.679  0.00  0.00    -0.276 OA
ATOM      4  N   UNL     1      11.847   9.178  22.630  0.00  0.00    -0.313 N 
ATOM     17  C   UNL     1      11.958  10.546  22.412  0.00  0.00    +0.216 C 
ATOM     26  H   UNL     1      12.502   8.724  23.261  0.00  0.00    +0.149 HD
BRANCH  17   9
ATOM      9  C   UNL     1      13.070  11.168  23.199  0.00  0.00    +0.075 C 
ATOM     11  C   UNL     1      14.387  10.434  22.943  0.00  0.00    +0.013 C 
ATOM     12  C   UNL     1      13.293  12.617  22.752  0.00  0.00    +0.013 C 
ATOM     13  C   UNL     1      15.113  11.293  21.917  0.00  0.00    +0.001 C 
ATOM     14  C   UNL     1      14.760  12.706  22.345  0.00  0.00    +0.001 C 
ENDBRANCH  17   9
ENDBRANCH  16   4
ENDBRANCH   7  16
TORSDOF 8
ENDMDL
MODEL 2
REMARK VINA RESULT:      -6.0     27.361     30.218
REMARK  Name = 75536569
REMARK  8 active torsions:
REMARK  status: ('A' for Active; 'I' for Inactive)
REMARK    1  A    between atoms: O_2  and  C_8
REMARK    2  A    between atoms: N_4  and  C_16
REMARK    3  A    between atoms: N_5  and  C_10
REMARK    4  A    between atoms: N_5  and  C_18
REMARK    5  A    between atoms: C_7  and  C_16
REMARK    6  A    between atoms: C_9  and  C_17
REMARK    7  A    between atoms: C_18  and  C_19
REMARK    8  A    between atoms: C_22  and  C_25
REMARK                            x       y       z     vdW  Elec       q    Type
REMARK                         _______ _______ _______ _____ _____    ______ ____
ROOT
ATOM      1  O   UNL     1     -12.238  -9.179  16.330  0.00  0.00    -0.371 OA
ATOM      7  C   UNL     1     -12.302  -7.769  16.056  0.00  0.00    +0.165 C 
ATOM      8  C   UNL     1     -10.903  -7.226  16.314  0.00  0.00    +0.164 C 
ATOM     10  C   UNL     1     -10.462  -8.097  17.477  0.00  0.00    +0.111 C 
ATOM     15  C   UNL     1     -11.041  -9.444  17.080  0.00  0.00    +0.181 C 
ENDROOT
BRANCH   8   2
ATOM      2  O   UNL     1     -10.922  -5.850  16.639  0.00  0.00    -0.388 OA
ATOM     28  H   UNL     1     -11.185  -5.352  15.846  0.00  0.00    +0.210 HD
ENDBRANCH   8   2
BRANCH  10   5
ATOM      5  N   UNL     1      -9.021  -8.132  17.666  0.00  0.00    -0.305 NA
ATOM     27  H   UNL     1      -8.818  -8.418  18.625  0.00  0.00    +0.123 HD
BRANCH   5  18
ATOM     18  C   UNL     1      -8.394  -9.076  16.750  0.00  0.00    +0.116 C 
BRANCH  18  19
ATOM     19  C   UNL     1      -7.199  -9.751  17.369  0.00  0.00    -0.032 A 
ATOM     20  C   UNL     1      -6.003  -9.843  16.659  0.00  0.00    +0.023 A 
ATOM     21  C   UNL     1      -7.289 -10.282  18.655  0.00  0.00    +0.005 A 
ATOM     22  C   UNL     1      -4.896 -10.466  17.235  0.00  0.00    +0.052 A 
ATOM     23  C   UNL     1      -6.183 -10.906  19.232  0.00  0.00    +0.002 A 
ATOM     24  C   UNL     1      -4.986 -10.998  18.521  0.00  0.00    +0.019 A 
BRANCH  22  25
ATOM      6  N   UNL     1      -2.673 -10.639  15.918  0.00  0.00    -0.191 NA
ATOM     25  C   UNL     1      -3.669 -10.561  16.508  0.00  0.00    +0.099 C 
ENDBRANCH  22  25
ENDBRANCH  18  19
ENDBRANCH   5  18
ENDBRANCH  10   5
BRANCH   7  16
ATOM     16  C   UNL     1     -12.780  -7.543  14.633  0.00  0.00    +0.138 C 
BRANCH  16   4
ATOM      3  O   UNL     1     -12.416  -6.158  12.106  0.00  0.00    -0.276 OA
ATOM      4  N   UNL     1     -12.984  -6.148  14.366  0.00  0.00    -0.313 N 
ATOM     17  C   UNL     1     -12.784  -5.567  13.119  0.00  0.00    +0.216 C 
ATOM     26  H   UNL     1     -13.293  -5.565  15.138  0.00  0.00    +0.149 HD
BRANCH  17   9
ATOM      9  C   UNL     1     -13.093  -4.101  13.110  0.00  0.00    +0.075 C 
ATOM     11  C   UNL     1     -12.553  -3.444  11.839  0.00  0.00    +0.013 C 
ATOM     12  C   UNL     1     -14.609  -3.877  13.097  0.00  0.00    +0.013 C 
ATOM     13  C   UNL     1     -13.760  -3.339  10.918  0.00  0.00    +0.001 C 
ATOM     14  C   UNL     1     -14.892  -3.012  11.874  0.00  0.00    +0.001 C 
ENDBRANCH  17   9
ENDBRANCH  16   4
ENDBRANCH   7  16
TORSDOF 8
ENDMDL
MODEL 3
REMARK VINA RESULT:      -6.0      3.156      7.168
REMARK  Name = 75536569
REMARK  8 active torsions:
REMARK  status: ('A' for Active; 'I' for Inactive)
REMARK    1  A    between atoms: O_2  and  C_8
REMARK    2  A    between atoms: N_4  and  C_16
REMARK    3  A    between atoms: N_5  and  C_10
REMARK    4  A    between atoms: N_5  and  C_18
REMARK    5  A    between atoms: C_7  and  C_16
REMARK    6  A    between atoms: C_9  and  C_17
REMARK    7  A    between atoms: C_18  and  C_19
REMARK    8  A    between atoms: C_22  and  C_25
REMARK                            x       y       z     vdW  Elec       q    Type
REMARK                         _______ _______ _______ _____ _____    ______ ____
ROOT
ATOM      1  O   UNL     1      14.453   7.179  21.118  0.00  0.00    -0.371 OA
ATOM      7  C   UNL     1      14.077   6.872  19.765  0.00  0.00    +0.165 C 
ATOM      8  C   UNL     1      12.686   7.460  19.572  0.00  0.00    +0.164 C 
ATOM     10  C   UNL     1      12.085   7.247  20.950  0.00  0.00    +0.111 C 
ATOM     15  C   UNL     1      13.273   7.557  21.846  0.00  0.00    +0.181 C 
ENDROOT
BRANCH   8   2
ATOM      2  O   UNL     1      11.967   6.790  18.554  0.00  0.00    -0.388 OA
ATOM     28  H   UNL     1      12.607   6.379  17.948  0.00  0.00    +0.210 HD
ENDBRANCH   8   2
BRANCH  10   5
ATOM      5  N   UNL     1      10.934   8.092  21.221  0.00  0.00    -0.305 NA
ATOM     27  H   UNL     1      10.082   7.541  21.113  0.00  0.00    +0.123 HD
BRANCH   5  18
ATOM     18  C   UNL     1      10.982   8.625  22.577  0.00  0.00    +0.116 C 
BRANCH  18  19
ATOM     19  C   UNL     1      11.094  10.127  22.586  0.00  0.00    -0.032 A 
ATOM     20  C   UNL     1      10.837  10.839  23.758  0.00  0.00    +0.023 A 
ATOM     21  C   UNL     1      11.457  10.805  21.423  0.00  0.00    +0.005 A 
ATOM     22  C   UNL     1      10.944  12.230  23.765  0.00  0.00    +0.052 A 
ATOM     23  C   UNL     1      11.564  12.196  21.430  0.00  0.00    +0.002 A 
ATOM     24  C   UNL     1      11.307  12.908  22.602  0.00  0.00    +0.019 A 
BRANCH  22  25
ATOM      6  N   UNL     1      10.469  13.555  25.939  0.00  0.00    -0.191 NA
ATOM     25  C   UNL     1      10.682  12.961  24.965  0.00  0.00    +0.099 C 
ENDBRANCH  22  25
ENDBRANCH  18  19
ENDBRANCH   5  18
ENDBRANCH  10   5
BRANCH   7  16
ATOM     16  C   UNL     1      15.107   7.440  18.804  0.00  0.00    +0.138 C 
BRANCH  16   4
ATOM      3  O   UNL     1      14.122   8.044  16.140  0.00  0.00    -0.276 OA
ATOM      4  N   UNL     1      14.697   8.717  18.295  0.00  0.00    -0.313 N 
ATOM     17  C   UNL     1      14.236   8.916  16.999  0.00  0.00    +0.216 C 
ATOM     26  H   UNL     1      14.749   9.511  18.928  0.00  0.00    +0.149 HD
BRANCH  17   9
ATOM      9  C   UNL     1      13.851  10.339  16.736  0.00  0.00    +0.075 C 
ATOM     11  C   UNL     1      15.072  11.255  16.834  0.00  0.00    +0.013 C 
ATOM     12  C   UNL     1      13.317  10.490  15.307  0.00  0.00    +0.013 C 
ATOM     13  C   UNL     1      15.502  11.480  15.392  0.00  0.00    +0.001 C 
ATOM     14  C   UNL     1      14.181  11.562  14.650  0.00  0.00    +0.001 C 
ENDBRANCH  17   9
ENDBRANCH  16   4
ENDBRANCH   7  16
TORSDOF 8
ENDMDL
MODEL 4
REMARK VINA RESULT:      -5.9     27.688     30.752
REMARK  Name = 75536569
REMARK  8 active torsions:
REMARK  status: ('A' for Active; 'I' for Inactive)
REMARK    1  A    between atoms: O_2  and  C_8
REMARK    2  A    between atoms: N_4  and  C_16
REMARK    3  A    between atoms: N_5  and  C_10
REMARK    4  A    between atoms: N_5  and  C_18
REMARK    5  A    between atoms: C_7  and  C_16
REMARK    6  A    between atoms: C_9  and  C_17
REMARK    7  A    between atoms: C_18  and  C_19
REMARK    8  A    between atoms: C_22  and  C_25
REMARK                            x       y       z     vdW  Elec       q    Type
REMARK                         _______ _______ _______ _____ _____    ______ ____
ROOT
ATOM      1  O   UNL     1     -17.428   5.444  24.521  0.00  0.00    -0.371 OA
ATOM      7  C   UNL     1     -17.021   4.248  25.208  0.00  0.00    +0.165 C 
ATOM      8  C   UNL     1     -15.730   3.797  24.538  0.00  0.00    +0.164 C 
ATOM     10  C   UNL     1     -15.995   4.194  23.097  0.00  0.00    +0.111 C 
ATOM     15  C   UNL     1     -16.708   5.523  23.279  0.00  0.00    +0.181 C 
ENDROOT
BRANCH   8   2
ATOM      2  O   UNL     1     -15.516   2.407  24.691  0.00  0.00    -0.388 OA
ATOM     28  H   UNL     1     -14.820   2.276  25.358  0.00  0.00    +0.210 HD
ENDBRANCH   8   2
BRANCH  10   5
ATOM      5  N   UNL     1     -14.790   4.303  22.292  0.00  0.00    -0.305 NA
ATOM     27  H   UNL     1     -15.052   4.408  21.311  0.00  0.00    +0.123 HD
BRANCH   5  18
ATOM     18  C   UNL     1     -13.992   5.455  22.693  0.00  0.00    +0.116 C 
BRANCH  18  19
ATOM     19  C   UNL     1     -13.501   6.238  21.504  0.00  0.00    -0.032 A 
ATOM     20  C   UNL     1     -14.410   6.901  20.681  0.00  0.00    +0.023 A 
ATOM     21  C   UNL     1     -12.135   6.302  21.229  0.00  0.00    +0.005 A 
ATOM     22  C   UNL     1     -13.953   7.629  19.582  0.00  0.00    +0.052 A 
ATOM     23  C   UNL     1     -11.677   7.029  20.130  0.00  0.00    +0.002 A 
ATOM     24  C   UNL     1     -12.588   7.692  19.306  0.00  0.00    +0.019 A 
BRANCH  22  25
ATOM      6  N   UNL     1     -15.640   8.862  18.051  0.00  0.00    -0.191 NA
ATOM     25  C   UNL     1     -14.884   8.309  18.737  0.00  0.00    +0.099 C 
ENDBRANCH  22  25
ENDBRANCH  18  19
ENDBRANCH   5  18
ENDBRANCH  10   5
BRANCH   7  16
ATOM     16  C   UNL     1     -16.858   4.539  26.690  0.00  0.00    +0.138 C 
BRANCH  16   4
ATOM      3  O   UNL     1     -16.489   4.100  29.537  0.00  0.00    -0.276 OA
ATOM      4  N   UNL     1     -16.003   3.574  27.320  0.00  0.00    -0.313 N 
ATOM     17  C   UNL     1     -15.889   3.432  28.698  0.00  0.00    +0.216 C 
ATOM     26  H   UNL     1     -15.460   2.965  26.714  0.00  0.00    +0.149 HD
BRANCH  17   9
ATOM      9  C   UNL     1     -14.947   2.335  29.088  0.00  0.00    +0.075 C 
ATOM     11  C   UNL     1     -14.250   2.665  30.409  0.00  0.00    +0.013 C 
ATOM     12  C   UNL     1     -15.719   1.032  29.326  0.00  0.00    +0.013 C 
ATOM     13  C   UNL     1     -15.028   1.886  31.460  0.00  0.00    +0.001 C 
ATOM     14  C   UNL     1     -15.368   0.592  30.743  0.00  0.00    +0.001 C 
ENDBRANCH  17   9
ENDBRANCH  16   4
ENDBRANCH   7  16
TORSDOF 8
ENDMDL
MODEL 5
REMARK VINA RESULT:      -5.9     15.611     18.693
REMARK  Name = 75536569
REMARK  8 active torsions:
REMARK  status: ('A' for Active; 'I' for Inactive)
REMARK    1  A    between atoms: O_2  and  C_8
REMARK    2  A    between atoms: N_4  and  C_16
REMARK    3  A    between atoms: N_5  and  C_10
REMARK    4  A    between atoms: N_5  and  C_18
REMARK    5  A    between atoms: C_7  and  C_16
REMARK    6  A    between atoms: C_9  and  C_17
REMARK    7  A    between atoms: C_18  and  C_19
REMARK    8  A    between atoms: C_22  and  C_25
REMARK                            x       y       z     vdW  Elec       q    Type
REMARK                         _______ _______ _______ _____ _____    ______ ____
ROOT
ATOM      1  O   UNL     1      14.148   9.320   3.133  0.00  0.00    -0.371 OA
ATOM      7  C   UNL     1      14.526   8.151   2.386  0.00  0.00    +0.165 C 
ATOM      8  C   UNL     1      14.299   6.966   3.314  0.00  0.00    +0.164 C 
ATOM     10  C   UNL     1      14.667   7.573   4.656  0.00  0.00    +0.111 C 
ATOM     15  C   UNL     1      14.080   8.969   4.525  0.00  0.00    +0.181 C 
ENDROOT
BRANCH   8   2
ATOM      2  O   UNL     1      15.117   5.863   2.972  0.00  0.00    -0.388 OA
ATOM     28  H   UNL     1      15.589   5.573   3.770  0.00  0.00    +0.210 HD
ENDBRANCH   8   2
BRANCH  10   5
ATOM      5  N   UNL     1      14.135   6.839   5.793  0.00  0.00    -0.305 NA
ATOM     27  H   UNL     1      14.841   6.807   6.529  0.00  0.00    +0.123 HD
BRANCH   5  18
ATOM     18  C   UNL     1      12.936   7.481   6.318  0.00  0.00    +0.116 C 
BRANCH  18  19
ATOM     19  C   UNL     1      11.764   6.536   6.352  0.00  0.00    -0.032 A 
ATOM     20  C   UNL     1      11.214   6.148   7.573  0.00  0.00    +0.023 A 
ATOM     21  C   UNL     1      11.226   6.050   5.160  0.00  0.00    +0.005 A 
ATOM     22  C   UNL     1      10.127   5.275   7.603  0.00  0.00    +0.052 A 
ATOM     23  C   UNL     1      10.139   5.177   5.189  0.00  0.00    +0.002 A 
ATOM     24  C   UNL     1       9.590   4.789   6.412  0.00  0.00    +0.019 A 
BRANCH  22  25
ATOM      6  N   UNL     1       9.105   4.553   9.871  0.00  0.00    -0.191 NA
ATOM     25  C   UNL     1       9.563   4.877   8.855  0.00  0.00    +0.099 C 
ENDBRANCH  22  25
ENDBRANCH  18  19
ENDBRANCH   5  18
ENDBRANCH  10   5
BRANCH   7  16
ATOM     16  C   UNL     1      13.712   8.074   1.106  0.00  0.00    +0.138 C 
BRANCH  16   4
ATOM      3  O   UNL     1      13.629   6.165  -1.081  0.00  0.00    -0.276 OA
ATOM      4  N   UNL     1      12.957   6.856   1.040  0.00  0.00    -0.313 N 
ATOM     17  C   UNL     1      12.977   5.997  -0.053  0.00  0.00    +0.216 C 
ATOM     26  H   UNL     1      12.381   6.619   1.844  0.00  0.00    +0.149 HD
BRANCH  17   9
ATOM      9  C   UNL     1      12.117   4.787   0.150  0.00  0.00    +0.075 C 
ATOM     11  C   UNL     1      12.968   3.516   0.152  0.00  0.00    +0.013 C 
ATOM     12  C   UNL     1      11.431   4.845   1.519  0.00  0.00    +0.013 C 
ATOM     13  C   UNL     1      13.160   3.184   1.624  0.00  0.00    +0.001 C 
ATOM     14  C   UNL     1      11.823   3.558   2.236  0.00  0.00    +0.001 C 
ENDBRANCH  17   9
ENDBRANCH  16   4
ENDBRANCH   7  16
TORSDOF 8
ENDMDL
MODEL 6
REMARK VINA RESULT:      -5.8     27.311     29.920
REMARK  Name = 75536569
REMARK  8 active torsions:
REMARK  status: ('A' for Active; 'I' for Inactive)
REMARK    1  A    between atoms: O_2  and  C_8
REMARK    2  A    between atoms: N_4  and  C_16
REMARK    3  A    between atoms: N_5  and  C_10
REMARK    4  A    between atoms: N_5  and  C_18
REMARK    5  A    between atoms: C_7  and  C_16
REMARK    6  A    between atoms: C_9  and  C_17
REMARK    7  A    between atoms: C_18  and  C_19
REMARK    8  A    between atoms: C_22  and  C_25
REMARK                            x       y       z     vdW  Elec       q    Type
REMARK                         _______ _______ _______ _____ _____    ______ ____
ROOT
ATOM      1  O   UNL     1     -11.706  -7.669  13.864  0.00  0.00    -0.371 OA
ATOM      7  C   UNL     1     -11.874  -6.702  14.914  0.00  0.00    +0.165 C 
ATOM      8  C   UNL     1     -10.579  -6.721  15.716  0.00  0.00    +0.164 C 
ATOM     10  C   UNL     1     -10.206  -8.190  15.631  0.00  0.00    +0.111 C 
ATOM     15  C   UNL     1     -10.592  -8.516  14.198  0.00  0.00    +0.181 C 
ENDROOT
BRANCH   8   2
ATOM      2  O   UNL     1     -10.776  -6.284  17.047  0.00  0.00    -0.388 OA
ATOM     28  H   UNL     1      -9.942  -5.903  17.370  0.00  0.00    +0.210 HD
ENDBRANCH   8   2
BRANCH  10   5
ATOM      5  N   UNL     1      -8.804  -8.453  15.913  0.00  0.00    -0.305 NA
ATOM     27  H   UNL     1      -8.548  -7.993  16.787  0.00  0.00    +0.123 HD
BRANCH   5  18
ATOM     18  C   UNL     1      -8.553  -9.883  16.041  0.00  0.00    +0.116 C 
BRANCH  18  19
ATOM     19  C   UNL     1      -7.359 -10.167  16.914  0.00  0.00    -0.032 A 
ATOM     20  C   UNL     1      -6.085 -10.245  16.350  0.00  0.00    +0.023 A 
ATOM     21  C   UNL     1      -7.527 -10.351  18.286  0.00  0.00    +0.005 A 
ATOM     22  C   UNL     1      -4.980 -10.506  17.160  0.00  0.00    +0.052 A 
ATOM     23  C   UNL     1      -6.422 -10.612  19.096  0.00  0.00    +0.002 A 
ATOM     24  C   UNL     1      -5.148 -10.690  18.532  0.00  0.00    +0.019 A 
BRANCH  22  25
ATOM      6  N   UNL     1      -2.614 -10.649  16.117  0.00  0.00    -0.191 NA
ATOM     25  C   UNL     1      -3.674 -10.585  16.584  0.00  0.00    +0.099 C 
ENDBRANCH  22  25
ENDBRANCH  18  19
ENDBRANCH   5  18
ENDBRANCH  10   5
BRANCH   7  16
ATOM     16  C   UNL     1     -12.187  -5.342  14.314  0.00  0.00    +0.138 C 
BRANCH  16   4
ATOM      3  O   UNL     1     -12.223  -3.152  12.408  0.00  0.00    -0.276 OA
ATOM      4  N   UNL     1     -12.361  -5.427  12.893  0.00  0.00    -0.313 N 
ATOM     17  C   UNL     1     -12.365  -4.320  12.052  0.00  0.00    +0.216 C 
ATOM     26  H   UNL     1     -12.486  -6.352  12.491  0.00  0.00    +0.149 HD
BRANCH  17   9
ATOM      9  C   UNL     1     -12.541  -4.691  10.611  0.00  0.00    +0.075 C 
ATOM     11  C   UNL     1     -12.141  -3.529   9.702  0.00  0.00    +0.013 C 
ATOM     12  C   UNL     1     -11.617  -5.858  10.246  0.00  0.00    +0.013 C 
ATOM     13  C   UNL     1     -10.729  -3.866   9.245  0.00  0.00    +0.001 C 
ATOM     14  C   UNL     1     -10.778  -5.372   9.070  0.00  0.00    +0.001 C 
ENDBRANCH  17   9
ENDBRANCH  16   4
ENDBRANCH   7  16
TORSDOF 8
ENDMDL
MODEL 7
REMARK VINA RESULT:      -5.7     26.765     28.955
REMARK  Name = 75536569
REMARK  8 active torsions:
REMARK  status: ('A' for Active; 'I' for Inactive)
REMARK    1  A    between atoms: O_2  and  C_8
REMARK    2  A    between atoms: N_4  and  C_16
REMARK    3  A    between atoms: N_5  and  C_10
REMARK    4  A    between atoms: N_5  and  C_18
REMARK    5  A    between atoms: C_7  and  C_16
REMARK    6  A    between atoms: C_9  and  C_17
REMARK    7  A    between atoms: C_18  and  C_19
REMARK    8  A    between atoms: C_22  and  C_25
REMARK                            x       y       z     vdW  Elec       q    Type
REMARK                         _______ _______ _______ _____ _____    ______ ____
ROOT
ATOM      1  O   UNL     1      -2.272 -11.250  12.446  0.00  0.00    -0.371 OA
ATOM      7  C   UNL     1      -2.309 -12.680  12.587  0.00  0.00    +0.165 C 
ATOM      8  C   UNL     1      -2.551 -12.952  14.065  0.00  0.00    +0.164 C 
ATOM     10  C   UNL     1      -1.780 -11.810  14.701  0.00  0.00    +0.111 C 
ATOM     15  C   UNL     1      -2.094 -10.668  13.748  0.00  0.00    +0.181 C 
ENDROOT
BRANCH   8   2
ATOM      2  O   UNL     1      -2.065 -14.222  14.454  0.00  0.00    -0.388 OA
ATOM     28  H   UNL     1      -1.463 -14.544  13.763  0.00  0.00    +0.210 HD
ENDBRANCH   8   2
BRANCH  10   5
ATOM      5  N   UNL     1      -2.177 -11.529  16.071  0.00  0.00    -0.305 NA
ATOM     27  H   UNL     1      -1.343 -11.348  16.630  0.00  0.00    +0.123 HD
BRANCH   5  18
ATOM     18  C   UNL     1      -3.052 -10.365  16.137  0.00  0.00    +0.116 C 
BRANCH  18  19
ATOM     19  C   UNL     1      -4.237 -10.604  17.034  0.00  0.00    -0.032 A 
ATOM     20  C   UNL     1      -5.428  -9.912  16.817  0.00  0.00    +0.023 A 
ATOM     21  C   UNL     1      -4.144 -11.519  18.083  0.00  0.00    +0.005 A 
ATOM     22  C   UNL     1      -6.526 -10.135  17.648  0.00  0.00    +0.052 A 
ATOM     23  C   UNL     1      -5.241 -11.744  18.913  0.00  0.00    +0.002 A 
ATOM     24  C   UNL     1      -6.433 -11.051  18.696  0.00  0.00    +0.019 A 
BRANCH  22  25
ATOM      6  N   UNL     1      -8.739  -8.852  17.245  0.00  0.00    -0.191 NA
ATOM     25  C   UNL     1      -7.747  -9.427  17.426  0.00  0.00    +0.099 C 
ENDBRANCH  22  25
ENDBRANCH  18  19
ENDBRANCH   5  18
ENDBRANCH  10   5
BRANCH   7  16
ATOM     16  C   UNL     1      -3.389 -13.257  11.687  0.00  0.00    +0.138 C 
BRANCH  16   4
ATOM      3  O   UNL     1      -6.132 -12.319  11.530  0.00  0.00    -0.276 OA
ATOM      4  N   UNL     1      -3.920 -12.258  10.804  0.00  0.00    -0.313 N 
ATOM     17  C   UNL     1      -5.254 -11.869  10.797  0.00  0.00    +0.216 C 
ATOM     26  H   UNL     1      -3.274 -11.818  10.154  0.00  0.00    +0.149 HD
BRANCH  17   9
ATOM      9  C   UNL     1      -5.536 -10.793   9.794  0.00  0.00    +0.075 C 
ATOM     11  C   UNL     1      -6.052  -9.531  10.488  0.00  0.00    +0.013 C 
ATOM     12  C   UNL     1      -4.245 -10.387   9.073  0.00  0.00    +0.013 C 
ATOM     13  C   UNL     1      -4.835  -8.623  10.589  0.00  0.00    +0.001 C 
ATOM     14  C   UNL     1      -4.105  -8.884   9.285  0.00  0.00    +0.001 C 
ENDBRANCH  17   9
ENDBRANCH  16   4
ENDBRANCH   7  16
TORSDOF 8
ENDMDL
MODEL 8
REMARK VINA RESULT:      -5.6     28.051     30.480
REMARK  Name = 75536569
REMARK  8 active torsions:
REMARK  status: ('A' for Active; 'I' for Inactive)
REMARK    1  A    between atoms: O_2  and  C_8
REMARK    2  A    between atoms: N_4  and  C_16
REMARK    3  A    between atoms: N_5  and  C_10
REMARK    4  A    between atoms: N_5  and  C_18
REMARK    5  A    between atoms: C_7  and  C_16
REMARK    6  A    between atoms: C_9  and  C_17
REMARK    7  A    between atoms: C_18  and  C_19
REMARK    8  A    between atoms: C_22  and  C_25
REMARK                            x       y       z     vdW  Elec       q    Type
REMARK                         _______ _______ _______ _____ _____    ______ ____
ROOT
ATOM      1  O   UNL     1     -12.349  -9.178  16.295  0.00  0.00    -0.371 OA
ATOM      7  C   UNL     1     -12.567  -7.759  16.223  0.00  0.00    +0.165 C 
ATOM      8  C   UNL     1     -11.189  -7.129  16.068  0.00  0.00    +0.164 C 
ATOM     10  C   UNL     1     -10.344  -8.065  16.913  0.00  0.00    +0.111 C 
ATOM     15  C   UNL     1     -10.958  -9.413  16.574  0.00  0.00    +0.181 C 
ENDROOT
BRANCH   8   2
ATOM      2  O   UNL     1     -11.163  -5.795  16.538  0.00  0.00    -0.388 OA
ATOM     28  H   UNL     1     -10.234  -5.525  16.638  0.00  0.00    +0.210 HD
ENDBRANCH   8   2
BRANCH  10   5
ATOM      5  N   UNL     1      -8.923  -7.999  16.612  0.00  0.00    -0.305 NA
ATOM     27  H   UNL     1      -8.404  -7.862  17.480  0.00  0.00    +0.123 HD
BRANCH   5  18
ATOM     18  C   UNL     1      -8.462  -9.227  15.977  0.00  0.00    +0.116 C 
BRANCH  18  19
ATOM     19  C   UNL     1      -7.173  -9.721  16.578  0.00  0.00    -0.032 A 
ATOM     20  C   UNL     1      -7.146 -10.175  17.896  0.00  0.00    +0.023 A 
ATOM     21  C   UNL     1      -6.006  -9.725  15.815  0.00  0.00    +0.005 A 
ATOM     22  C   UNL     1      -5.951 -10.634  18.451  0.00  0.00    +0.052 A 
ATOM     23  C   UNL     1      -4.811 -10.184  16.369  0.00  0.00    +0.002 A 
ATOM     24  C   UNL     1      -4.784 -10.638  17.688  0.00  0.00    +0.019 A 
BRANCH  22  25
ATOM      6  N   UNL     1      -5.898 -11.478  20.899  0.00  0.00    -0.191 NA
ATOM     25  C   UNL     1      -5.922 -11.100  19.802  0.00  0.00    +0.099 C 
ENDBRANCH  22  25
ENDBRANCH  18  19
ENDBRANCH   5  18
ENDBRANCH  10   5
BRANCH   7  16
ATOM     16  C   UNL     1     -13.505  -7.441  15.072  0.00  0.00    +0.138 C 
BRANCH  16   4
ATOM      3  O   UNL     1     -15.271  -5.789  13.464  0.00  0.00    -0.276 OA
ATOM      4  N   UNL     1     -13.219  -6.154  14.506  0.00  0.00    -0.313 N 
ATOM     17  C   UNL     1     -14.130  -5.430  13.746  0.00  0.00    +0.216 C 
ATOM     26  H   UNL     1     -12.299  -5.760  14.681  0.00  0.00    +0.149 HD
BRANCH  17   9
ATOM      9  C   UNL     1     -13.585  -4.108  13.299  0.00  0.00    +0.075 C 
ATOM     11  C   UNL     1     -12.230  -4.287  12.613  0.00  0.00    +0.013 C 
ATOM     12  C   UNL     1     -14.513  -3.475  12.255  0.00  0.00    +0.013 C 
ATOM     13  C   UNL     1     -12.545  -4.256  11.124  0.00  0.00    +0.001 C 
ATOM     14  C   UNL     1     -13.645  -3.214  11.030  0.00  0.00    +0.001 C 
ENDBRANCH  17   9
ENDBRANCH  16   4
ENDBRANCH   7  16
TORSDOF 8
ENDMDL
MODEL 9
REMARK VINA RESULT:      -5.5     15.885     19.055
REMARK  Name = 75536569
REMARK  8 active torsions:
REMARK  status: ('A' for Active; 'I' for Inactive)
REMARK    1  A    between atoms: O_2  and  C_8
REMARK    2  A    between atoms: N_4  and  C_16
REMARK    3  A    between atoms: N_5  and  C_10
REMARK    4  A    between atoms: N_5  and  C_18
REMARK    5  A    between atoms: C_7  and  C_16
REMARK    6  A    between atoms: C_9  and  C_17
REMARK    7  A    between atoms: C_18  and  C_19
REMARK    8  A    between atoms: C_22  and  C_25
REMARK                            x       y       z     vdW  Elec       q    Type
REMARK                         _______ _______ _______ _____ _____    ______ ____
ROOT
ATOM      1  O   UNL     1      14.391   8.950   2.260  0.00  0.00    -0.371 OA
ATOM      7  C   UNL     1      15.455   8.050   2.613  0.00  0.00    +0.165 C 
ATOM      8  C   UNL     1      14.801   6.903   3.372  0.00  0.00    +0.164 C 
ATOM     10  C   UNL     1      13.696   7.635   4.112  0.00  0.00    +0.111 C 
ATOM     15  C   UNL     1      13.240   8.631   3.060  0.00  0.00    +0.181 C 
ENDROOT
BRANCH   8   2
ATOM      2  O   UNL     1      15.712   6.262   4.245  0.00  0.00    -0.388 OA
ATOM     28  H   UNL     1      15.258   6.093   5.088  0.00  0.00    +0.210 HD
ENDBRANCH   8   2
BRANCH  10   5
ATOM      5  N   UNL     1      12.626   6.765   4.571  0.00  0.00    -0.305 NA
ATOM     27  H   UNL     1      12.748   6.584   5.568  0.00  0.00    +0.123 HD
BRANCH   5  18
ATOM     18  C   UNL     1      11.322   7.380   4.360  0.00  0.00    +0.116 C 
BRANCH  18  19
ATOM     19  C   UNL     1      10.466   7.321   5.597  0.00  0.00    -0.032 A 
ATOM     20  C   UNL     1      10.506   6.197   6.421  0.00  0.00    +0.023 A 
ATOM     21  C   UNL     1       9.634   8.393   5.920  0.00  0.00    +0.005 A 
ATOM     22  C   UNL     1       9.715   6.145   7.569  0.00  0.00    +0.052 A 
ATOM     23  C   UNL     1       8.842   8.342   7.067  0.00  0.00    +0.002 A 
ATOM     24  C   UNL     1       8.883   7.216   7.891  0.00  0.00    +0.019 A 
BRANCH  22  25
ATOM      6  N   UNL     1       9.788   4.059   9.101  0.00  0.00    -0.191 NA
ATOM     25  C   UNL     1       9.755   4.993   8.414  0.00  0.00    +0.099 C 
ENDBRANCH  22  25
ENDBRANCH  18  19
ENDBRANCH   5  18
ENDBRANCH  10   5
BRANCH   7  16
ATOM     16  C   UNL     1      16.185   7.601   1.360  0.00  0.00    +0.138 C 
BRANCH  16   4
ATOM      3  O   UNL     1      14.608   6.525  -0.829  0.00  0.00    -0.276 OA
ATOM      4  N   UNL     1      15.923   6.220   1.070  0.00  0.00    -0.313 N 
ATOM     17  C   UNL     1      15.153   5.793  -0.005  0.00  0.00    +0.216 C 
ATOM     26  H   UNL     1      16.331   5.527   1.691  0.00  0.00    +0.149 HD
BRANCH  17   9
ATOM      9  C   UNL     1      15.059   4.301  -0.091  0.00  0.00    +0.075 C 
ATOM     11  C   UNL     1      14.987   3.684   1.307  0.00  0.00    +0.013 C 
ATOM     12  C   UNL     1      13.769   3.889  -0.808  0.00  0.00    +0.013 C 
ATOM     13  C   UNL     1      13.507   3.406   1.528  0.00  0.00    +0.001 C 
ATOM     14  C   UNL     1      13.034   2.964   0.155  0.00  0.00    +0.001 C 
ENDBRANCH  17   9
ENDBRANCH  16   4
ENDBRANCH   7  16
TORSDOF 8
ENDMDL
MODEL 10
REMARK VINA RESULT:      -5.5      2.603      6.871
REMARK  Name = 75536569
REMARK  8 active torsions:
REMARK  status: ('A' for Active; 'I' for Inactive)
REMARK    1  A    between atoms: O_2  and  C_8
REMARK    2  A    between atoms: N_4  and  C_16
REMARK    3  A    between atoms: N_5  and  C_10
REMARK    4  A    between atoms: N_5  and  C_18
REMARK    5  A    between atoms: C_7  and  C_16
REMARK    6  A    between atoms: C_9  and  C_17
REMARK    7  A    between atoms: C_18  and  C_19
REMARK    8  A    between atoms: C_22  and  C_25
REMARK                            x       y       z     vdW  Elec       q    Type
REMARK                         _______ _______ _______ _____ _____    ______ ____
ROOT
ATOM      1  O   UNL     1      15.371   8.561  22.251  0.00  0.00    -0.371 OA
ATOM      7  C   UNL     1      14.953   7.217  21.958  0.00  0.00    +0.165 C 
ATOM      8  C   UNL     1      13.640   7.341  21.198  0.00  0.00    +0.164 C 
ATOM     10  C   UNL     1      13.027   8.556  21.872  0.00  0.00    +0.111 C 
ATOM     15  C   UNL     1      14.248   9.439  22.067  0.00  0.00    +0.181 C 
ENDROOT
BRANCH   8   2
ATOM      2  O   UNL     1      12.841   6.181  21.332  0.00  0.00    -0.388 OA
ATOM     28  H   UNL     1      12.391   6.021  20.485  0.00  0.00    +0.210 HD
ENDBRANCH   8   2
BRANCH  10   5
ATOM      5  N   UNL     1      11.985   9.195  21.086  0.00  0.00    -0.305 NA
ATOM     27  H   UNL     1      11.331   9.662  21.715  0.00  0.00    +0.123 HD
BRANCH   5  18
ATOM     18  C   UNL     1      12.547  10.182  20.172  0.00  0.00    +0.116 C 
BRANCH  18  19
ATOM     19  C   UNL     1      12.383   9.772  18.733  0.00  0.00    -0.032 A 
ATOM     20  C   UNL     1      13.268  10.249  17.766  0.00  0.00    +0.023 A 
ATOM     21  C   UNL     1      11.347   8.914  18.367  0.00  0.00    +0.005 A 
ATOM     22  C   UNL     1      13.117   9.867  16.433  0.00  0.00    +0.052 A 
ATOM     23  C   UNL     1      11.195   8.531  17.034  0.00  0.00    +0.002 A 
ATOM     24  C   UNL     1      12.080   9.009  16.067  0.00  0.00    +0.019 A 
BRANCH  22  25
ATOM      6  N   UNL     1      14.760  10.749  14.636  0.00  0.00    -0.191 NA
ATOM     25  C   UNL     1      14.024  10.354  15.442  0.00  0.00    +0.099 C 
ENDBRANCH  22  25
ENDBRANCH  18  19
ENDBRANCH   5  18
ENDBRANCH  10   5
BRANCH   7  16
ATOM     16  C   UNL     1      16.037   6.503  21.169  0.00  0.00    +0.138 C 
BRANCH  16   4
ATOM      3  O   UNL     1      18.575   5.807  19.942  0.00  0.00    -0.276 OA
ATOM      4  N   UNL     1      17.344   6.947  21.559  0.00  0.00    -0.313 N 
ATOM     17  C   UNL     1      18.512   6.561  20.911  0.00  0.00    +0.216 C 
ATOM     26  H   UNL     1      17.406   7.579  22.353  0.00  0.00    +0.149 HD
BRANCH  17   9
ATOM      9  C   UNL     1      19.735   7.188  21.506  0.00  0.00    +0.075 C 
ATOM     11  C   UNL     1      20.102   6.509  22.826  0.00  0.00    +0.013 C 
ATOM     12  C   UNL     1      20.938   6.993  20.576  0.00  0.00    +0.013 C 
ATOM     13  C   UNL     1      21.214   5.535  22.462  0.00  0.00    +0.001 C 
ATOM     14  C   UNL     1      22.004   6.297  21.414  0.00  0.00    +0.001 C 
ENDBRANCH  17   9
ENDBRANCH  16   4
ENDBRANCH   7  16
TORSDOF 8
ENDMDL
