MODEL 1
REMARK VINA RESULT:      -7.6      0.000      0.000
REMARK  Name = 11867244
REMARK  7 active torsions:
REMARK  status: ('A' for Active; 'I' for Inactive)
REMARK    1  A    between atoms: S_1  and  N_9
REMARK    2  A    between atoms: S_1  and  C_29
REMARK    3  A    between atoms: N_7  and  C_18
REMARK    4  A    between atoms: N_9  and  C_21
REMARK    5  A    between atoms: N_10  and  C_34
REMARK    6  A    between atoms: C_18  and  C_23
REMARK    7  A    between atoms: C_35  and  C_36
REMARK                            x       y       z     vdW  Elec       q    Type
REMARK                         _______ _______ _______ _____ _____    ______ ____
ROOT
ATOM      3  O   UNL     1      12.297   8.273   0.908  0.00  0.00    -0.266 OA
ATOM      7  N   UNL     1      12.891   3.559  -0.708  0.00  0.00    -0.297 NA
ATOM      8  N   UNL     1      12.842   6.029   1.308  0.00  0.00    -0.310 N 
ATOM     11  C   UNL     1      14.833   4.850   0.209  0.00  0.00    +0.024 C 
ATOM     12  C   UNL     1      13.382   3.607   1.741  0.00  0.00    +0.050 C 
ATOM     13  C   UNL     1      14.832   3.995   1.469  0.00  0.00    +0.017 C 
ATOM     14  C   UNL     1      14.248   4.051  -0.974  0.00  0.00    +0.090 C 
ATOM     15  C   UNL     1      12.832   2.794   0.547  0.00  0.00    +0.094 C 
ATOM     16  C   UNL     1      14.055   6.144   0.487  0.00  0.00    +0.130 C 
ATOM     17  C   UNL     1      12.529   4.840   1.981  0.00  0.00    +0.026 A 
ATOM     19  C   UNL     1      11.475   4.786   2.815  0.00  0.00    +0.024 A 
ATOM     20  C   UNL     1      12.066   7.197   1.460  0.00  0.00    +0.274 A 
ATOM     21  C   UNL     1      10.904   7.069   2.375  0.00  0.00    +0.112 A 
ATOM     22  C   UNL     1      10.633   5.933   3.021  0.00  0.00    +0.031 A 
ENDROOT
BRANCH  21   9
ATOM      9  N   UNL     1      10.055   8.167   2.599  0.00  0.00    -0.211 N 
ATOM     37  H   UNL     1       9.725   8.601   1.725  0.00  0.00    +0.174 HD
BRANCH   9   1
ATOM      1  S   UNL     1      10.518   9.266   3.799  0.00  0.00    +0.072 S 
ATOM      4  O   UNL     1      11.961   9.411   3.798  0.00  0.00    -0.150 OA
ATOM      5  O   UNL     1       9.665  10.438   3.743  0.00  0.00    -0.150 OA
BRANCH   1  29
ATOM     29  C   UNL     1      10.080   8.364   5.257  0.00  0.00    +0.109 A 
ATOM     30  C   UNL     1      11.070   8.019   6.161  0.00  0.00    +0.030 A 
ATOM     31  C   UNL     1       8.756   8.021   5.465  0.00  0.00    +0.030 A 
ATOM     32  C   UNL     1      10.724   7.309   7.309  0.00  0.00    +0.025 A 
ATOM     33  C   UNL     1       8.411   7.311   6.615  0.00  0.00    +0.025 A 
ATOM     34  C   UNL     1       9.395   6.954   7.537  0.00  0.00    +0.033 A 
BRANCH  34  10
ATOM      6  O   UNL     1      10.235   4.218   8.472  0.00  0.00    -0.276 OA
ATOM     10  N   UNL     1       9.049   6.245   8.687  0.00  0.00    -0.286 N 
ATOM     35  C   UNL     1       9.470   4.965   9.073  0.00  0.00    +0.214 C 
ATOM     36  C   UNL     1       8.865   4.551  10.391  0.00  0.00    +0.109 C 
ATOM     38  H   UNL     1       8.409   6.723   9.317  0.00  0.00    +0.155 HD
ENDBRANCH  34  10
ENDBRANCH   1  29
ENDBRANCH   9   1
ENDBRANCH  21   9
BRANCH   7  18
ATOM     18  C   UNL     1      12.394   2.764  -1.828  0.00  0.00    +0.119 C 
BRANCH  18  23
ATOM      2  F   UNL     1       7.761   5.000  -4.094  0.00  0.00    -0.205 F 
ATOM     23  C   UNL     1      11.152   3.362  -2.434  0.00  0.00    -0.033 A 
ATOM     24  C   UNL     1      10.633   4.538  -1.909  0.00  0.00    +0.008 A 
ATOM     25  C   UNL     1      10.545   2.731  -3.511  0.00  0.00    +0.008 A 
ATOM     26  C   UNL     1       9.484   5.092  -2.471  0.00  0.00    +0.038 A 
ATOM     27  C   UNL     1       9.395   3.286  -4.073  0.00  0.00    +0.038 A 
ATOM     28  C   UNL     1       8.865   4.467  -3.553  0.00  0.00    +0.123 A 
ENDBRANCH  18  23
ENDBRANCH   7  18
TORSDOF 6
ENDMDL
MODEL 2
REMARK VINA RESULT:      -7.4     24.124     26.612
REMARK  Name = 11867244
REMARK  7 active torsions:
REMARK  status: ('A' for Active; 'I' for Inactive)
REMARK    1  A    between atoms: S_1  and  N_9
REMARK    2  A    between atoms: S_1  and  C_29
REMARK    3  A    between atoms: N_7  and  C_18
REMARK    4  A    between atoms: N_9  and  C_21
REMARK    5  A    between atoms: N_10  and  C_34
REMARK    6  A    between atoms: C_18  and  C_23
REMARK    7  A    between atoms: C_35  and  C_36
REMARK                            x       y       z     vdW  Elec       q    Type
REMARK                         _______ _______ _______ _____ _____    ______ ____
ROOT
ATOM      3  O   UNL     1      -7.267 -11.218  11.924  0.00  0.00    -0.266 OA
ATOM      7  N   UNL     1      -3.120 -11.303  14.748  0.00  0.00    -0.297 NA
ATOM      8  N   UNL     1      -4.936 -11.338  12.127  0.00  0.00    -0.310 N 
ATOM     11  C   UNL     1      -3.728 -13.264  13.309  0.00  0.00    +0.024 C 
ATOM     12  C   UNL     1      -2.429 -11.422  12.350  0.00  0.00    +0.050 C 
ATOM     13  C   UNL     1      -2.589 -12.939  12.352  0.00  0.00    +0.017 C 
ATOM     14  C   UNL     1      -3.395 -12.746  14.724  0.00  0.00    +0.090 C 
ATOM     15  C   UNL     1      -2.079 -10.938  13.776  0.00  0.00    +0.094 C 
ATOM     16  C   UNL     1      -5.027 -12.665  12.754  0.00  0.00    +0.130 C 
ATOM     17  C   UNL     1      -3.696 -10.746  11.856  0.00  0.00    +0.026 A 
ATOM     19  C   UNL     1      -3.627  -9.583  11.183  0.00  0.00    +0.024 A 
ATOM     20  C   UNL     1      -6.150 -10.741  11.728  0.00  0.00    +0.274 A 
ATOM     21  C   UNL     1      -6.012  -9.449  11.010  0.00  0.00    +0.112 A 
ATOM     22  C   UNL     1      -4.820  -8.910  10.745  0.00  0.00    +0.031 A 
ENDROOT
BRANCH  21   9
ATOM      9  N   UNL     1      -7.154  -8.758  10.569  0.00  0.00    -0.211 N 
ATOM     37  H   UNL     1      -7.908  -8.746  11.271  0.00  0.00    +0.174 HD
BRANCH   9   1
ATOM      1  S   UNL     1      -7.671  -9.056   8.986  0.00  0.00    +0.072 S 
ATOM      4  O   UNL     1      -6.612  -8.716   8.054  0.00  0.00    -0.150 OA
ATOM      5  O   UNL     1      -8.315 -10.354   8.918  0.00  0.00    -0.150 OA
BRANCH   1  29
ATOM     29  C   UNL     1      -8.935  -7.830   8.816  0.00  0.00    +0.109 A 
ATOM     30  C   UNL     1      -8.630  -6.625   8.208  0.00  0.00    +0.030 A 
ATOM     31  C   UNL     1     -10.204  -8.100   9.295  0.00  0.00    +0.030 A 
ATOM     32  C   UNL     1      -9.626  -5.659   8.074  0.00  0.00    +0.025 A 
ATOM     33  C   UNL     1     -11.201  -7.134   9.160  0.00  0.00    +0.025 A 
ATOM     34  C   UNL     1     -10.912  -5.913   8.551  0.00  0.00    +0.033 A 
BRANCH  34  10
ATOM      6  O   UNL     1     -11.565  -3.525  10.264  0.00  0.00    -0.276 OA
ATOM     10  N   UNL     1     -11.910  -4.948   8.415  0.00  0.00    -0.286 N 
ATOM     35  C   UNL     1     -12.172  -3.852   9.250  0.00  0.00    +0.214 C 
ATOM     36  C   UNL     1     -13.345  -3.043   8.758  0.00  0.00    +0.109 C 
ATOM     38  H   UNL     1     -12.520  -5.063   7.610  0.00  0.00    +0.155 HD
ENDBRANCH  34  10
ENDBRANCH   1  29
ENDBRANCH   9   1
ENDBRANCH  21   9
BRANCH   7  18
ATOM     18  C   UNL     1      -2.758 -10.862  16.093  0.00  0.00    +0.119 C 
BRANCH  18  23
ATOM      2  F   UNL     1      -7.205 -10.723  19.527  0.00  0.00    -0.205 F 
ATOM     23  C   UNL     1      -3.950 -10.826  17.012  0.00  0.00    -0.033 A 
ATOM     24  C   UNL     1      -3.901 -11.506  18.222  0.00  0.00    +0.008 A 
ATOM     25  C   UNL     1      -5.079 -10.111  16.639  0.00  0.00    +0.008 A 
ATOM     26  C   UNL     1      -5.004 -11.471  19.073  0.00  0.00    +0.038 A 
ATOM     27  C   UNL     1      -6.183 -10.077  17.491  0.00  0.00    +0.038 A 
ATOM     28  C   UNL     1      -6.146 -10.757  18.708  0.00  0.00    +0.123 A 
ENDBRANCH  18  23
ENDBRANCH   7  18
TORSDOF 6
ENDMDL
MODEL 3
REMARK VINA RESULT:      -7.4     23.800     26.480
REMARK  Name = 11867244
REMARK  7 active torsions:
REMARK  status: ('A' for Active; 'I' for Inactive)
REMARK    1  A    between atoms: S_1  and  N_9
REMARK    2  A    between atoms: S_1  and  C_29
REMARK    3  A    between atoms: N_7  and  C_18
REMARK    4  A    between atoms: N_9  and  C_21
REMARK    5  A    between atoms: N_10  and  C_34
REMARK    6  A    between atoms: C_18  and  C_23
REMARK    7  A    between atoms: C_35  and  C_36
REMARK                            x       y       z     vdW  Elec       q    Type
REMARK                         _______ _______ _______ _____ _____    ______ ____
ROOT
ATOM      3  O   UNL     1      -6.214 -12.198  11.448  0.00  0.00    -0.266 OA
ATOM      7  N   UNL     1      -3.286 -11.469  15.458  0.00  0.00    -0.297 NA
ATOM      8  N   UNL     1      -4.109 -12.239  12.475  0.00  0.00    -0.310 N 
ATOM     11  C   UNL     1      -3.546 -13.755  14.462  0.00  0.00    +0.024 C 
ATOM     12  C   UNL     1      -1.841 -12.238  13.571  0.00  0.00    +0.050 C 
ATOM     13  C   UNL     1      -2.127 -13.698  13.913  0.00  0.00    +0.017 C 
ATOM     14  C   UNL     1      -3.664 -12.864  15.716  0.00  0.00    +0.090 C 
ATOM     15  C   UNL     1      -1.951 -11.377  14.850  0.00  0.00    +0.094 C 
ATOM     16  C   UNL     1      -4.523 -13.342  13.353  0.00  0.00    +0.130 C 
ATOM     17  C   UNL     1      -2.802 -11.735  12.509  0.00  0.00    +0.026 A 
ATOM     19  C   UNL     1      -2.407 -10.802  11.623  0.00  0.00    +0.024 A 
ATOM     20  C   UNL     1      -5.058 -11.785  11.536  0.00  0.00    +0.274 A 
ATOM     21  C   UNL     1      -4.572 -10.739  10.601  0.00  0.00    +0.112 A 
ATOM     22  C   UNL     1      -3.317 -10.285  10.637  0.00  0.00    +0.031 A 
ENDROOT
BRANCH  21   9
ATOM      9  N   UNL     1      -5.432 -10.206   9.625  0.00  0.00    -0.211 N 
ATOM     37  H   UNL     1      -5.003 -10.178   8.689  0.00  0.00    +0.174 HD
BRANCH   9   1
ATOM      1  S   UNL     1      -6.304  -8.818  10.043  0.00  0.00    +0.072 S 
ATOM      4  O   UNL     1      -7.412  -9.178  10.907  0.00  0.00    -0.150 OA
ATOM      5  O   UNL     1      -5.386  -7.763  10.433  0.00  0.00    -0.150 OA
BRANCH   1  29
ATOM     29  C   UNL     1      -6.985  -8.371   8.472  0.00  0.00    +0.109 A 
ATOM     30  C   UNL     1      -7.773  -7.238   8.376  0.00  0.00    +0.030 A 
ATOM     31  C   UNL     1      -6.715  -9.164   7.371  0.00  0.00    +0.030 A 
ATOM     32  C   UNL     1      -8.309  -6.886   7.138  0.00  0.00    +0.025 A 
ATOM     33  C   UNL     1      -7.251  -8.811   6.133  0.00  0.00    +0.025 A 
ATOM     34  C   UNL     1      -8.049  -7.673   6.017  0.00  0.00    +0.033 A 
BRANCH  34  10
ATOM      6  O   UNL     1     -10.859  -7.911   4.962  0.00  0.00    -0.276 OA
ATOM     10  N   UNL     1      -8.583  -7.321   4.777  0.00  0.00    -0.286 N 
ATOM     35  C   UNL     1      -9.907  -7.457   4.336  0.00  0.00    +0.214 C 
ATOM     36  C   UNL     1     -10.081  -6.957   2.924  0.00  0.00    +0.109 C 
ATOM     38  H   UNL     1      -7.923  -6.917   4.117  0.00  0.00    +0.155 HD
ENDBRANCH  34  10
ENDBRANCH   1  29
ENDBRANCH   9   1
ENDBRANCH  21   9
BRANCH   7  18
ATOM     18  C   UNL     1      -3.361 -10.671  16.679  0.00  0.00    +0.119 C 
BRANCH  18  23
ATOM      2  F   UNL     1      -8.674  -9.645  18.198  0.00  0.00    -0.205 F 
ATOM     23  C   UNL     1      -4.785 -10.398  17.086  0.00  0.00    -0.033 A 
ATOM     24  C   UNL     1      -5.209 -10.742  18.362  0.00  0.00    +0.008 A 
ATOM     25  C   UNL     1      -5.651  -9.803  16.180  0.00  0.00    +0.008 A 
ATOM     26  C   UNL     1      -6.528 -10.487  18.738  0.00  0.00    +0.038 A 
ATOM     27  C   UNL     1      -6.970  -9.549  16.556  0.00  0.00    +0.038 A 
ATOM     28  C   UNL     1      -7.408  -9.891  17.836  0.00  0.00    +0.123 A 
ENDBRANCH  18  23
ENDBRANCH   7  18
TORSDOF 6
ENDMDL
MODEL 4
REMARK VINA RESULT:      -7.3     35.177     38.606
REMARK  Name = 11867244
REMARK  7 active torsions:
REMARK  status: ('A' for Active; 'I' for Inactive)
REMARK    1  A    between atoms: S_1  and  N_9
REMARK    2  A    between atoms: S_1  and  C_29
REMARK    3  A    between atoms: N_7  and  C_18
REMARK    4  A    between atoms: N_9  and  C_21
REMARK    5  A    between atoms: N_10  and  C_34
REMARK    6  A    between atoms: C_18  and  C_23
REMARK    7  A    between atoms: C_35  and  C_36
REMARK                            x       y       z     vdW  Elec       q    Type
REMARK                         _______ _______ _______ _____ _____    ______ ____
ROOT
ATOM      3  O   UNL     1     -16.191   9.365  32.391  0.00  0.00    -0.266 OA
ATOM      7  N   UNL     1     -11.800  11.509  31.248  0.00  0.00    -0.297 NA
ATOM      8  N   UNL     1     -13.918   9.726  32.831  0.00  0.00    -0.310 N 
ATOM     11  C   UNL     1     -12.950  12.025  33.415  0.00  0.00    +0.024 C 
ATOM     12  C   UNL     1     -11.464  10.082  33.272  0.00  0.00    +0.050 C 
ATOM     13  C   UNL     1     -11.906  11.225  34.182  0.00  0.00    +0.017 C 
ATOM     14  C   UNL     1     -12.342  12.570  32.106  0.00  0.00    +0.090 C 
ATOM     15  C   UNL     1     -10.846  10.662  31.979  0.00  0.00    +0.094 C 
ATOM     16  C   UNL     1     -14.174  11.133  33.169  0.00  0.00    +0.130 C 
ATOM     17  C   UNL     1     -12.635   9.175  32.939  0.00  0.00    +0.026 A 
ATOM     19  C   UNL     1     -12.438   7.860  32.733  0.00  0.00    +0.024 A 
ATOM     20  C   UNL     1     -15.040   8.942  32.488  0.00  0.00    +0.274 A 
ATOM     21  C   UNL     1     -14.756   7.504  32.250  0.00  0.00    +0.112 A 
ATOM     22  C   UNL     1     -13.529   6.994  32.376  0.00  0.00    +0.031 A 
ENDROOT
BRANCH  21   9
ATOM      9  N   UNL     1     -15.795   6.626  31.896  0.00  0.00    -0.211 N 
ATOM     37  H   UNL     1     -16.627   7.118  31.537  0.00  0.00    +0.174 HD
BRANCH   9   1
ATOM      1  S   UNL     1     -16.133   5.361  32.967  0.00  0.00    +0.072 S 
ATOM      4  O   UNL     1     -15.446   5.588  34.224  0.00  0.00    -0.150 OA
ATOM      5  O   UNL     1     -17.555   5.075  32.952  0.00  0.00    -0.150 OA
BRANCH   1  29
ATOM     29  C   UNL     1     -15.316   4.017  32.156  0.00  0.00    +0.109 A 
ATOM     30  C   UNL     1     -14.890   2.934  32.905  0.00  0.00    +0.030 A 
ATOM     31  C   UNL     1     -15.120   4.075  30.788  0.00  0.00    +0.030 A 
ATOM     32  C   UNL     1     -14.247   1.876  32.266  0.00  0.00    +0.025 A 
ATOM     33  C   UNL     1     -14.477   3.015  30.148  0.00  0.00    +0.025 A 
ATOM     34  C   UNL     1     -14.040   1.916  30.888  0.00  0.00    +0.033 A 
BRANCH  34  10
ATOM      6  O   UNL     1     -15.075  -0.794  30.081  0.00  0.00    -0.276 OA
ATOM     10  N   UNL     1     -13.398   0.856  30.247  0.00  0.00    -0.286 N 
ATOM     35  C   UNL     1     -13.931  -0.392  29.896  0.00  0.00    +0.214 C 
ATOM     36  C   UNL     1     -12.907  -1.266  29.214  0.00  0.00    +0.109 C 
ATOM     38  H   UNL     1     -12.422   1.017  30.010  0.00  0.00    +0.155 HD
ENDBRANCH  34  10
ENDBRANCH   1  29
ENDBRANCH   9   1
ENDBRANCH  21   9
BRANCH   7  18
ATOM     18  C   UNL     1     -11.188  12.069  30.046  0.00  0.00    +0.119 C 
BRANCH  18  23
ATOM      2  F   UNL     1     -13.293   9.774  25.366  0.00  0.00    -0.205 F 
ATOM     23  C   UNL     1     -11.751  11.455  28.791  0.00  0.00    -0.033 A 
ATOM     24  C   UNL     1     -10.898  10.828  27.894  0.00  0.00    +0.008 A 
ATOM     25  C   UNL     1     -13.116  11.523  28.552  0.00  0.00    +0.008 A 
ATOM     26  C   UNL     1     -11.420  10.259  26.734  0.00  0.00    +0.038 A 
ATOM     27  C   UNL     1     -13.639  10.954  27.390  0.00  0.00    +0.038 A 
ATOM     28  C   UNL     1     -12.791  10.322  26.481  0.00  0.00    +0.123 A 
ENDBRANCH  18  23
ENDBRANCH   7  18
TORSDOF 6
ENDMDL
MODEL 5
REMARK VINA RESULT:      -7.2      3.344      9.045
REMARK  Name = 11867244
REMARK  7 active torsions:
REMARK  status: ('A' for Active; 'I' for Inactive)
REMARK    1  A    between atoms: S_1  and  N_9
REMARK    2  A    between atoms: S_1  and  C_29
REMARK    3  A    between atoms: N_7  and  C_18
REMARK    4  A    between atoms: N_9  and  C_21
REMARK    5  A    between atoms: N_10  and  C_34
REMARK    6  A    between atoms: C_18  and  C_23
REMARK    7  A    between atoms: C_35  and  C_36
REMARK                            x       y       z     vdW  Elec       q    Type
REMARK                         _______ _______ _______ _____ _____    ______ ____
ROOT
ATOM      3  O   UNL     1      10.299   4.368   2.598  0.00  0.00    -0.266 OA
ATOM      7  N   UNL     1       9.126   8.026   5.827  0.00  0.00    -0.297 NA
ATOM      8  N   UNL     1      10.805   5.677   4.475  0.00  0.00    -0.310 N 
ATOM     11  C   UNL     1       9.400   5.663   6.617  0.00  0.00    +0.024 C 
ATOM     12  C   UNL     1      11.365   7.118   6.464  0.00  0.00    +0.050 C 
ATOM     13  C   UNL     1      10.711   6.023   7.302  0.00  0.00    +0.017 C 
ATOM     14  C   UNL     1       8.489   6.905   6.530  0.00  0.00    +0.090 C 
ATOM     15  C   UNL     1      10.436   8.352   6.411  0.00  0.00    +0.094 C 
ATOM     16  C   UNL     1       9.710   5.063   5.239  0.00  0.00    +0.130 C 
ATOM     17  C   UNL     1      11.662   6.617   5.061  0.00  0.00    +0.026 A 
ATOM     19  C   UNL     1      12.726   7.087   4.384  0.00  0.00    +0.024 A 
ATOM     20  C   UNL     1      11.007   5.202   3.162  0.00  0.00    +0.274 A 
ATOM     21  C   UNL     1      12.182   5.773   2.457  0.00  0.00    +0.112 A 
ATOM     22  C   UNL     1      12.998   6.654   3.040  0.00  0.00    +0.031 A 
ENDROOT
BRANCH  21   9
ATOM      9  N   UNL     1      12.479   5.378   1.141  0.00  0.00    -0.211 N 
ATOM     37  H   UNL     1      11.640   5.302   0.549  0.00  0.00    +0.174 HD
BRANCH   9   1
ATOM      1  S   UNL     1      13.594   4.120   0.947  0.00  0.00    +0.072 S 
ATOM      4  O   UNL     1      14.942   4.634   1.099  0.00  0.00    -0.150 OA
ATOM      5  O   UNL     1      13.163   2.964   1.710  0.00  0.00    -0.150 OA
BRANCH   1  29
ATOM     29  C   UNL     1      13.366   3.739  -0.766  0.00  0.00    +0.109 A 
ATOM     30  C   UNL     1      12.454   2.761  -1.123  0.00  0.00    +0.030 A 
ATOM     31  C   UNL     1      14.103   4.426  -1.713  0.00  0.00    +0.030 A 
ATOM     32  C   UNL     1      12.274   2.461  -2.473  0.00  0.00    +0.025 A 
ATOM     33  C   UNL     1      13.921   4.126  -3.063  0.00  0.00    +0.025 A 
ATOM     34  C   UNL     1      13.008   3.143  -3.443  0.00  0.00    +0.033 A 
BRANCH  34  10
ATOM      6  O   UNL     1      10.861   4.014  -5.365  0.00  0.00    -0.276 OA
ATOM     10  N   UNL     1      12.827   2.845  -4.794  0.00  0.00    -0.286 N 
ATOM     35  C   UNL     1      11.801   3.278  -5.645  0.00  0.00    +0.214 C 
ATOM     36  C   UNL     1      11.963   2.730  -7.041  0.00  0.00    +0.109 C 
ATOM     38  H   UNL     1      13.531   2.234  -5.203  0.00  0.00    +0.155 HD
ENDBRANCH  34  10
ENDBRANCH   1  29
ENDBRANCH   9   1
ENDBRANCH  21   9
BRANCH   7  18
ATOM     18  C   UNL     1       8.254   9.198   5.813  0.00  0.00    +0.119 C 
BRANCH  18  23
ATOM      2  F   UNL     1       5.846   9.958   0.791  0.00  0.00    -0.205 F 
ATOM     23  C   UNL     1       7.608   9.400   4.467  0.00  0.00    -0.033 A 
ATOM     24  C   UNL     1       6.416  10.107   4.381  0.00  0.00    +0.008 A 
ATOM     25  C   UNL     1       8.215   8.880   3.333  0.00  0.00    +0.008 A 
ATOM     26  C   UNL     1       5.819  10.295   3.135  0.00  0.00    +0.038 A 
ATOM     27  C   UNL     1       7.617   9.069   2.087  0.00  0.00    +0.038 A 
ATOM     28  C   UNL     1       6.419   9.776   1.988  0.00  0.00    +0.123 A 
ENDBRANCH  18  23
ENDBRANCH   7  18
TORSDOF 6
ENDMDL
MODEL 6
REMARK VINA RESULT:      -7.2     23.668     28.641
REMARK  Name = 11867244
REMARK  7 active torsions:
REMARK  status: ('A' for Active; 'I' for Inactive)
REMARK    1  A    between atoms: S_1  and  N_9
REMARK    2  A    between atoms: S_1  and  C_29
REMARK    3  A    between atoms: N_7  and  C_18
REMARK    4  A    between atoms: N_9  and  C_21
REMARK    5  A    between atoms: N_10  and  C_34
REMARK    6  A    between atoms: C_18  and  C_23
REMARK    7  A    between atoms: C_35  and  C_36
REMARK                            x       y       z     vdW  Elec       q    Type
REMARK                         _______ _______ _______ _____ _____    ______ ____
ROOT
ATOM      3  O   UNL     1      -6.595 -11.619  14.432  0.00  0.00    -0.266 OA
ATOM      7  N   UNL     1      -9.402 -10.867  18.523  0.00  0.00    -0.297 NA
ATOM      8  N   UNL     1      -6.958 -11.864  16.734  0.00  0.00    -0.310 N 
ATOM     11  C   UNL     1      -8.920 -13.189  17.712  0.00  0.00    +0.024 C 
ATOM     12  C   UNL     1      -7.332 -12.083  19.215  0.00  0.00    +0.050 C 
ATOM     13  C   UNL     1      -7.981 -13.425  18.888  0.00  0.00    +0.017 C 
ATOM     14  C   UNL     1      -9.988 -12.142  18.090  0.00  0.00    +0.090 C 
ATOM     15  C   UNL     1      -8.426 -11.063  19.605  0.00  0.00    +0.094 C 
ATOM     16  C   UNL     1      -8.090 -12.769  16.492  0.00  0.00    +0.130 C 
ATOM     17  C   UNL     1      -6.527 -11.571  18.034  0.00  0.00    +0.026 A 
ATOM     19  C   UNL     1      -5.422 -10.830  18.236  0.00  0.00    +0.024 A 
ATOM     20  C   UNL     1      -6.274 -11.385  15.596  0.00  0.00    +0.274 A 
ATOM     21  C   UNL     1      -5.077 -10.554  15.883  0.00  0.00    +0.112 A 
ATOM     22  C   UNL     1      -4.672 -10.302  17.128  0.00  0.00    +0.031 A 
ENDROOT
BRANCH  21   9
ATOM      9  N   UNL     1      -4.319 -10.018  14.827  0.00  0.00    -0.211 N 
ATOM     37  H   UNL     1      -4.902  -9.560  14.111  0.00  0.00    +0.174 HD
BRANCH   9   1
ATOM      1  S   UNL     1      -3.070 -10.977  14.211  0.00  0.00    +0.072 S 
ATOM      4  O   UNL     1      -1.805 -10.280  14.346  0.00  0.00    -0.150 OA
ATOM      5  O   UNL     1      -3.211 -12.336  14.700  0.00  0.00    -0.150 OA
BRANCH   1  29
ATOM     29  C   UNL     1      -3.483 -10.990  12.490  0.00  0.00    +0.109 A 
ATOM     30  C   UNL     1      -4.270 -12.014  11.992  0.00  0.00    +0.030 A 
ATOM     31  C   UNL     1      -3.011  -9.976  11.676  0.00  0.00    +0.030 A 
ATOM     32  C   UNL     1      -4.596 -12.023  10.637  0.00  0.00    +0.025 A 
ATOM     33  C   UNL     1      -3.338  -9.985  10.320  0.00  0.00    +0.025 A 
ATOM     34  C   UNL     1      -4.130 -11.009   9.801  0.00  0.00    +0.033 A 
BRANCH  34  10
ATOM      6  O   UNL     1      -6.110  -9.347   8.259  0.00  0.00    -0.276 OA
ATOM     10  N   UNL     1      -4.457 -11.017   8.444  0.00  0.00    -0.286 N 
ATOM     35  C   UNL     1      -5.395 -10.218   7.776  0.00  0.00    +0.214 C 
ATOM     36  C   UNL     1      -5.452 -10.536   6.303  0.00  0.00    +0.109 C 
ATOM     38  H   UNL     1      -3.947 -11.691   7.878  0.00  0.00    +0.155 HD
ENDBRANCH  34  10
ENDBRANCH   1  29
ENDBRANCH   9   1
ENDBRANCH  21   9
BRANCH   7  18
ATOM     18  C   UNL     1     -10.442  -9.922  18.922  0.00  0.00    +0.119 C 
BRANCH  18  23
ATOM      2  F   UNL     1     -11.697  -6.315  14.798  0.00  0.00    -0.205 F 
ATOM     23  C   UNL     1     -10.778  -8.957  17.816  0.00  0.00    -0.033 A 
ATOM     24  C   UNL     1     -12.091  -8.849  17.379  0.00  0.00    +0.008 A 
ATOM     25  C   UNL     1      -9.771  -8.187  17.252  0.00  0.00    +0.008 A 
ATOM     26  C   UNL     1     -12.402  -7.954  16.356  0.00  0.00    +0.038 A 
ATOM     27  C   UNL     1     -10.082  -7.292  16.228  0.00  0.00    +0.038 A 
ATOM     28  C   UNL     1     -11.398  -7.176  15.780  0.00  0.00    +0.123 A 
ENDBRANCH  18  23
ENDBRANCH   7  18
TORSDOF 6
ENDMDL
MODEL 7
REMARK VINA RESULT:      -7.1     23.108     27.889
REMARK  Name = 11867244
REMARK  7 active torsions:
REMARK  status: ('A' for Active; 'I' for Inactive)
REMARK    1  A    between atoms: S_1  and  N_9
REMARK    2  A    between atoms: S_1  and  C_29
REMARK    3  A    between atoms: N_7  and  C_18
REMARK    4  A    between atoms: N_9  and  C_21
REMARK    5  A    between atoms: N_10  and  C_34
REMARK    6  A    between atoms: C_18  and  C_23
REMARK    7  A    between atoms: C_35  and  C_36
REMARK                            x       y       z     vdW  Elec       q    Type
REMARK                         _______ _______ _______ _____ _____    ______ ____
ROOT
ATOM      3  O   UNL     1      -5.868 -11.250  13.163  0.00  0.00    -0.266 OA
ATOM      7  N   UNL     1      -7.497 -11.668  17.892  0.00  0.00    -0.297 NA
ATOM      8  N   UNL     1      -5.725 -12.209  15.297  0.00  0.00    -0.310 N 
ATOM     11  C   UNL     1      -7.595 -13.625  16.328  0.00  0.00    +0.024 C 
ATOM     12  C   UNL     1      -5.547 -13.203  17.604  0.00  0.00    +0.050 C 
ATOM     13  C   UNL     1      -6.460 -14.307  17.080  0.00  0.00    +0.017 C 
ATOM     14  C   UNL     1      -8.364 -12.680  17.274  0.00  0.00    +0.090 C 
ATOM     15  C   UNL     1      -6.343 -12.285  18.561  0.00  0.00    +0.094 C 
ATOM     16  C   UNL     1      -7.012 -12.893  15.111  0.00  0.00    +0.130 C 
ATOM     17  C   UNL     1      -4.964 -12.396  16.458  0.00  0.00    +0.026 A 
ATOM     19  C   UNL     1      -3.738 -11.851  16.566  0.00  0.00    +0.024 A 
ATOM     20  C   UNL     1      -5.253 -11.439  14.213  0.00  0.00    +0.274 A 
ATOM     21  C   UNL     1      -3.905 -10.845  14.399  0.00  0.00    +0.112 A 
ATOM     22  C   UNL     1      -3.188 -11.050  15.506  0.00  0.00    +0.031 A 
ENDROOT
BRANCH  21   9
ATOM      9  N   UNL     1      -3.335 -10.052  13.388  0.00  0.00    -0.211 N 
ATOM     37  H   UNL     1      -3.994  -9.359  13.006  0.00  0.00    +0.174 HD
BRANCH   9   1
ATOM      1  S   UNL     1      -2.394 -10.845  12.226  0.00  0.00    +0.072 S 
ATOM      4  O   UNL     1      -1.105 -10.191  12.112  0.00  0.00    -0.150 OA
ATOM      5  O   UNL     1      -2.471 -12.279  12.432  0.00  0.00    -0.150 OA
BRANCH   1  29
ATOM     29  C   UNL     1      -3.306 -10.474  10.756  0.00  0.00    +0.109 A 
ATOM     30  C   UNL     1      -3.878 -11.509  10.037  0.00  0.00    +0.030 A 
ATOM     31  C   UNL     1      -3.429  -9.156  10.354  0.00  0.00    +0.030 A 
ATOM     32  C   UNL     1      -4.597 -11.216   8.879  0.00  0.00    +0.025 A 
ATOM     33  C   UNL     1      -4.149  -8.864   9.196  0.00  0.00    +0.025 A 
ATOM     34  C   UNL     1      -4.732  -9.894   8.458  0.00  0.00    +0.033 A 
BRANCH  34  10
ATOM      6  O   UNL     1      -7.608  -9.077   8.100  0.00  0.00    -0.276 OA
ATOM     10  N   UNL     1      -5.452  -9.600   7.300  0.00  0.00    -0.286 N 
ATOM     35  C   UNL     1      -6.798  -9.225   7.191  0.00  0.00    +0.214 C 
ATOM     36  C   UNL     1      -7.201  -8.995   5.755  0.00  0.00    +0.109 C 
ATOM     38  H   UNL     1      -4.927  -9.670   6.431  0.00  0.00    +0.155 HD
ENDBRANCH  34  10
ENDBRANCH   1  29
ENDBRANCH   9   1
ENDBRANCH  21   9
BRANCH   7  18
ATOM     18  C   UNL     1      -8.251 -10.828  18.819  0.00  0.00    +0.119 C 
BRANCH  18  23
ATOM      2  F   UNL     1     -11.595  -7.202  16.124  0.00  0.00    -0.205 F 
ATOM     23  C   UNL     1      -9.148  -9.858  18.096  0.00  0.00    -0.033 A 
ATOM     24  C   UNL     1     -10.496  -9.801  18.420  0.00  0.00    +0.008 A 
ATOM     25  C   UNL     1      -8.612  -9.032  17.118  0.00  0.00    +0.008 A 
ATOM     26  C   UNL     1     -11.325  -8.901  17.751  0.00  0.00    +0.038 A 
ATOM     27  C   UNL     1      -9.442  -8.132  16.449  0.00  0.00    +0.038 A 
ATOM     28  C   UNL     1     -10.798  -8.067  16.765  0.00  0.00    +0.123 A 
ENDBRANCH  18  23
ENDBRANCH   7  18
TORSDOF 6
ENDMDL
MODEL 8
REMARK VINA RESULT:      -7.0     18.226     22.129
REMARK  Name = 11867244
REMARK  7 active torsions:
REMARK  status: ('A' for Active; 'I' for Inactive)
REMARK    1  A    between atoms: S_1  and  N_9
REMARK    2  A    between atoms: S_1  and  C_29
REMARK    3  A    between atoms: N_7  and  C_18
REMARK    4  A    between atoms: N_9  and  C_21
REMARK    5  A    between atoms: N_10  and  C_34
REMARK    6  A    between atoms: C_18  and  C_23
REMARK    7  A    between atoms: C_35  and  C_36
REMARK                            x       y       z     vdW  Elec       q    Type
REMARK                         _______ _______ _______ _____ _____    ______ ____
ROOT
ATOM      3  O   UNL     1      22.974   5.712  23.853  0.00  0.00    -0.266 OA
ATOM      7  N   UNL     1      25.862   3.577  20.348  0.00  0.00    -0.297 NA
ATOM      8  N   UNL     1      23.506   3.894  22.473  0.00  0.00    -0.310 N 
ATOM     11  C   UNL     1      25.706   2.594  22.648  0.00  0.00    +0.024 C 
ATOM     12  C   UNL     1      24.054   1.962  20.954  0.00  0.00    +0.050 C 
ATOM     13  C   UNL     1      24.886   1.427  22.116  0.00  0.00    +0.017 C 
ATOM     14  C   UNL     1      26.615   3.154  21.535  0.00  0.00    +0.090 C 
ATOM     15  C   UNL     1      24.994   2.499  19.850  0.00  0.00    +0.094 C 
ATOM     16  C   UNL     1      24.750   3.652  23.216  0.00  0.00    +0.130 C 
ATOM     17  C   UNL     1      23.110   3.053  21.424  0.00  0.00    +0.026 A 
ATOM     19  C   UNL     1      21.916   3.223  20.827  0.00  0.00    +0.024 A 
ATOM     20  C   UNL     1      22.689   4.950  22.930  0.00  0.00    +0.274 A 
ATOM     21  C   UNL     1      21.395   5.101  22.218  0.00  0.00    +0.112 A 
ATOM     22  C   UNL     1      21.028   4.278  21.234  0.00  0.00    +0.031 A 
ENDROOT
BRANCH  21   9
ATOM      9  N   UNL     1      20.501   6.123  22.583  0.00  0.00    -0.211 N 
ATOM     37  H   UNL     1      19.565   5.766  22.824  0.00  0.00    +0.174 HD
BRANCH   9   1
ATOM      1  S   UNL     1      20.499   7.521  21.631  0.00  0.00    +0.072 S 
ATOM      4  O   UNL     1      20.555   8.693  22.483  0.00  0.00    -0.150 OA
ATOM      5  O   UNL     1      21.439   7.367  20.536  0.00  0.00    -0.150 OA
BRANCH   1  29
ATOM     29  C   UNL     1      18.871   7.447  20.942  0.00  0.00    +0.109 A 
ATOM     30  C   UNL     1      18.514   6.356  20.169  0.00  0.00    +0.030 A 
ATOM     31  C   UNL     1      17.987   8.481  21.190  0.00  0.00    +0.030 A 
ATOM     32  C   UNL     1      17.231   6.298  19.626  0.00  0.00    +0.025 A 
ATOM     33  C   UNL     1      16.703   8.423  20.648  0.00  0.00    +0.025 A 
ATOM     34  C   UNL     1      16.325   7.332  19.865  0.00  0.00    +0.033 A 
BRANCH  34  10
ATOM      6  O   UNL     1      13.662   6.894  21.199  0.00  0.00    -0.276 OA
ATOM     10  N   UNL     1      15.041   7.273  19.324  0.00  0.00    -0.286 N 
ATOM     35  C   UNL     1      13.828   7.063  19.996  0.00  0.00    +0.214 C 
ATOM     36  C   UNL     1      12.655   7.069  19.048  0.00  0.00    +0.109 C 
ATOM     38  H   UNL     1      14.987   7.399  18.316  0.00  0.00    +0.155 HD
ENDBRANCH  34  10
ENDBRANCH   1  29
ENDBRANCH   9   1
ENDBRANCH  21   9
BRANCH   7  18
ATOM     18  C   UNL     1      26.761   4.051  19.298  0.00  0.00    +0.119 C 
BRANCH  18  23
ATOM      2  F   UNL     1      25.803   9.434  17.995  0.00  0.00    -0.205 F 
ATOM     23  C   UNL     1      26.506   5.493  18.950  0.00  0.00    -0.033 A 
ATOM     24  C   UNL     1      27.006   6.008  17.762  0.00  0.00    +0.008 A 
ATOM     25  C   UNL     1      25.771   6.286  19.820  0.00  0.00    +0.008 A 
ATOM     26  C   UNL     1      26.768   7.343  17.439  0.00  0.00    +0.038 A 
ATOM     27  C   UNL     1      25.534   7.622  19.497  0.00  0.00    +0.038 A 
ATOM     28  C   UNL     1      26.032   8.151  18.306  0.00  0.00    +0.123 A 
ENDBRANCH  18  23
ENDBRANCH   7  18
TORSDOF 6
ENDMDL
MODEL 9
REMARK VINA RESULT:      -7.0     18.630     23.506
REMARK  Name = 11867244
REMARK  7 active torsions:
REMARK  status: ('A' for Active; 'I' for Inactive)
REMARK    1  A    between atoms: S_1  and  N_9
REMARK    2  A    between atoms: S_1  and  C_29
REMARK    3  A    between atoms: N_7  and  C_18
REMARK    4  A    between atoms: N_9  and  C_21
REMARK    5  A    between atoms: N_10  and  C_34
REMARK    6  A    between atoms: C_18  and  C_23
REMARK    7  A    between atoms: C_35  and  C_36
REMARK                            x       y       z     vdW  Elec       q    Type
REMARK                         _______ _______ _______ _____ _____    ______ ____
ROOT
ATOM      3  O   UNL     1      21.126   3.631  20.741  0.00  0.00    -0.266 OA
ATOM      7  N   UNL     1      25.069   3.145  23.807  0.00  0.00    -0.297 NA
ATOM      8  N   UNL     1      23.431   3.761  21.141  0.00  0.00    -0.310 N 
ATOM     11  C   UNL     1      24.866   1.727  21.749  0.00  0.00    +0.024 C 
ATOM     12  C   UNL     1      25.903   3.941  21.590  0.00  0.00    +0.050 C 
ATOM     13  C   UNL     1      25.989   2.506  21.078  0.00  0.00    +0.017 C 
ATOM     14  C   UNL     1      25.032   1.774  23.282  0.00  0.00    +0.090 C 
ATOM     15  C   UNL     1      26.089   3.954  23.125  0.00  0.00    +0.094 C 
ATOM     16  C   UNL     1      23.520   2.301  21.285  0.00  0.00    +0.130 C 
ATOM     17  C   UNL     1      24.573   4.569  21.213  0.00  0.00    +0.026 A 
ATOM     19  C   UNL     1      24.490   5.890  20.969  0.00  0.00    +0.024 A 
ATOM     20  C   UNL     1      22.160   4.291  20.832  0.00  0.00    +0.274 A 
ATOM     21  C   UNL     1      22.129   5.756  20.596  0.00  0.00    +0.112 A 
ATOM     22  C   UNL     1      23.231   6.506  20.651  0.00  0.00    +0.031 A 
ENDROOT
BRANCH  21   9
ATOM      9  N   UNL     1      20.916   6.397  20.286  0.00  0.00    -0.211 N 
ATOM     37  H   UNL     1      20.989   7.011  19.462  0.00  0.00    +0.174 HD
BRANCH   9   1
ATOM      1  S   UNL     1      20.040   7.053  21.576  0.00  0.00    +0.072 S 
ATOM      4  O   UNL     1      20.056   6.131  22.696  0.00  0.00    -0.150 OA
ATOM      5  O   UNL     1      20.416   8.441  21.767  0.00  0.00    -0.150 OA
BRANCH   1  29
ATOM     29  C   UNL     1      18.403   7.037  20.904  0.00  0.00    +0.109 A 
ATOM     30  C   UNL     1      18.101   6.152  19.884  0.00  0.00    +0.030 A 
ATOM     31  C   UNL     1      17.458   7.909  21.412  0.00  0.00    +0.030 A 
ATOM     32  C   UNL     1      16.811   6.140  19.355  0.00  0.00    +0.025 A 
ATOM     33  C   UNL     1      16.167   7.895  20.883  0.00  0.00    +0.025 A 
ATOM     34  C   UNL     1      15.844   7.011  19.854  0.00  0.00    +0.033 A 
BRANCH  34  10
ATOM      6  O   UNL     1      14.562   8.782  17.784  0.00  0.00    -0.276 OA
ATOM     10  N   UNL     1      14.553   6.998  19.326  0.00  0.00    -0.286 N 
ATOM     35  C   UNL     1      14.005   7.854  18.359  0.00  0.00    +0.214 C 
ATOM     36  C   UNL     1      12.568   7.509  18.058  0.00  0.00    +0.109 C 
ATOM     38  H   UNL     1      13.939   6.276  19.695  0.00  0.00    +0.155 HD
ENDBRANCH  34  10
ENDBRANCH   1  29
ENDBRANCH   9   1
ENDBRANCH  21   9
BRANCH   7  18
ATOM     18  C   UNL     1      25.280   3.147  25.252  0.00  0.00    +0.119 C 
BRANCH  18  23
ATOM      2  F   UNL     1      20.974   5.495  27.998  0.00  0.00    -0.205 F 
ATOM     23  C   UNL     1      24.125   3.775  25.987  0.00  0.00    -0.033 A 
ATOM     24  C   UNL     1      23.814   3.341  27.269  0.00  0.00    +0.008 A 
ATOM     25  C   UNL     1      23.391   4.780  25.374  0.00  0.00    +0.008 A 
ATOM     26  C   UNL     1      22.746   3.924  27.950  0.00  0.00    +0.038 A 
ATOM     27  C   UNL     1      22.322   5.362  26.055  0.00  0.00    +0.038 A 
ATOM     28  C   UNL     1      22.000   4.934  27.343  0.00  0.00    +0.123 A 
ENDBRANCH  18  23
ENDBRANCH   7  18
TORSDOF 6
ENDMDL
MODEL 10
REMARK VINA RESULT:      -7.0     24.750     28.677
REMARK  Name = 11867244
REMARK  7 active torsions:
REMARK  status: ('A' for Active; 'I' for Inactive)
REMARK    1  A    between atoms: S_1  and  N_9
REMARK    2  A    between atoms: S_1  and  C_29
REMARK    3  A    between atoms: N_7  and  C_18
REMARK    4  A    between atoms: N_9  and  C_21
REMARK    5  A    between atoms: N_10  and  C_34
REMARK    6  A    between atoms: C_18  and  C_23
REMARK    7  A    between atoms: C_35  and  C_36
REMARK                            x       y       z     vdW  Elec       q    Type
REMARK                         _______ _______ _______ _____ _____    ______ ____
ROOT
ATOM      3  O   UNL     1      -6.566 -10.181  14.421  0.00  0.00    -0.266 OA
ATOM      7  N   UNL     1      -2.727 -13.150  13.144  0.00  0.00    -0.297 NA
ATOM      8  N   UNL     1      -4.265 -10.569  14.213  0.00  0.00    -0.310 N 
ATOM     11  C   UNL     1      -3.107 -10.972  11.963  0.00  0.00    +0.024 C 
ATOM     12  C   UNL     1      -1.791 -11.009  14.029  0.00  0.00    +0.050 C 
ATOM     13  C   UNL     1      -1.890 -10.365  12.649  0.00  0.00    +0.017 C 
ATOM     14  C   UNL     1      -2.940 -12.501  11.844  0.00  0.00    +0.090 C 
ATOM     15  C   UNL     1      -1.608 -12.536  13.874  0.00  0.00    +0.094 C 
ATOM     16  C   UNL     1      -4.366 -10.576  12.747  0.00  0.00    +0.130 C 
ATOM     17  C   UNL     1      -3.028 -10.704  14.856  0.00  0.00    +0.026 A 
ATOM     19  C   UNL     1      -2.938 -10.585  16.194  0.00  0.00    +0.024 A 
ATOM     20  C   UNL     1      -5.455 -10.323  14.929  0.00  0.00    +0.274 A 
ATOM     21  C   UNL     1      -5.296 -10.224  16.402  0.00  0.00    +0.112 A 
ATOM     22  C   UNL     1      -4.106 -10.338  16.995  0.00  0.00    +0.031 A 
ENDROOT
BRANCH  21   9
ATOM      9  N   UNL     1      -6.414  -9.987  17.221  0.00  0.00    -0.211 N 
ATOM     37  H   UNL     1      -6.372  -9.075  17.698  0.00  0.00    +0.174 HD
BRANCH   9   1
ATOM      1  S   UNL     1      -6.943 -11.267  18.192  0.00  0.00    +0.072 S 
ATOM      4  O   UNL     1      -7.021 -12.481  17.401  0.00  0.00    -0.150 OA
ATOM      5  O   UNL     1      -6.218 -11.259  19.449  0.00  0.00    -0.150 OA
BRANCH   1  29
ATOM     29  C   UNL     1      -8.602 -10.756  18.536  0.00  0.00    +0.109 A 
ATOM     30  C   UNL     1      -9.199 -11.154  19.719  0.00  0.00    +0.030 A 
ATOM     31  C   UNL     1      -9.268  -9.967  17.615  0.00  0.00    +0.030 A 
ATOM     32  C   UNL     1     -10.506 -10.751  19.989  0.00  0.00    +0.025 A 
ATOM     33  C   UNL     1     -10.575  -9.563  17.887  0.00  0.00    +0.025 A 
ATOM     34  C   UNL     1     -11.194  -9.956  19.074  0.00  0.00    +0.033 A 
BRANCH  34  10
ATOM      6  O   UNL     1     -13.826 -11.150  18.227  0.00  0.00    -0.276 OA
ATOM     10  N   UNL     1     -12.502  -9.550  19.345  0.00  0.00    -0.286 N 
ATOM     35  C   UNL     1     -13.697 -10.146  18.920  0.00  0.00    +0.214 C 
ATOM     36  C   UNL     1     -14.905  -9.400  19.428  0.00  0.00    +0.109 C 
ATOM     38  H   UNL     1     -12.588  -8.717  19.922  0.00  0.00    +0.155 HD
ENDBRANCH  34  10
ENDBRANCH   1  29
ENDBRANCH   9   1
ENDBRANCH  21   9
BRANCH   7  18
ATOM     18  C   UNL     1      -2.521 -14.587  12.984  0.00  0.00    +0.119 C 
BRANCH  18  23
ATOM      2  F   UNL     1      -3.837 -17.422  17.656  0.00  0.00    -0.205 F 
ATOM     23  C   UNL     1      -2.874 -15.348  14.235  0.00  0.00    -0.033 A 
ATOM     24  C   UNL     1      -1.990 -16.297  14.730  0.00  0.00    +0.008 A 
ATOM     25  C   UNL     1      -4.077 -15.087  14.876  0.00  0.00    +0.008 A 
ATOM     26  C   UNL     1      -2.317 -17.000  15.889  0.00  0.00    +0.038 A 
ATOM     27  C   UNL     1      -4.404 -15.791  16.035  0.00  0.00    +0.038 A 
ATOM     28  C   UNL     1      -3.524 -16.747  16.542  0.00  0.00    +0.123 A 
ENDBRANCH  18  23
ENDBRANCH   7  18
TORSDOF 6
ENDMDL
