MODEL 1
REMARK VINA RESULT:      -6.6      0.000      0.000
REMARK  Name = 75367193
REMARK  7 active torsions:
REMARK  status: ('A' for Active; 'I' for Inactive)
REMARK    1  A    between atoms: N_3  and  C_12
REMARK    2  A    between atoms: C_6  and  C_9
REMARK    3  A    between atoms: C_10  and  C_11
REMARK    4  A    between atoms: C_10  and  C_15
REMARK    5  A    between atoms: C_10  and  C_16
REMARK    6  A    between atoms: C_10  and  C_17
REMARK    7  A    between atoms: C_12  and  C_18
REMARK                            x       y       z     vdW  Elec       q    Type
REMARK                         _______ _______ _______ _____ _____    ______ ____
ROOT
ATOM      2  O   UNL     1      12.924   8.708  15.321  0.00  0.00    -0.377 OA
ATOM      3  N   UNL     1      12.197   8.391  18.073  0.00  0.00    -0.285 NA
ATOM      6  C   UNL     1      13.490   7.880  17.551  0.00  0.00    +0.149 C 
ATOM      7  C   UNL     1      13.934   8.710  16.330  0.00  0.00    +0.186 C 
ATOM      8  C   UNL     1      11.199   8.453  16.990  0.00  0.00    +0.113 C 
ATOM     13  C   UNL     1      11.718   9.280  15.822  0.00  0.00    +0.175 C 
ENDROOT
BRANCH   6   9
ATOM      4  N   UNL     1      14.968   9.029  19.239  0.00  0.00    -0.344 N 
ATOM      5  N   UNL     1      15.335   6.857  18.961  0.00  0.00    -0.239 NA
ATOM      9  C   UNL     1      14.608   7.885  18.583  0.00  0.00    +0.127 A 
ATOM     11  C   UNL     1      15.989   8.711  20.090  0.00  0.00    +0.041 A 
ATOM     14  C   UNL     1      16.197   7.365  19.901  0.00  0.00    +0.134 A 
ATOM     24  H   UNL     1      14.550   9.943  19.119  0.00  0.00    +0.167 HD
BRANCH  11  10
ATOM     10  C   UNL     1      16.632   9.703  20.964  0.00  0.00    +0.004 C 
ATOM     15  C   UNL     1      18.014   9.283  21.589  0.00  0.00    +0.017 C 
ATOM     16  C   UNL     1      16.930  11.044  20.208  0.00  0.00    +0.017 C 
ATOM     17  C   UNL     1      15.735  10.067  22.197  0.00  0.00    +0.017 C 
ENDBRANCH  11  10
ENDBRANCH   6   9
BRANCH   3  12
ATOM     12  C   UNL     1      11.673   7.561  19.163  0.00  0.00    +0.120 C 
BRANCH  12  18
ATOM      1  F   UNL     1      10.689  10.579  23.817  0.00  0.00    -0.205 F 
ATOM     18  C   UNL     1      11.409   8.367  20.406  0.00  0.00    -0.033 A 
ATOM     19  C   UNL     1      10.786   7.773  21.503  0.00  0.00    +0.008 A 
ATOM     20  C   UNL     1      11.791   9.708  20.461  0.00  0.00    +0.008 A 
ATOM     21  C   UNL     1      10.542   8.520  22.655  0.00  0.00    +0.038 A 
ATOM     22  C   UNL     1      11.546  10.455  21.614  0.00  0.00    +0.038 A 
ATOM     23  C   UNL     1      10.922   9.861  22.711  0.00  0.00    +0.123 A 
ENDBRANCH  12  18
ENDBRANCH   3  12
TORSDOF 4
ENDMDL
MODEL 2
REMARK VINA RESULT:      -6.3      2.938      5.337
REMARK  Name = 75367193
REMARK  7 active torsions:
REMARK  status: ('A' for Active; 'I' for Inactive)
REMARK    1  A    between atoms: N_3  and  C_12
REMARK    2  A    between atoms: C_6  and  C_9
REMARK    3  A    between atoms: C_10  and  C_11
REMARK    4  A    between atoms: C_10  and  C_15
REMARK    5  A    between atoms: C_10  and  C_16
REMARK    6  A    between atoms: C_10  and  C_17
REMARK    7  A    between atoms: C_12  and  C_18
REMARK                            x       y       z     vdW  Elec       q    Type
REMARK                         _______ _______ _______ _____ _____    ______ ____
ROOT
ATOM      2  O   UNL     1      10.585   7.770  20.464  0.00  0.00    -0.377 OA
ATOM      3  N   UNL     1      13.394   7.527  19.962  0.00  0.00    -0.285 NA
ATOM      6  C   UNL     1      12.437   7.831  18.868  0.00  0.00    +0.149 C 
ATOM      7  C   UNL     1      11.195   8.549  19.434  0.00  0.00    +0.186 C 
ATOM      8  C   UNL     1      12.714   6.794  21.045  0.00  0.00    +0.113 C 
ATOM     13  C   UNL     1      11.497   7.564  21.539  0.00  0.00    +0.175 C 
ENDROOT
BRANCH   6   9
ATOM      4  N   UNL     1      13.739   9.818  18.029  0.00  0.00    -0.344 N 
ATOM      5  N   UNL     1      12.955   8.453  16.463  0.00  0.00    -0.239 NA
ATOM      9  C   UNL     1      13.033   8.681  17.755  0.00  0.00    +0.127 A 
ATOM     11  C   UNL     1      14.139  10.351  16.835  0.00  0.00    +0.041 A 
ATOM     14  C   UNL     1      13.643   9.490  15.883  0.00  0.00    +0.134 A 
ATOM     24  H   UNL     1      13.935  10.194  18.948  0.00  0.00    +0.167 HD
BRANCH  11  10
ATOM     10  C   UNL     1      14.928  11.588  16.741  0.00  0.00    +0.004 C 
ATOM     15  C   UNL     1      14.109  12.919  16.556  0.00  0.00    +0.017 C 
ATOM     16  C   UNL     1      15.793  11.831  18.026  0.00  0.00    +0.017 C 
ATOM     17  C   UNL     1      15.918  11.561  15.527  0.00  0.00    +0.017 C 
ENDBRANCH  11  10
ENDBRANCH   6   9
BRANCH   3  12
ATOM     12  C   UNL     1      14.538   6.739  19.493  0.00  0.00    +0.120 C 
BRANCH  12  18
ATOM      1  F   UNL     1      19.383   8.519  21.751  0.00  0.00    -0.205 F 
ATOM     18  C   UNL     1      15.833   7.215  20.096  0.00  0.00    -0.033 A 
ATOM     19  C   UNL     1      15.948   8.527  20.552  0.00  0.00    +0.008 A 
ATOM     20  C   UNL     1      16.917   6.342  20.199  0.00  0.00    +0.008 A 
ATOM     21  C   UNL     1      17.147   8.969  21.111  0.00  0.00    +0.038 A 
ATOM     22  C   UNL     1      18.116   6.784  20.757  0.00  0.00    +0.038 A 
ATOM     23  C   UNL     1      18.232   8.097  21.214  0.00  0.00    +0.123 A 
ENDBRANCH  12  18
ENDBRANCH   3  12
TORSDOF 4
ENDMDL
MODEL 3
REMARK VINA RESULT:      -6.1      3.630      6.222
REMARK  Name = 75367193
REMARK  7 active torsions:
REMARK  status: ('A' for Active; 'I' for Inactive)
REMARK    1  A    between atoms: N_3  and  C_12
REMARK    2  A    between atoms: C_6  and  C_9
REMARK    3  A    between atoms: C_10  and  C_11
REMARK    4  A    between atoms: C_10  and  C_15
REMARK    5  A    between atoms: C_10  and  C_16
REMARK    6  A    between atoms: C_10  and  C_17
REMARK    7  A    between atoms: C_12  and  C_18
REMARK                            x       y       z     vdW  Elec       q    Type
REMARK                         _______ _______ _______ _____ _____    ______ ____
ROOT
ATOM      2  O   UNL     1      10.227   6.902  21.807  0.00  0.00    -0.377 OA
ATOM      3  N   UNL     1      12.820   7.916  21.139  0.00  0.00    -0.285 NA
ATOM      6  C   UNL     1      11.685   8.828  21.431  0.00  0.00    +0.149 C 
ATOM      7  C   UNL     1      10.677   8.135  22.369  0.00  0.00    +0.186 C 
ATOM      8  C   UNL     1      12.320   6.624  20.638  0.00  0.00    +0.113 C 
ATOM     13  C   UNL     1      11.325   6.013  21.615  0.00  0.00    +0.175 C 
ENDROOT
BRANCH   6   9
ATOM      4  N   UNL     1      11.278  11.233  22.064  0.00  0.00    -0.344 N 
ATOM      5  N   UNL     1      13.262  10.414  22.631  0.00  0.00    -0.239 NA
ATOM      9  C   UNL     1      12.110  10.149  22.054  0.00  0.00    +0.127 A 
ATOM     11  C   UNL     1      11.939  12.254  22.688  0.00  0.00    +0.041 A 
ATOM     14  C   UNL     1      13.162  11.724  23.028  0.00  0.00    +0.134 A 
ATOM     24  H   UNL     1      10.341  11.270  21.684  0.00  0.00    +0.167 HD
BRANCH  11  10
ATOM     10  C   UNL     1      11.344  13.585  22.881  0.00  0.00    +0.004 C 
ATOM     15  C   UNL     1      10.374  13.738  24.110  0.00  0.00    +0.017 C 
ATOM     16  C   UNL     1      12.436  14.689  23.099  0.00  0.00    +0.017 C 
ATOM     17  C   UNL     1      10.490  14.030  21.645  0.00  0.00    +0.017 C 
ENDBRANCH  11  10
ENDBRANCH   6   9
BRANCH   3  12
ATOM     12  C   UNL     1      13.749   8.485  20.157  0.00  0.00    +0.120 C 
BRANCH  12  18
ATOM      1  F   UNL     1      18.696   5.788  20.129  0.00  0.00    -0.205 F 
ATOM     18  C   UNL     1      15.070   7.764  20.149  0.00  0.00    -0.033 A 
ATOM     19  C   UNL     1      15.388   6.901  19.101  0.00  0.00    +0.008 A 
ATOM     20  C   UNL     1      15.978   7.960  21.191  0.00  0.00    +0.008 A 
ATOM     21  C   UNL     1      16.612   6.233  19.094  0.00  0.00    +0.038 A 
ATOM     22  C   UNL     1      17.202   7.292  21.184  0.00  0.00    +0.038 A 
ATOM     23  C   UNL     1      17.519   6.428  20.135  0.00  0.00    +0.123 A 
ENDBRANCH  12  18
ENDBRANCH   3  12
TORSDOF 4
ENDMDL
MODEL 4
REMARK VINA RESULT:      -6.1      3.578      5.879
REMARK  Name = 75367193
REMARK  7 active torsions:
REMARK  status: ('A' for Active; 'I' for Inactive)
REMARK    1  A    between atoms: N_3  and  C_12
REMARK    2  A    between atoms: C_6  and  C_9
REMARK    3  A    between atoms: C_10  and  C_11
REMARK    4  A    between atoms: C_10  and  C_15
REMARK    5  A    between atoms: C_10  and  C_16
REMARK    6  A    between atoms: C_10  and  C_17
REMARK    7  A    between atoms: C_12  and  C_18
REMARK                            x       y       z     vdW  Elec       q    Type
REMARK                         _______ _______ _______ _____ _____    ______ ____
ROOT
ATOM      2  O   UNL     1      10.300   7.023  21.768  0.00  0.00    -0.377 OA
ATOM      3  N   UNL     1      12.900   7.885  20.931  0.00  0.00    -0.285 NA
ATOM      6  C   UNL     1      11.801   8.857  21.163  0.00  0.00    +0.149 C 
ATOM      7  C   UNL     1      10.802   8.291  22.192  0.00  0.00    +0.186 C 
ATOM      8  C   UNL     1      12.347   6.566  20.574  0.00  0.00    +0.113 C 
ATOM     13  C   UNL     1      11.366   6.086  21.633  0.00  0.00    +0.175 C 
ENDROOT
BRANCH   6   9
ATOM      4  N   UNL     1      12.641  10.431  22.942  0.00  0.00    -0.344 N 
ATOM      5  N   UNL     1      12.411  11.308  20.914  0.00  0.00    -0.239 NA
ATOM      9  C   UNL     1      12.282  10.219  21.640  0.00  0.00    +0.127 A 
ATOM     11  C   UNL     1      13.024  11.739  23.054  0.00  0.00    +0.041 A 
ATOM     14  C   UNL     1      12.873  12.259  21.790  0.00  0.00    +0.134 A 
ATOM     24  H   UNL     1      12.630   9.745  23.684  0.00  0.00    +0.167 HD
BRANCH  11  10
ATOM     10  C   UNL     1      13.477  12.328  24.323  0.00  0.00    +0.004 C 
ATOM     15  C   UNL     1      12.412  12.385  25.479  0.00  0.00    +0.017 C 
ATOM     16  C   UNL     1      14.686  11.539  24.936  0.00  0.00    +0.017 C 
ATOM     17  C   UNL     1      13.948  13.812  24.144  0.00  0.00    +0.017 C 
ENDBRANCH  11  10
ENDBRANCH   6   9
BRANCH   3  12
ATOM     12  C   UNL     1      13.814   8.326  19.871  0.00  0.00    +0.120 C 
BRANCH  12  18
ATOM      1  F   UNL     1      18.838   5.805  20.250  0.00  0.00    -0.205 F 
ATOM     18  C   UNL     1      15.157   7.653  19.973  0.00  0.00    -0.033 A 
ATOM     19  C   UNL     1      16.002   7.942  21.042  0.00  0.00    +0.008 A 
ATOM     20  C   UNL     1      15.554   6.739  18.996  0.00  0.00    +0.008 A 
ATOM     21  C   UNL     1      17.247   7.318  21.137  0.00  0.00    +0.038 A 
ATOM     22  C   UNL     1      16.798   6.116  19.090  0.00  0.00    +0.038 A 
ATOM     23  C   UNL     1      17.644   6.405  20.160  0.00  0.00    +0.123 A 
ENDBRANCH  12  18
ENDBRANCH   3  12
TORSDOF 4
ENDMDL
MODEL 5
REMARK VINA RESULT:      -5.7      1.908      2.999
REMARK  Name = 75367193
REMARK  7 active torsions:
REMARK  status: ('A' for Active; 'I' for Inactive)
REMARK    1  A    between atoms: N_3  and  C_12
REMARK    2  A    between atoms: C_6  and  C_9
REMARK    3  A    between atoms: C_10  and  C_11
REMARK    4  A    between atoms: C_10  and  C_15
REMARK    5  A    between atoms: C_10  and  C_16
REMARK    6  A    between atoms: C_10  and  C_17
REMARK    7  A    between atoms: C_12  and  C_18
REMARK                            x       y       z     vdW  Elec       q    Type
REMARK                         _______ _______ _______ _____ _____    ______ ____
ROOT
ATOM      2  O   UNL     1      14.829  11.065  15.855  0.00  0.00    -0.377 OA
ATOM      3  N   UNL     1      13.460   9.124  17.454  0.00  0.00    -0.285 NA
ATOM      6  C   UNL     1      14.744   9.723  17.897  0.00  0.00    +0.149 C 
ATOM      7  C   UNL     1      14.917  11.124  17.278  0.00  0.00    +0.186 C 
ATOM      8  C   UNL     1      13.365   9.151  15.984  0.00  0.00    +0.113 C 
ATOM     13  C   UNL     1      13.556  10.566  15.455  0.00  0.00    +0.175 C 
ENDROOT
BRANCH   6   9
ATOM      4  N   UNL     1      14.086  10.677  20.134  0.00  0.00    -0.344 N 
ATOM      5  N   UNL     1      15.717   9.170  20.175  0.00  0.00    -0.239 NA
ATOM      9  C   UNL     1      14.877   9.831  19.409  0.00  0.00    +0.127 A 
ATOM     11  C   UNL     1      14.443  10.547  21.448  0.00  0.00    +0.041 A 
ATOM     14  C   UNL     1      15.451   9.612  21.447  0.00  0.00    +0.134 A 
ATOM     24  H   UNL     1      13.365  11.284  19.767  0.00  0.00    +0.167 HD
BRANCH  11  10
ATOM     10  C   UNL     1      13.797  11.312  22.525  0.00  0.00    +0.004 C 
ATOM     15  C   UNL     1      13.567  12.843  22.246  0.00  0.00    +0.017 C 
ATOM     16  C   UNL     1      12.372  10.753  22.868  0.00  0.00    +0.017 C 
ATOM     17  C   UNL     1      14.630  11.272  23.852  0.00  0.00    +0.017 C 
ENDBRANCH  11  10
ENDBRANCH   6   9
BRANCH   3  12
ATOM     12  C   UNL     1      13.303   7.742  17.921  0.00  0.00    +0.120 C 
BRANCH  12  18
ATOM      1  F   UNL     1      10.259   7.453  22.653  0.00  0.00    -0.205 F 
ATOM     18  C   UNL     1      12.489   7.666  19.186  0.00  0.00    -0.033 A 
ATOM     19  C   UNL     1      11.394   8.510  19.362  0.00  0.00    +0.008 A 
ATOM     20  C   UNL     1      12.832   6.749  20.180  0.00  0.00    +0.008 A 
ATOM     21  C   UNL     1      10.640   8.439  20.534  0.00  0.00    +0.038 A 
ATOM     22  C   UNL     1      12.078   6.679  21.352  0.00  0.00    +0.038 A 
ATOM     23  C   UNL     1      10.982   7.524  21.529  0.00  0.00    +0.123 A 
ENDBRANCH  12  18
ENDBRANCH   3  12
TORSDOF 4
ENDMDL
MODEL 6
REMARK VINA RESULT:      -5.6     26.447     28.604
REMARK  Name = 75367193
REMARK  7 active torsions:
REMARK  status: ('A' for Active; 'I' for Inactive)
REMARK    1  A    between atoms: N_3  and  C_12
REMARK    2  A    between atoms: C_6  and  C_9
REMARK    3  A    between atoms: C_10  and  C_11
REMARK    4  A    between atoms: C_10  and  C_15
REMARK    5  A    between atoms: C_10  and  C_16
REMARK    6  A    between atoms: C_10  and  C_17
REMARK    7  A    between atoms: C_12  and  C_18
REMARK                            x       y       z     vdW  Elec       q    Type
REMARK                         _______ _______ _______ _____ _____    ______ ____
ROOT
ATOM      2  O   UNL     1      -1.420 -16.911  13.894  0.00  0.00    -0.377 OA
ATOM      3  N   UNL     1      -2.629 -14.685  12.558  0.00  0.00    -0.285 NA
ATOM      6  C   UNL     1      -3.239 -15.281  13.774  0.00  0.00    +0.149 C 
ATOM      7  C   UNL     1      -2.151 -15.940  14.644  0.00  0.00    +0.186 C 
ATOM      8  C   UNL     1      -1.817 -15.690  11.850  0.00  0.00    +0.113 C 
ATOM     13  C   UNL     1      -0.776 -16.297  12.781  0.00  0.00    +0.175 C 
ENDROOT
BRANCH   6   9
ATOM      4  N   UNL     1      -3.383 -13.232  15.233  0.00  0.00    -0.344 N 
ATOM      5  N   UNL     1      -5.302 -14.287  14.868  0.00  0.00    -0.239 NA
ATOM      9  C   UNL     1      -4.011 -14.281  14.622  0.00  0.00    +0.127 A 
ATOM     11  C   UNL     1      -4.334 -12.523  15.912  0.00  0.00    +0.041 A 
ATOM     14  C   UNL     1      -5.510 -13.194  15.672  0.00  0.00    +0.134 A 
ATOM     24  H   UNL     1      -2.395 -13.017  15.187  0.00  0.00    +0.167 HD
BRANCH  11  10
ATOM     10  C   UNL     1      -4.020 -11.318  16.694  0.00  0.00    +0.004 C 
ATOM     15  C   UNL     1      -4.037 -11.483  18.258  0.00  0.00    +0.017 C 
ATOM     16  C   UNL     1      -2.588 -10.766  16.369  0.00  0.00    +0.017 C 
ATOM     17  C   UNL     1      -5.030 -10.154  16.407  0.00  0.00    +0.017 C 
ENDBRANCH  11  10
ENDBRANCH   6   9
BRANCH   3  12
ATOM     12  C   UNL     1      -3.639 -14.148  11.639  0.00  0.00    +0.120 C 
BRANCH  12  18
ATOM      1  F   UNL     1      -2.683  -8.736  10.396  0.00  0.00    -0.205 F 
ATOM     18  C   UNL     1      -3.383 -12.702  11.306  0.00  0.00    -0.033 A 
ATOM     19  C   UNL     1      -4.022 -12.115  10.215  0.00  0.00    +0.008 A 
ATOM     20  C   UNL     1      -2.508 -11.951  12.091  0.00  0.00    +0.008 A 
ATOM     21  C   UNL     1      -3.785 -10.775   9.907  0.00  0.00    +0.038 A 
ATOM     22  C   UNL     1      -2.271 -10.611  11.782  0.00  0.00    +0.038 A 
ATOM     23  C   UNL     1      -2.910 -10.023  10.690  0.00  0.00    +0.123 A 
ENDBRANCH  12  18
ENDBRANCH   3  12
TORSDOF 4
ENDMDL
MODEL 7
REMARK VINA RESULT:      -5.6     25.482     27.913
REMARK  Name = 75367193
REMARK  7 active torsions:
REMARK  status: ('A' for Active; 'I' for Inactive)
REMARK    1  A    between atoms: N_3  and  C_12
REMARK    2  A    between atoms: C_6  and  C_9
REMARK    3  A    between atoms: C_10  and  C_11
REMARK    4  A    between atoms: C_10  and  C_15
REMARK    5  A    between atoms: C_10  and  C_16
REMARK    6  A    between atoms: C_10  and  C_17
REMARK    7  A    between atoms: C_12  and  C_18
REMARK                            x       y       z     vdW  Elec       q    Type
REMARK                         _______ _______ _______ _____ _____    ______ ____
ROOT
ATOM      2  O   UNL     1      -1.422 -10.684  16.351  0.00  0.00    -0.377 OA
ATOM      3  N   UNL     1      -3.066 -10.654  14.007  0.00  0.00    -0.285 NA
ATOM      6  C   UNL     1      -3.403 -11.504  15.176  0.00  0.00    +0.149 C 
ATOM      7  C   UNL     1      -2.831 -10.883  16.466  0.00  0.00    +0.186 C 
ATOM      8  C   UNL     1      -1.615 -10.401  13.962  0.00  0.00    +0.113 C 
ATOM     13  C   UNL     1      -1.130  -9.798  15.273  0.00  0.00    +0.175 C 
ENDROOT
BRANCH   6   9
ATOM      4  N   UNL     1      -5.753 -10.682  15.571  0.00  0.00    -0.344 N 
ATOM      5  N   UNL     1      -5.531 -12.879  15.335  0.00  0.00    -0.239 NA
ATOM      9  C   UNL     1      -4.898 -11.726  15.357  0.00  0.00    +0.127 A 
ATOM     11  C   UNL     1      -7.012 -11.200  15.692  0.00  0.00    +0.041 A 
ATOM     14  C   UNL     1      -6.849 -12.557  15.543  0.00  0.00    +0.134 A 
ATOM     24  H   UNL     1      -5.499  -9.704  15.624  0.00  0.00    +0.167 HD
BRANCH  11  10
ATOM     10  C   UNL     1      -8.196 -10.361  15.931  0.00  0.00    +0.004 C 
ATOM     15  C   UNL     1      -8.776  -9.609  14.677  0.00  0.00    +0.017 C 
ATOM     16  C   UNL     1      -9.403 -11.195  16.486  0.00  0.00    +0.017 C 
ATOM     17  C   UNL     1      -7.910  -9.228  16.975  0.00  0.00    +0.017 C 
ENDBRANCH  11  10
ENDBRANCH   6   9
BRANCH   3  12
ATOM     12  C   UNL     1      -3.487 -11.262  12.740  0.00  0.00    +0.120 C 
BRANCH  12  18
ATOM      1  F   UNL     1      -5.783  -7.479   9.253  0.00  0.00    -0.205 F 
ATOM     18  C   UNL     1      -4.101 -10.252  11.808  0.00  0.00    -0.033 A 
ATOM     19  C   UNL     1      -5.367  -9.734  12.078  0.00  0.00    +0.008 A 
ATOM     20  C   UNL     1      -3.402  -9.833  10.675  0.00  0.00    +0.008 A 
ATOM     21  C   UNL     1      -5.936  -8.797  11.215  0.00  0.00    +0.038 A 
ATOM     22  C   UNL     1      -3.972  -8.897   9.812  0.00  0.00    +0.038 A 
ATOM     23  C   UNL     1      -5.238  -8.379  10.082  0.00  0.00    +0.123 A 
ENDBRANCH  12  18
ENDBRANCH   3  12
TORSDOF 4
ENDMDL
MODEL 8
REMARK VINA RESULT:      -5.5     13.038     16.289
REMARK  Name = 75367193
REMARK  7 active torsions:
REMARK  status: ('A' for Active; 'I' for Inactive)
REMARK    1  A    between atoms: N_3  and  C_12
REMARK    2  A    between atoms: C_6  and  C_9
REMARK    3  A    between atoms: C_10  and  C_11
REMARK    4  A    between atoms: C_10  and  C_15
REMARK    5  A    between atoms: C_10  and  C_16
REMARK    6  A    between atoms: C_10  and  C_17
REMARK    7  A    between atoms: C_12  and  C_18
REMARK                            x       y       z     vdW  Elec       q    Type
REMARK                         _______ _______ _______ _____ _____    ______ ____
ROOT
ATOM      2  O   UNL     1      16.180   8.449   5.056  0.00  0.00    -0.377 OA
ATOM      3  N   UNL     1      13.465   7.600   5.381  0.00  0.00    -0.285 NA
ATOM      6  C   UNL     1      13.996   7.998   4.053  0.00  0.00    +0.149 C 
ATOM      7  C   UNL     1      15.518   7.758   3.997  0.00  0.00    +0.186 C 
ATOM      8  C   UNL     1      14.221   8.268   6.454  0.00  0.00    +0.113 C 
ATOM     13  C   UNL     1      15.712   7.989   6.321  0.00  0.00    +0.175 C 
ENDROOT
BRANCH   6   9
ATOM      4  N   UNL     1      13.144   5.918   2.915  0.00  0.00    -0.344 N 
ATOM      5  N   UNL     1      12.897   7.806   1.773  0.00  0.00    -0.239 NA
ATOM      9  C   UNL     1      13.339   7.270   2.890  0.00  0.00    +0.127 A 
ATOM     11  C   UNL     1      12.539   5.568   1.740  0.00  0.00    +0.041 A 
ATOM     14  C   UNL     1      12.397   6.751   1.053  0.00  0.00    +0.134 A 
ATOM     24  H   UNL     1      13.397   5.291   3.668  0.00  0.00    +0.167 HD
BRANCH  11  10
ATOM     10  C   UNL     1      12.175   4.181   1.416  0.00  0.00    +0.004 C 
ATOM     15  C   UNL     1      11.397   3.966   0.066  0.00  0.00    +0.017 C 
ATOM     16  C   UNL     1      13.436   3.256   1.298  0.00  0.00    +0.017 C 
ATOM     17  C   UNL     1      11.250   3.547   2.511  0.00  0.00    +0.017 C 
ENDBRANCH  11  10
ENDBRANCH   6   9
BRANCH   3  12
ATOM     12  C   UNL     1      12.040   7.919   5.526  0.00  0.00    +0.120 C 
BRANCH  12  18
ATOM      1  F   UNL     1       9.241   3.849   8.235  0.00  0.00    -0.205 F 
ATOM     18  C   UNL     1      11.292   6.832   6.249  0.00  0.00    -0.033 A 
ATOM     19  C   UNL     1      10.705   5.792   5.529  0.00  0.00    +0.008 A 
ATOM     20  C   UNL     1      11.186   6.865   7.640  0.00  0.00    +0.008 A 
ATOM     21  C   UNL     1      10.012   4.784   6.200  0.00  0.00    +0.038 A 
ATOM     22  C   UNL     1      10.492   5.857   8.310  0.00  0.00    +0.038 A 
ATOM     23  C   UNL     1       9.905   4.817   7.590  0.00  0.00    +0.123 A 
ENDBRANCH  12  18
ENDBRANCH   3  12
TORSDOF 4
ENDMDL
MODEL 9
REMARK VINA RESULT:      -5.4     26.496     27.896
REMARK  Name = 75367193
REMARK  7 active torsions:
REMARK  status: ('A' for Active; 'I' for Inactive)
REMARK    1  A    between atoms: N_3  and  C_12
REMARK    2  A    between atoms: C_6  and  C_9
REMARK    3  A    between atoms: C_10  and  C_11
REMARK    4  A    between atoms: C_10  and  C_15
REMARK    5  A    between atoms: C_10  and  C_16
REMARK    6  A    between atoms: C_10  and  C_17
REMARK    7  A    between atoms: C_12  and  C_18
REMARK                            x       y       z     vdW  Elec       q    Type
REMARK                         _______ _______ _______ _____ _____    ______ ____
ROOT
ATOM      2  O   UNL     1      -2.673 -15.329  12.396  0.00  0.00    -0.377 OA
ATOM      3  N   UNL     1      -3.194 -12.936  13.880  0.00  0.00    -0.285 NA
ATOM      6  C   UNL     1      -2.507 -12.895  12.564  0.00  0.00    +0.149 C 
ATOM      7  C   UNL     1      -2.931 -14.105  11.708  0.00  0.00    +0.186 C 
ATOM      8  C   UNL     1      -2.975 -14.241  14.529  0.00  0.00    +0.113 C 
ATOM     13  C   UNL     1      -3.409 -15.379  13.616  0.00  0.00    +0.175 C 
ENDROOT
BRANCH   6   9
ATOM      4  N   UNL     1      -3.959 -11.410  11.137  0.00  0.00    -0.344 N 
ATOM      5  N   UNL     1      -1.945 -10.608  11.619  0.00  0.00    -0.239 NA
ATOM      9  C   UNL     1      -2.771 -11.619  11.779  0.00  0.00    +0.127 A 
ATOM     11  C   UNL     1      -3.888 -10.187  10.529  0.00  0.00    +0.041 A 
ATOM     14  C   UNL     1      -2.636  -9.712  10.841  0.00  0.00    +0.134 A 
ATOM     24  H   UNL     1      -4.748 -12.043  11.119  0.00  0.00    +0.167 HD
BRANCH  11  10
ATOM     10  C   UNL     1      -4.995  -9.627   9.740  0.00  0.00    +0.004 C 
ATOM     15  C   UNL     1      -4.851  -9.727   8.177  0.00  0.00    +0.017 C 
ATOM     16  C   UNL     1      -6.358 -10.334  10.058  0.00  0.00    +0.017 C 
ATOM     17  C   UNL     1      -5.201  -8.099  10.021  0.00  0.00    +0.017 C 
ENDBRANCH  11  10
ENDBRANCH   6   9
BRANCH   3  12
ATOM     12  C   UNL     1      -2.735 -11.870  14.777  0.00  0.00    +0.120 C 
BRANCH  12  18
ATOM      1  F   UNL     1      -7.044  -9.065  17.083  0.00  0.00    -0.205 F 
ATOM     18  C   UNL     1      -3.886 -11.120  15.393  0.00  0.00    -0.033 A 
ATOM     19  C   UNL     1      -4.877 -10.574  14.579  0.00  0.00    +0.008 A 
ATOM     20  C   UNL     1      -3.961 -10.973  16.778  0.00  0.00    +0.008 A 
ATOM     21  C   UNL     1      -5.945  -9.879  15.149  0.00  0.00    +0.038 A 
ATOM     22  C   UNL     1      -5.028 -10.278  17.349  0.00  0.00    +0.038 A 
ATOM     23  C   UNL     1      -6.019  -9.731  16.534  0.00  0.00    +0.123 A 
ENDBRANCH  12  18
ENDBRANCH   3  12
TORSDOF 4
ENDMDL
MODEL 10
REMARK VINA RESULT:      -5.4     14.229     16.043
REMARK  Name = 75367193
REMARK  7 active torsions:
REMARK  status: ('A' for Active; 'I' for Inactive)
REMARK    1  A    between atoms: N_3  and  C_12
REMARK    2  A    between atoms: C_6  and  C_9
REMARK    3  A    between atoms: C_10  and  C_11
REMARK    4  A    between atoms: C_10  and  C_15
REMARK    5  A    between atoms: C_10  and  C_16
REMARK    6  A    between atoms: C_10  and  C_17
REMARK    7  A    between atoms: C_12  and  C_18
REMARK                            x       y       z     vdW  Elec       q    Type
REMARK                         _______ _______ _______ _____ _____    ______ ____
ROOT
ATOM      2  O   UNL     1      20.580  -7.818  23.354  0.00  0.00    -0.377 OA
ATOM      3  N   UNL     1      18.656  -5.698  23.422  0.00  0.00    -0.285 NA
ATOM      6  C   UNL     1      18.445  -6.958  24.179  0.00  0.00    +0.149 C 
ATOM      7  C   UNL     1      19.802  -7.598  24.531  0.00  0.00    +0.186 C 
ATOM      8  C   UNL     1      19.528  -5.942  22.259  0.00  0.00    +0.113 C 
ATOM     13  C   UNL     1      20.839  -6.583  22.691  0.00  0.00    +0.175 C 
ENDROOT
BRANCH   6   9
ATOM      4  N   UNL     1      18.115  -6.022  26.495  0.00  0.00    -0.344 N 
ATOM      5  N   UNL     1      16.455  -7.278  25.722  0.00  0.00    -0.239 NA
ATOM      9  C   UNL     1      17.640  -6.773  25.457  0.00  0.00    +0.127 A 
ATOM     11  C   UNL     1      17.173  -6.048  27.486  0.00  0.00    +0.041 A 
ATOM     14  C   UNL     1      16.158  -6.830  26.985  0.00  0.00    +0.134 A 
ATOM     24  H   UNL     1      19.000  -5.532  26.523  0.00  0.00    +0.167 HD
BRANCH  11  10
ATOM     10  C   UNL     1      17.345  -5.343  28.765  0.00  0.00    +0.004 C 
ATOM     15  C   UNL     1      16.102  -5.345  29.729  0.00  0.00    +0.017 C 
ATOM     16  C   UNL     1      18.510  -5.954  29.618  0.00  0.00    +0.017 C 
ATOM     17  C   UNL     1      17.683  -3.827  28.557  0.00  0.00    +0.017 C 
ENDBRANCH  11  10
ENDBRANCH   6   9
BRANCH   3  12
ATOM     12  C   UNL     1      17.393  -5.111  22.961  0.00  0.00    +0.120 C 
BRANCH  12  18
ATOM      1  F   UNL     1      16.824   0.235  24.646  0.00  0.00    -0.205 F 
ATOM     18  C   UNL     1      17.240  -3.683  23.411  0.00  0.00    -0.033 A 
ATOM     19  C   UNL     1      16.640  -3.399  24.637  0.00  0.00    +0.008 A 
ATOM     20  C   UNL     1      17.700  -2.644  22.602  0.00  0.00    +0.008 A 
ATOM     21  C   UNL     1      16.499  -2.075  25.055  0.00  0.00    +0.038 A 
ATOM     22  C   UNL     1      17.558  -1.320  23.019  0.00  0.00    +0.038 A 
ATOM     23  C   UNL     1      16.958  -1.036  24.246  0.00  0.00    +0.123 A 
ENDBRANCH  12  18
ENDBRANCH   3  12
TORSDOF 4
ENDMDL
