MODEL 1
REMARK VINA RESULT:      -7.4      0.000      0.000
REMARK  Name = 40776827
REMARK  11 active torsions:
REMARK  status: ('A' for Active; 'I' for Inactive)
REMARK    1  A    between atoms: O_1  and  C_16
REMARK    2  A    between atoms: O_1  and  C_21
REMARK    3  A    between atoms: O_3  and  C_29
REMARK    4  A    between atoms: O_3  and  C_35
REMARK    5  A    between atoms: N_8  and  C_26
REMARK    6  A    between atoms: C_10  and  C_17
REMARK    7  A    between atoms: C_11  and  C_16
REMARK    8  A    between atoms: C_19  and  C_22
REMARK    9  A    between atoms: C_20  and  C_23
REMARK   10  A    between atoms: C_34  and  C_36
REMARK   11  A    between atoms: C_36  and  C_37
REMARK                            x       y       z     vdW  Elec       q    Type
REMARK                         _______ _______ _______ _____ _____    ______ ____
ROOT
ATOM      5  N   UNL     1      11.708  12.409  25.606  0.00  0.00    -0.296 NA
ATOM      9  C   UNL     1      11.032  12.994  23.160  0.00  0.00    +0.002 C 
ATOM     10  C   UNL     1      10.719  11.504  23.468  0.00  0.00    +0.055 C 
ATOM     11  C   UNL     1      12.834  13.095  24.918  0.00  0.00    +0.095 C 
ATOM     12  C   UNL     1      12.530  13.265  23.414  0.00  0.00    +0.026 C 
ATOM     13  C   UNL     1      10.240  13.837  24.183  0.00  0.00    +0.019 C 
ATOM     14  C   UNL     1      11.331  11.181  24.861  0.00  0.00    +0.094 C 
ATOM     15  C   UNL     1      10.545  13.328  25.602  0.00  0.00    +0.085 C 
ENDROOT
BRANCH  10  17
ATOM      6  N   UNL     1      10.621   9.211  22.623  0.00  0.00    -0.237 NA
ATOM      7  N   UNL     1      11.710   8.548  20.578  0.00  0.00    -0.232 NA
ATOM     17  C   UNL     1      11.085  10.461  22.422  0.00  0.00    +0.050 A 
ATOM     18  C   UNL     1      11.856  10.827  21.337  0.00  0.00    +0.052 A 
ATOM     19  C   UNL     1      12.139   9.819  20.438  0.00  0.00    +0.075 A 
ATOM     20  C   UNL     1      10.966   8.318  21.677  0.00  0.00    +0.127 A 
ATOM     23  C   UNL     1      10.474   6.922  21.867  0.00  0.00    +0.088 C 
BRANCH  19  22
ATOM     22  C   UNL     1      12.938  10.072  19.262  0.00  0.00    +0.001 A 
ATOM     24  C   UNL     1      13.398  11.360  18.995  0.00  0.00    +0.013 A 
ATOM     25  C   UNL     1      13.246   9.026  18.392  0.00  0.00    +0.013 A 
ATOM     27  C   UNL     1      14.168  11.605  17.859  0.00  0.00    +0.046 A 
ATOM     28  C   UNL     1      14.016   9.271  17.254  0.00  0.00    +0.046 A 
ATOM     29  C   UNL     1      14.477  10.559  16.988  0.00  0.00    +0.120 A 
BRANCH  29   3
ATOM      3  O   UNL     1      15.227  10.798  15.878  0.00  0.00    -0.495 OA
ATOM     35  C   UNL     1      14.630  11.589  14.850  0.00  0.00    +0.277 C 
ENDBRANCH  29   3
ENDBRANCH  19  22
ENDBRANCH  10  17
BRANCH  11  16
ATOM     16  C   UNL     1      14.174  12.397  25.155  0.00  0.00    +0.252 C 
BRANCH  16   1
ATOM      1  O   UNL     1      15.123  12.936  24.255  0.00  0.00    -0.449 OA
BRANCH   1  21
ATOM      2  O   UNL     1      17.096  12.097  23.461  0.00  0.00    -0.226 OA
ATOM      8  N   UNL     1      15.040  11.103  22.950  0.00  0.00    -0.251 N 
ATOM     21  C   UNL     1      15.876  12.034  23.535  0.00  0.00    +0.405 C 
ATOM     38  H   UNL     1      14.046  11.217  23.128  0.00  0.00    +0.158 HD
BRANCH   8  26
ATOM     26  C   UNL     1      15.396  10.008  22.130  0.00  0.00    +0.036 A 
ATOM     30  C   UNL     1      14.869   8.743  22.387  0.00  0.00    +0.024 A 
ATOM     31  C   UNL     1      16.276  10.193  21.063  0.00  0.00    +0.024 A 
ATOM     32  C   UNL     1      15.220   7.663  21.578  0.00  0.00    +0.013 A 
ATOM     33  C   UNL     1      16.628   9.113  20.253  0.00  0.00    +0.013 A 
ATOM     34  C   UNL     1      16.100   7.848  20.511  0.00  0.00    +0.017 A 
BRANCH  34  36
ATOM      4  O   UNL     1      15.660   6.225  18.857  0.00  0.00    -0.292 OA
ATOM     36  C   UNL     1      16.467   6.721  19.668  0.00  0.00    +0.160 C 
ATOM     37  C   UNL     1      17.862   6.113  19.763  0.00  0.00    +0.091 C 
ENDBRANCH  34  36
ENDBRANCH   8  26
ENDBRANCH   1  21
ENDBRANCH  16   1
ENDBRANCH  11  16
TORSDOF 8
ENDMDL
MODEL 2
REMARK VINA RESULT:      -6.8     27.814     30.642
REMARK  Name = 40776827
REMARK  11 active torsions:
REMARK  status: ('A' for Active; 'I' for Inactive)
REMARK    1  A    between atoms: O_1  and  C_16
REMARK    2  A    between atoms: O_1  and  C_21
REMARK    3  A    between atoms: O_3  and  C_29
REMARK    4  A    between atoms: O_3  and  C_35
REMARK    5  A    between atoms: N_8  and  C_26
REMARK    6  A    between atoms: C_10  and  C_17
REMARK    7  A    between atoms: C_11  and  C_16
REMARK    8  A    between atoms: C_19  and  C_22
REMARK    9  A    between atoms: C_20  and  C_23
REMARK   10  A    between atoms: C_34  and  C_36
REMARK   11  A    between atoms: C_36  and  C_37
REMARK                            x       y       z     vdW  Elec       q    Type
REMARK                         _______ _______ _______ _____ _____    ______ ____
ROOT
ATOM      5  N   UNL     1      -3.775  -9.239  10.748  0.00  0.00    -0.296 NA
ATOM      9  C   UNL     1      -4.756 -11.534  10.004  0.00  0.00    +0.002 C 
ATOM     10  C   UNL     1      -5.757 -10.788  10.928  0.00  0.00    +0.055 C 
ATOM     11  C   UNL     1      -2.778 -10.318  10.981  0.00  0.00    +0.095 C 
ATOM     12  C   UNL     1      -3.411 -11.705  10.741  0.00  0.00    +0.026 C 
ATOM     13  C   UNL     1      -4.494 -10.611   8.794  0.00  0.00    +0.019 C 
ATOM     14  C   UNL     1      -5.026  -9.536  11.489  0.00  0.00    +0.094 C 
ATOM     15  C   UNL     1      -4.089  -9.216   9.300  0.00  0.00    +0.085 C 
ENDROOT
BRANCH  10  17
ATOM      6  N   UNL     1      -6.477 -12.926  11.874  0.00  0.00    -0.237 NA
ATOM      7  N   UNL     1      -7.701 -13.067  13.944  0.00  0.00    -0.232 NA
ATOM     17  C   UNL     1      -6.457 -11.585  12.019  0.00  0.00    +0.050 A 
ATOM     18  C   UNL     1      -7.029 -10.922  13.086  0.00  0.00    +0.052 A 
ATOM     19  C   UNL     1      -7.643 -11.723  14.028  0.00  0.00    +0.075 A 
ATOM     20  C   UNL     1      -7.106 -13.595  12.858  0.00  0.00    +0.127 A 
ATOM     23  C   UNL     1      -7.151 -15.081  12.730  0.00  0.00    +0.088 C 
BRANCH  19  22
ATOM     22  C   UNL     1      -8.280 -11.151  15.190  0.00  0.00    +0.001 A 
ATOM     24  C   UNL     1      -8.993 -11.967  16.068  0.00  0.00    +0.013 A 
ATOM     25  C   UNL     1      -8.184  -9.780  15.434  0.00  0.00    +0.013 A 
ATOM     27  C   UNL     1      -9.611 -11.415  17.190  0.00  0.00    +0.046 A 
ATOM     28  C   UNL     1      -8.802  -9.228  16.556  0.00  0.00    +0.046 A 
ATOM     29  C   UNL     1      -9.514 -10.044  17.433  0.00  0.00    +0.120 A 
BRANCH  29   3
ATOM      3  O   UNL     1     -10.118  -9.505  18.527  0.00  0.00    -0.495 OA
ATOM     35  C   UNL     1     -10.502 -10.405  19.566  0.00  0.00    +0.277 C 
ENDBRANCH  29   3
ENDBRANCH  19  22
ENDBRANCH  10  17
BRANCH  11  16
ATOM     16  C   UNL     1      -2.124 -10.220  12.361  0.00  0.00    +0.252 C 
BRANCH  16   1
ATOM      1  O   UNL     1      -2.127 -11.506  12.949  0.00  0.00    -0.449 OA
BRANCH   1  21
ATOM      2  O   UNL     1      -1.522 -11.743  15.141  0.00  0.00    -0.226 OA
ATOM      8  N   UNL     1      -3.750 -11.410  14.506  0.00  0.00    -0.251 N 
ATOM     21  C   UNL     1      -2.393 -11.570  14.299  0.00  0.00    +0.405 C 
ATOM     38  H   UNL     1      -4.319 -11.278  13.674  0.00  0.00    +0.158 HD
BRANCH   8  26
ATOM     26  C   UNL     1      -4.448 -11.411  15.735  0.00  0.00    +0.036 A 
ATOM     30  C   UNL     1      -4.680 -10.210  16.406  0.00  0.00    +0.024 A 
ATOM     31  C   UNL     1      -4.904 -12.613  16.278  0.00  0.00    +0.024 A 
ATOM     32  C   UNL     1      -5.369 -10.212  17.619  0.00  0.00    +0.013 A 
ATOM     33  C   UNL     1      -5.593 -12.613  17.491  0.00  0.00    +0.013 A 
ATOM     34  C   UNL     1      -5.825 -11.412  18.161  0.00  0.00    +0.017 A 
BRANCH  34  36
ATOM      4  O   UNL     1      -6.413 -10.483  20.248  0.00  0.00    -0.292 OA
ATOM     36  C   UNL     1      -6.542 -11.413  19.426  0.00  0.00    +0.160 C 
ATOM     37  C   UNL     1      -7.476 -12.565  19.780  0.00  0.00    +0.091 C 
ENDBRANCH  34  36
ENDBRANCH   8  26
ENDBRANCH   1  21
ENDBRANCH  16   1
ENDBRANCH  11  16
TORSDOF 8
ENDMDL
MODEL 3
REMARK VINA RESULT:      -6.7     27.063     30.839
REMARK  Name = 40776827
REMARK  11 active torsions:
REMARK  status: ('A' for Active; 'I' for Inactive)
REMARK    1  A    between atoms: O_1  and  C_16
REMARK    2  A    between atoms: O_1  and  C_21
REMARK    3  A    between atoms: O_3  and  C_29
REMARK    4  A    between atoms: O_3  and  C_35
REMARK    5  A    between atoms: N_8  and  C_26
REMARK    6  A    between atoms: C_10  and  C_17
REMARK    7  A    between atoms: C_11  and  C_16
REMARK    8  A    between atoms: C_19  and  C_22
REMARK    9  A    between atoms: C_20  and  C_23
REMARK   10  A    between atoms: C_34  and  C_36
REMARK   11  A    between atoms: C_36  and  C_37
REMARK                            x       y       z     vdW  Elec       q    Type
REMARK                         _______ _______ _______ _____ _____    ______ ____
ROOT
ATOM      5  N   UNL     1      -5.816 -10.459   9.371  0.00  0.00    -0.296 NA
ATOM      9  C   UNL     1      -4.038  -9.070  10.672  0.00  0.00    +0.002 C 
ATOM     10  C   UNL     1      -3.913 -10.578  11.023  0.00  0.00    +0.055 C 
ATOM     11  C   UNL     1      -6.466  -9.303  10.045  0.00  0.00    +0.095 C 
ATOM     12  C   UNL     1      -5.471  -8.590  10.984  0.00  0.00    +0.026 C 
ATOM     13  C   UNL     1      -3.843  -8.951   9.145  0.00  0.00    +0.019 C 
ATOM     14  C   UNL     1      -5.124 -11.307  10.374  0.00  0.00    +0.094 C 
ATOM     15  C   UNL     1      -4.798  -9.925   8.435  0.00  0.00    +0.085 C 
ENDROOT
BRANCH  10  17
ATOM      6  N   UNL     1      -2.674 -10.409  13.125  0.00  0.00    -0.237 NA
ATOM      7  N   UNL     1      -3.331 -11.617  15.104  0.00  0.00    -0.232 NA
ATOM     17  C   UNL     1      -3.723 -10.963  12.483  0.00  0.00    +0.050 A 
ATOM     18  C   UNL     1      -4.608 -11.840  13.076  0.00  0.00    +0.052 A 
ATOM     19  C   UNL     1      -4.360 -12.133  14.402  0.00  0.00    +0.075 A 
ATOM     20  C   UNL     1      -2.539 -10.774  14.414  0.00  0.00    +0.127 A 
ATOM     23  C   UNL     1      -1.388 -10.183  15.157  0.00  0.00    +0.088 C 
BRANCH  19  22
ATOM     22  C   UNL     1      -5.212 -13.039  15.137  0.00  0.00    +0.001 A 
ATOM     24  C   UNL     1      -4.872 -13.417  16.436  0.00  0.00    +0.013 A 
ATOM     25  C   UNL     1      -6.373 -13.537  14.546  0.00  0.00    +0.013 A 
ATOM     27  C   UNL     1      -5.693 -14.293  17.145  0.00  0.00    +0.046 A 
ATOM     28  C   UNL     1      -7.194 -14.414  15.255  0.00  0.00    +0.046 A 
ATOM     29  C   UNL     1      -6.855 -14.792  16.554  0.00  0.00    +0.120 A 
BRANCH  29   3
ATOM      3  O   UNL     1      -7.655 -15.648  17.245  0.00  0.00    -0.495 OA
ATOM     35  C   UNL     1      -9.034 -15.300  17.357  0.00  0.00    +0.277 C 
ENDBRANCH  29   3
ENDBRANCH  19  22
ENDBRANCH  10  17
BRANCH  11  16
ATOM     16  C   UNL     1      -7.753  -9.701  10.772  0.00  0.00    +0.252 C 
BRANCH  16   1
ATOM      1  O   UNL     1      -7.716  -9.153  12.075  0.00  0.00    -0.449 OA
BRANCH   1  21
ATOM      2  O   UNL     1      -8.179 -11.198  12.988  0.00  0.00    -0.226 OA
ATOM      8  N   UNL     1      -7.378  -9.422  14.284  0.00  0.00    -0.251 N 
ATOM     21  C   UNL     1      -7.793 -10.044  13.123  0.00  0.00    +0.405 C 
ATOM     38  H   UNL     1      -7.092  -8.450  14.197  0.00  0.00    +0.158 HD
BRANCH   8  26
ATOM     26  C   UNL     1      -7.301  -9.970  15.586  0.00  0.00    +0.036 A 
ATOM     30  C   UNL     1      -6.187  -9.714  16.385  0.00  0.00    +0.024 A 
ATOM     31  C   UNL     1      -8.339 -10.766  16.069  0.00  0.00    +0.024 A 
ATOM     32  C   UNL     1      -6.113 -10.255  17.669  0.00  0.00    +0.013 A 
ATOM     33  C   UNL     1      -8.264 -11.307  17.353  0.00  0.00    +0.013 A 
ATOM     34  C   UNL     1      -7.150 -11.052  18.152  0.00  0.00    +0.017 A 
BRANCH  34  36
ATOM      4  O   UNL     1      -6.305 -11.140  20.353  0.00  0.00    -0.292 OA
ATOM     36  C   UNL     1      -7.070 -11.616  19.490  0.00  0.00    +0.160 C 
ATOM     37  C   UNL     1      -7.929 -12.818  19.870  0.00  0.00    +0.091 C 
ENDBRANCH  34  36
ENDBRANCH   8  26
ENDBRANCH   1  21
ENDBRANCH  16   1
ENDBRANCH  11  16
TORSDOF 8
ENDMDL
MODEL 4
REMARK VINA RESULT:      -6.6     27.359     30.778
REMARK  Name = 40776827
REMARK  11 active torsions:
REMARK  status: ('A' for Active; 'I' for Inactive)
REMARK    1  A    between atoms: O_1  and  C_16
REMARK    2  A    between atoms: O_1  and  C_21
REMARK    3  A    between atoms: O_3  and  C_29
REMARK    4  A    between atoms: O_3  and  C_35
REMARK    5  A    between atoms: N_8  and  C_26
REMARK    6  A    between atoms: C_10  and  C_17
REMARK    7  A    between atoms: C_11  and  C_16
REMARK    8  A    between atoms: C_19  and  C_22
REMARK    9  A    between atoms: C_20  and  C_23
REMARK   10  A    between atoms: C_34  and  C_36
REMARK   11  A    between atoms: C_36  and  C_37
REMARK                            x       y       z     vdW  Elec       q    Type
REMARK                         _______ _______ _______ _____ _____    ______ ____
ROOT
ATOM      5  N   UNL     1     -18.603   2.888  26.252  0.00  0.00    -0.296 NA
ATOM      9  C   UNL     1     -16.857   0.958  26.147  0.00  0.00    +0.002 C 
ATOM     10  C   UNL     1     -17.237   1.268  27.621  0.00  0.00    +0.055 C 
ATOM     11  C   UNL     1     -17.460   3.283  25.387  0.00  0.00    +0.095 C 
ATOM     12  C   UNL     1     -16.324   2.242  25.477  0.00  0.00    +0.026 C 
ATOM     13  C   UNL     1     -18.166   0.578  25.420  0.00  0.00    +0.019 C 
ATOM     14  C   UNL     1     -18.117   2.550  27.614  0.00  0.00    +0.094 C 
ATOM     15  C   UNL     1     -19.218   1.673  25.666  0.00  0.00    +0.085 C 
ENDROOT
BRANCH  10  17
ATOM      6  N   UNL     1     -15.311   0.265  28.746  0.00  0.00    -0.237 NA
ATOM      7  N   UNL     1     -14.097   1.412  30.483  0.00  0.00    -0.232 NA
ATOM     17  C   UNL     1     -16.119   1.340  28.651  0.00  0.00    +0.050 A 
ATOM     18  C   UNL     1     -15.981   2.473  29.427  0.00  0.00    +0.052 A 
ATOM     19  C   UNL     1     -14.941   2.453  30.334  0.00  0.00    +0.075 A 
ATOM     20  C   UNL     1     -14.336   0.366  29.668  0.00  0.00    +0.127 A 
ATOM     23  C   UNL     1     -13.422  -0.805  29.804  0.00  0.00    +0.088 C 
BRANCH  19  22
ATOM     22  C   UNL     1     -14.691   3.577  31.206  0.00  0.00    +0.001 A 
ATOM     24  C   UNL     1     -13.757   3.467  32.235  0.00  0.00    +0.013 A 
ATOM     25  C   UNL     1     -15.387   4.772  31.019  0.00  0.00    +0.013 A 
ATOM     27  C   UNL     1     -13.516   4.551  33.079  0.00  0.00    +0.046 A 
ATOM     28  C   UNL     1     -15.146   5.856  31.864  0.00  0.00    +0.046 A 
ATOM     29  C   UNL     1     -14.212   5.746  32.892  0.00  0.00    +0.120 A 
BRANCH  29   3
ATOM      3  O   UNL     1     -13.978   6.803  33.716  0.00  0.00    -0.495 OA
ATOM     35  C   UNL     1     -13.233   7.894  33.177  0.00  0.00    +0.277 C 
ENDBRANCH  29   3
ENDBRANCH  19  22
ENDBRANCH  10  17
BRANCH  11  16
ATOM     16  C   UNL     1     -16.963   4.698  25.689  0.00  0.00    +0.252 C 
BRANCH  16   1
ATOM      1  O   UNL     1     -17.573   5.590  24.776  0.00  0.00    -0.449 OA
BRANCH   1  21
ATOM      2  O   UNL     1     -17.436   5.499  22.496  0.00  0.00    -0.226 OA
ATOM      8  N   UNL     1     -15.679   6.322  23.805  0.00  0.00    -0.251 N 
ATOM     21  C   UNL     1     -16.929   5.782  23.574  0.00  0.00    +0.405 C 
ATOM     38  H   UNL     1     -15.433   6.487  24.777  0.00  0.00    +0.158 HD
BRANCH   8  26
ATOM     26  C   UNL     1     -14.693   6.672  22.854  0.00  0.00    +0.036 A 
ATOM     30  C   UNL     1     -13.896   5.683  22.278  0.00  0.00    +0.024 A 
ATOM     31  C   UNL     1     -14.517   8.008  22.492  0.00  0.00    +0.024 A 
ATOM     32  C   UNL     1     -12.924   6.029  21.340  0.00  0.00    +0.013 A 
ATOM     33  C   UNL     1     -13.544   8.354  21.554  0.00  0.00    +0.013 A 
ATOM     34  C   UNL     1     -12.747   7.364  20.979  0.00  0.00    +0.017 A 
BRANCH  34  36
ATOM      4  O   UNL     1     -11.249   6.879  19.223  0.00  0.00    -0.292 OA
ATOM     36  C   UNL     1     -11.732   7.725  20.001  0.00  0.00    +0.160 C 
ATOM     37  C   UNL     1     -11.230   9.162  19.909  0.00  0.00    +0.091 C 
ENDBRANCH  34  36
ENDBRANCH   8  26
ENDBRANCH   1  21
ENDBRANCH  16   1
ENDBRANCH  11  16
TORSDOF 8
ENDMDL
MODEL 5
REMARK VINA RESULT:      -6.6     14.578     18.909
REMARK  Name = 40776827
REMARK  11 active torsions:
REMARK  status: ('A' for Active; 'I' for Inactive)
REMARK    1  A    between atoms: O_1  and  C_16
REMARK    2  A    between atoms: O_1  and  C_21
REMARK    3  A    between atoms: O_3  and  C_29
REMARK    4  A    between atoms: O_3  and  C_35
REMARK    5  A    between atoms: N_8  and  C_26
REMARK    6  A    between atoms: C_10  and  C_17
REMARK    7  A    between atoms: C_11  and  C_16
REMARK    8  A    between atoms: C_19  and  C_22
REMARK    9  A    between atoms: C_20  and  C_23
REMARK   10  A    between atoms: C_34  and  C_36
REMARK   11  A    between atoms: C_36  and  C_37
REMARK                            x       y       z     vdW  Elec       q    Type
REMARK                         _______ _______ _______ _____ _____    ______ ____
ROOT
ATOM      5  N   UNL     1      10.823   5.380   7.924  0.00  0.00    -0.296 NA
ATOM      9  C   UNL     1       9.359   7.366   7.090  0.00  0.00    +0.002 C 
ATOM     10  C   UNL     1       9.263   6.169   6.105  0.00  0.00    +0.055 C 
ATOM     11  C   UNL     1      11.619   6.637   7.930  0.00  0.00    +0.095 C 
ATOM     12  C   UNL     1      10.838   7.780   7.249  0.00  0.00    +0.026 C 
ATOM     13  C   UNL     1       8.884   6.850   8.466  0.00  0.00    +0.019 C 
ATOM     14  C   UNL     1      10.310   5.112   6.557  0.00  0.00    +0.094 C 
ATOM     15  C   UNL     1       9.662   5.573   8.825  0.00  0.00    +0.085 C 
ENDROOT
BRANCH  10  17
ATOM      6  N   UNL     1       8.651   7.528   4.166  0.00  0.00    -0.237 NA
ATOM      7  N   UNL     1       9.442   7.026   1.945  0.00  0.00    -0.232 NA
ATOM     17  C   UNL     1       9.341   6.459   4.613  0.00  0.00    +0.050 A 
ATOM     18  C   UNL     1      10.094   5.637   3.799  0.00  0.00    +0.052 A 
ATOM     19  C   UNL     1      10.108   5.973   2.461  0.00  0.00    +0.075 A 
ATOM     20  C   UNL     1       8.744   7.750   2.841  0.00  0.00    +0.127 A 
ATOM     23  C   UNL     1       7.992   8.923   2.308  0.00  0.00    +0.088 C 
BRANCH  19  22
ATOM     22  C   UNL     1      10.857   5.192   1.504  0.00  0.00    +0.001 A 
ATOM     24  C   UNL     1      10.708   5.431   0.139  0.00  0.00    +0.013 A 
ATOM     25  C   UNL     1      11.729   4.197   1.948  0.00  0.00    +0.013 A 
ATOM     27  C   UNL     1      11.429   4.675  -0.785  0.00  0.00    +0.046 A 
ATOM     28  C   UNL     1      12.450   3.441   1.023  0.00  0.00    +0.046 A 
ATOM     29  C   UNL     1      12.301   3.680  -0.342  0.00  0.00    +0.120 A 
BRANCH  29   3
ATOM      3  O   UNL     1      13.004   2.942  -1.243  0.00  0.00    -0.495 OA
ATOM     35  C   UNL     1      12.742   3.185  -2.625  0.00  0.00    +0.277 C 
ENDBRANCH  29   3
ENDBRANCH  19  22
ENDBRANCH  10  17
BRANCH  11  16
ATOM     16  C   UNL     1      13.008   6.449   7.317  0.00  0.00    +0.252 C 
BRANCH  16   1
ATOM      1  O   UNL     1      13.501   7.718   6.933  0.00  0.00    -0.449 OA
BRANCH   1  21
ATOM      2  O   UNL     1      15.321   8.220   5.644  0.00  0.00    -0.226 OA
ATOM      8  N   UNL     1      13.382   7.286   4.726  0.00  0.00    -0.251 N 
ATOM     21  C   UNL     1      14.182   7.782   5.737  0.00  0.00    +0.405 C 
ATOM     38  H   UNL     1      12.457   6.966   5.001  0.00  0.00    +0.158 HD
BRANCH   8  26
ATOM     26  C   UNL     1      13.688   7.170   3.351  0.00  0.00    +0.036 A 
ATOM     30  C   UNL     1      13.063   8.005   2.425  0.00  0.00    +0.024 A 
ATOM     31  C   UNL     1      14.615   6.220   2.921  0.00  0.00    +0.024 A 
ATOM     32  C   UNL     1      13.366   7.890   1.068  0.00  0.00    +0.013 A 
ATOM     33  C   UNL     1      14.917   6.105   1.564  0.00  0.00    +0.013 A 
ATOM     34  C   UNL     1      14.292   6.940   0.637  0.00  0.00    +0.017 A 
BRANCH  34  36
ATOM      4  O   UNL     1      14.273   7.702  -1.595  0.00  0.00    -0.292 OA
ATOM     36  C   UNL     1      14.605   6.820  -0.777  0.00  0.00    +0.160 C 
ATOM     37  C   UNL     1      15.354   5.598  -1.297  0.00  0.00    +0.091 C 
ENDBRANCH  34  36
ENDBRANCH   8  26
ENDBRANCH   1  21
ENDBRANCH  16   1
ENDBRANCH  11  16
TORSDOF 8
ENDMDL
MODEL 6
REMARK VINA RESULT:      -6.6     27.213     30.349
REMARK  Name = 40776827
REMARK  11 active torsions:
REMARK  status: ('A' for Active; 'I' for Inactive)
REMARK    1  A    between atoms: O_1  and  C_16
REMARK    2  A    between atoms: O_1  and  C_21
REMARK    3  A    between atoms: O_3  and  C_29
REMARK    4  A    between atoms: O_3  and  C_35
REMARK    5  A    between atoms: N_8  and  C_26
REMARK    6  A    between atoms: C_10  and  C_17
REMARK    7  A    between atoms: C_11  and  C_16
REMARK    8  A    between atoms: C_19  and  C_22
REMARK    9  A    between atoms: C_20  and  C_23
REMARK   10  A    between atoms: C_34  and  C_36
REMARK   11  A    between atoms: C_36  and  C_37
REMARK                            x       y       z     vdW  Elec       q    Type
REMARK                         _______ _______ _______ _____ _____    ______ ____
ROOT
ATOM      5  N   UNL     1      -7.459 -11.707  17.882  0.00  0.00    -0.296 NA
ATOM      9  C   UNL     1      -4.991 -11.151  18.500  0.00  0.00    +0.002 C 
ATOM     10  C   UNL     1      -5.394 -10.440  17.179  0.00  0.00    +0.055 C 
ATOM     11  C   UNL     1      -6.715 -12.959  18.183  0.00  0.00    +0.095 C 
ATOM     12  C   UNL     1      -5.208 -12.671  18.349  0.00  0.00    +0.026 C 
ATOM     13  C   UNL     1      -5.972 -10.659  19.587  0.00  0.00    +0.019 C 
ATOM     14  C   UNL     1      -6.795 -10.977  16.772  0.00  0.00    +0.094 C 
ATOM     15  C   UNL     1      -7.415 -10.851  19.091  0.00  0.00    +0.085 C 
ENDROOT
BRANCH  10  17
ATOM      6  N   UNL     1      -3.109 -10.657  16.333  0.00  0.00    -0.237 NA
ATOM      7  N   UNL     1      -2.591 -10.519  13.983  0.00  0.00    -0.232 NA
ATOM     17  C   UNL     1      -4.407 -10.466  16.020  0.00  0.00    +0.050 A 
ATOM     18  C   UNL     1      -4.868 -10.296  14.730  0.00  0.00    +0.052 A 
ATOM     19  C   UNL     1      -3.905 -10.333  13.742  0.00  0.00    +0.075 A 
ATOM     20  C   UNL     1      -2.268 -10.672  15.282  0.00  0.00    +0.127 A 
ATOM     23  C   UNL     1      -0.822 -10.878  15.588  0.00  0.00    +0.088 C 
BRANCH  19  22
ATOM     22  C   UNL     1      -4.257 -10.167  12.352  0.00  0.00    +0.001 A 
ATOM     24  C   UNL     1      -3.270 -10.231  11.369  0.00  0.00    +0.013 A 
ATOM     25  C   UNL     1      -5.586  -9.941  11.992  0.00  0.00    +0.013 A 
ATOM     27  C   UNL     1      -3.609 -10.069  10.027  0.00  0.00    +0.046 A 
ATOM     28  C   UNL     1      -5.926  -9.778  10.649  0.00  0.00    +0.046 A 
ATOM     29  C   UNL     1      -4.938  -9.842   9.667  0.00  0.00    +0.120 A 
BRANCH  29   3
ATOM      3  O   UNL     1      -5.269  -9.682   8.357  0.00  0.00    -0.495 OA
ATOM     35  C   UNL     1      -6.572  -9.171   8.074  0.00  0.00    +0.277 C 
ENDBRANCH  29   3
ENDBRANCH  19  22
ENDBRANCH  10  17
BRANCH  11  16
ATOM     16  C   UNL     1      -6.977 -14.055  17.148  0.00  0.00    +0.252 C 
BRANCH  16   1
ATOM      1  O   UNL     1      -5.731 -14.565  16.714  0.00  0.00    -0.449 OA
BRANCH   1  21
ATOM      2  O   UNL     1      -5.612 -16.086  15.011  0.00  0.00    -0.226 OA
ATOM      8  N   UNL     1      -5.576 -13.781  14.609  0.00  0.00    -0.251 N 
ATOM     21  C   UNL     1      -5.635 -14.921  15.387  0.00  0.00    +0.405 C 
ATOM     38  H   UNL     1      -5.609 -12.895  15.107  0.00  0.00    +0.158 HD
BRANCH   8  26
ATOM     26  C   UNL     1      -5.473 -13.692  13.202  0.00  0.00    +0.036 A 
ATOM     30  C   UNL     1      -4.228 -13.819  12.585  0.00  0.00    +0.024 A 
ATOM     31  C   UNL     1      -6.615 -13.475  12.431  0.00  0.00    +0.024 A 
ATOM     32  C   UNL     1      -4.127 -13.730  11.197  0.00  0.00    +0.013 A 
ATOM     33  C   UNL     1      -6.513 -13.386  11.043  0.00  0.00    +0.013 A 
ATOM     34  C   UNL     1      -5.269 -13.513  10.426  0.00  0.00    +0.017 A 
BRANCH  34  36
ATOM      4  O   UNL     1      -4.078 -13.614   8.392  0.00  0.00    -0.292 OA
ATOM     36  C   UNL     1      -5.161 -13.419   8.979  0.00  0.00    +0.160 C 
ATOM     37  C   UNL     1      -6.387 -13.074   8.138  0.00  0.00    +0.091 C 
ENDBRANCH  34  36
ENDBRANCH   8  26
ENDBRANCH   1  21
ENDBRANCH  16   1
ENDBRANCH  11  16
TORSDOF 8
ENDMDL
MODEL 7
REMARK VINA RESULT:      -6.5     26.593     30.825
REMARK  Name = 40776827
REMARK  11 active torsions:
REMARK  status: ('A' for Active; 'I' for Inactive)
REMARK    1  A    between atoms: O_1  and  C_16
REMARK    2  A    between atoms: O_1  and  C_21
REMARK    3  A    between atoms: O_3  and  C_29
REMARK    4  A    between atoms: O_3  and  C_35
REMARK    5  A    between atoms: N_8  and  C_26
REMARK    6  A    between atoms: C_10  and  C_17
REMARK    7  A    between atoms: C_11  and  C_16
REMARK    8  A    between atoms: C_19  and  C_22
REMARK    9  A    between atoms: C_20  and  C_23
REMARK   10  A    between atoms: C_34  and  C_36
REMARK   11  A    between atoms: C_36  and  C_37
REMARK                            x       y       z     vdW  Elec       q    Type
REMARK                         _______ _______ _______ _____ _____    ______ ____
ROOT
ATOM      5  N   UNL     1      -5.547 -11.344  10.260  0.00  0.00    -0.296 NA
ATOM      9  C   UNL     1      -3.901  -9.489  11.056  0.00  0.00    +0.002 C 
ATOM     10  C   UNL     1      -3.651 -10.809  11.836  0.00  0.00    +0.055 C 
ATOM     11  C   UNL     1      -6.297 -10.098  10.573  0.00  0.00    +0.095 C 
ATOM     12  C   UNL     1      -5.372  -9.058  11.239  0.00  0.00    +0.026 C 
ATOM     13  C   UNL     1      -3.707  -9.813   9.558  0.00  0.00    +0.019 C 
ATOM     14  C   UNL     1      -4.792 -11.795  11.456  0.00  0.00    +0.094 C 
ATOM     15  C   UNL     1      -4.572 -11.030   9.188  0.00  0.00    +0.085 C 
ENDROOT
BRANCH  10  17
ATOM      6  N   UNL     1      -2.207 -10.370  13.760  0.00  0.00    -0.237 NA
ATOM      7  N   UNL     1      -2.997 -10.559  16.029  0.00  0.00    -0.232 NA
ATOM     17  C   UNL     1      -3.438 -10.725  13.341  0.00  0.00    +0.050 A 
ATOM     18  C   UNL     1      -4.486 -11.007  14.193  0.00  0.00    +0.052 A 
ATOM     19  C   UNL     1      -4.205 -10.906  15.540  0.00  0.00    +0.075 A 
ATOM     20  C   UNL     1      -2.058 -10.308  15.097  0.00  0.00    +0.127 A 
ATOM     23  C   UNL     1      -0.707  -9.922  15.600  0.00  0.00    +0.088 C 
BRANCH  19  22
ATOM     22  C   UNL     1      -5.215 -11.178  16.535  0.00  0.00    +0.001 A 
ATOM     24  C   UNL     1      -5.416 -10.286  17.588  0.00  0.00    +0.013 A 
ATOM     25  C   UNL     1      -5.989 -12.335  16.444  0.00  0.00    +0.013 A 
ATOM     27  C   UNL     1      -6.390 -10.549  18.550  0.00  0.00    +0.046 A 
ATOM     28  C   UNL     1      -6.964 -12.599  17.407  0.00  0.00    +0.046 A 
ATOM     29  C   UNL     1      -7.164 -11.706  18.459  0.00  0.00    +0.120 A 
BRANCH  29   3
ATOM      3  O   UNL     1      -8.114 -11.963  19.399  0.00  0.00    -0.495 OA
ATOM     35  C   UNL     1      -8.588 -13.306  19.491  0.00  0.00    +0.277 C 
ENDBRANCH  29   3
ENDBRANCH  19  22
ENDBRANCH  10  17
BRANCH  11  16
ATOM     16  C   UNL     1      -7.549 -10.367  11.409  0.00  0.00    +0.252 C 
BRANCH  16   1
ATOM      1  O   UNL     1      -7.515  -9.526  12.547  0.00  0.00    -0.449 OA
BRANCH   1  21
ATOM      2  O   UNL     1      -9.766  -9.472  12.943  0.00  0.00    -0.226 OA
ATOM      8  N   UNL     1      -8.213  -9.673  14.682  0.00  0.00    -0.251 N 
ATOM     21  C   UNL     1      -8.621  -9.550  13.368  0.00  0.00    +0.405 C 
ATOM     38  H   UNL     1      -7.209  -9.723  14.839  0.00  0.00    +0.158 HD
BRANCH   8  26
ATOM     26  C   UNL     1      -9.019  -9.735  15.842  0.00  0.00    +0.036 A 
ATOM     30  C   UNL     1      -9.023  -8.673  16.746  0.00  0.00    +0.024 A 
ATOM     31  C   UNL     1      -9.811 -10.858  16.082  0.00  0.00    +0.024 A 
ATOM     32  C   UNL     1      -9.818  -8.734  17.890  0.00  0.00    +0.013 A 
ATOM     33  C   UNL     1     -10.606 -10.920  17.226  0.00  0.00    +0.013 A 
ATOM     34  C   UNL     1     -10.609  -9.858  18.130  0.00  0.00    +0.017 A 
BRANCH  34  36
ATOM      4  O   UNL     1     -10.934  -9.979  20.464  0.00  0.00    -0.292 OA
ATOM     36  C   UNL     1     -11.437  -9.921  19.324  0.00  0.00    +0.160 C 
ATOM     37  C   UNL     1     -12.958  -9.921  19.204  0.00  0.00    +0.091 C 
ENDBRANCH  34  36
ENDBRANCH   8  26
ENDBRANCH   1  21
ENDBRANCH  16   1
ENDBRANCH  11  16
TORSDOF 8
ENDMDL
MODEL 8
REMARK VINA RESULT:      -6.5     14.253     19.013
REMARK  Name = 40776827
REMARK  11 active torsions:
REMARK  status: ('A' for Active; 'I' for Inactive)
REMARK    1  A    between atoms: O_1  and  C_16
REMARK    2  A    between atoms: O_1  and  C_21
REMARK    3  A    between atoms: O_3  and  C_29
REMARK    4  A    between atoms: O_3  and  C_35
REMARK    5  A    between atoms: N_8  and  C_26
REMARK    6  A    between atoms: C_10  and  C_17
REMARK    7  A    between atoms: C_11  and  C_16
REMARK    8  A    between atoms: C_19  and  C_22
REMARK    9  A    between atoms: C_20  and  C_23
REMARK   10  A    between atoms: C_34  and  C_36
REMARK   11  A    between atoms: C_36  and  C_37
REMARK                            x       y       z     vdW  Elec       q    Type
REMARK                         _______ _______ _______ _____ _____    ______ ____
ROOT
ATOM      5  N   UNL     1      12.414   6.173   0.071  0.00  0.00    -0.296 NA
ATOM      9  C   UNL     1       9.910   5.472   0.225  0.00  0.00    +0.002 C 
ATOM     10  C   UNL     1      10.102   6.923   0.746  0.00  0.00    +0.055 C 
ATOM     11  C   UNL     1      12.296   4.852   0.745  0.00  0.00    +0.095 C 
ATOM     12  C   UNL     1      10.816   4.516   1.030  0.00  0.00    +0.026 C 
ATOM     13  C   UNL     1      10.415   5.453  -1.235  0.00  0.00    +0.019 C 
ATOM     14  C   UNL     1      11.632   7.193   0.813  0.00  0.00    +0.094 C 
ATOM     15  C   UNL     1      11.834   6.043  -1.287  0.00  0.00    +0.085 C 
ENDROOT
BRANCH  10  17
ATOM      6  N   UNL     1       8.447   8.287   1.922  0.00  0.00    -0.237 NA
ATOM      7  N   UNL     1       8.074   8.092   4.294  0.00  0.00    -0.232 NA
ATOM     17  C   UNL     1       9.388   7.326   2.028  0.00  0.00    +0.050 A 
ATOM     18  C   UNL     1       9.722   6.709   3.216  0.00  0.00    +0.052 A 
ATOM     19  C   UNL     1       9.024   7.136   4.328  0.00  0.00    +0.075 A 
ATOM     20  C   UNL     1       7.839   8.617   3.077  0.00  0.00    +0.127 A 
ATOM     23  C   UNL     1       6.795   9.679   3.000  0.00  0.00    +0.088 C 
BRANCH  19  22
ATOM     22  C   UNL     1       9.281   6.570   5.631  0.00  0.00    +0.001 A 
ATOM     24  C   UNL     1       8.987   7.303   6.781  0.00  0.00    +0.013 A 
ATOM     25  C   UNL     1       9.826   5.290   5.740  0.00  0.00    +0.013 A 
ATOM     27  C   UNL     1       9.237   6.758   8.040  0.00  0.00    +0.046 A 
ATOM     28  C   UNL     1      10.077   4.745   7.000  0.00  0.00    +0.046 A 
ATOM     29  C   UNL     1       9.782   5.478   8.148  0.00  0.00    +0.120 A 
BRANCH  29   3
ATOM      3  O   UNL     1      10.028   4.947   9.377  0.00  0.00    -0.495 OA
ATOM     35  C   UNL     1       8.895   4.636  10.188  0.00  0.00    +0.277 C 
ENDBRANCH  29   3
ENDBRANCH  19  22
ENDBRANCH  10  17
BRANCH  11  16
ATOM     16  C   UNL     1      13.155   4.763   2.008  0.00  0.00    +0.252 C 
BRANCH  16   1
ATOM      1  O   UNL     1      14.245   5.654   1.869  0.00  0.00    -0.449 OA
BRANCH   1  21
ATOM      2  O   UNL     1      15.366   7.328   2.949  0.00  0.00    -0.226 OA
ATOM      8  N   UNL     1      13.180   6.731   3.534  0.00  0.00    -0.251 N 
ATOM     21  C   UNL     1      14.356   6.650   2.813  0.00  0.00    +0.405 C 
ATOM     38  H   UNL     1      12.447   6.077   3.273  0.00  0.00    +0.158 HD
BRANCH   8  26
ATOM     26  C   UNL     1      12.868   7.613   4.594  0.00  0.00    +0.036 A 
ATOM     30  C   UNL     1      13.094   7.223   5.914  0.00  0.00    +0.024 A 
ATOM     31  C   UNL     1      12.334   8.872   4.320  0.00  0.00    +0.024 A 
ATOM     32  C   UNL     1      12.786   8.094   6.959  0.00  0.00    +0.013 A 
ATOM     33  C   UNL     1      12.025   9.742   5.366  0.00  0.00    +0.013 A 
ATOM     34  C   UNL     1      12.251   9.352   6.686  0.00  0.00    +0.017 A 
BRANCH  34  36
ATOM      4  O   UNL     1      12.757  11.091   8.198  0.00  0.00    -0.292 OA
ATOM     36  C   UNL     1      11.929  10.258   7.777  0.00  0.00    +0.160 C 
ATOM     37  C   UNL     1      10.556  10.205   8.439  0.00  0.00    +0.091 C 
ENDBRANCH  34  36
ENDBRANCH   8  26
ENDBRANCH   1  21
ENDBRANCH  16   1
ENDBRANCH  11  16
TORSDOF 8
ENDMDL
MODEL 9
REMARK VINA RESULT:      -6.2     14.603     19.602
REMARK  Name = 40776827
REMARK  11 active torsions:
REMARK  status: ('A' for Active; 'I' for Inactive)
REMARK    1  A    between atoms: O_1  and  C_16
REMARK    2  A    between atoms: O_1  and  C_21
REMARK    3  A    between atoms: O_3  and  C_29
REMARK    4  A    between atoms: O_3  and  C_35
REMARK    5  A    between atoms: N_8  and  C_26
REMARK    6  A    between atoms: C_10  and  C_17
REMARK    7  A    between atoms: C_11  and  C_16
REMARK    8  A    between atoms: C_19  and  C_22
REMARK    9  A    between atoms: C_20  and  C_23
REMARK   10  A    between atoms: C_34  and  C_36
REMARK   11  A    between atoms: C_36  and  C_37
REMARK                            x       y       z     vdW  Elec       q    Type
REMARK                         _______ _______ _______ _____ _____    ______ ____
ROOT
ATOM      5  N   UNL     1      13.759   5.295  -0.768  0.00  0.00    -0.296 NA
ATOM      9  C   UNL     1      11.967   4.009   0.617  0.00  0.00    +0.002 C 
ATOM     10  C   UNL     1      11.373   5.328   0.050  0.00  0.00    +0.055 C 
ATOM     11  C   UNL     1      14.318   4.912   0.556  0.00  0.00    +0.095 C 
ATOM     12  C   UNL     1      13.214   4.335   1.467  0.00  0.00    +0.026 C 
ATOM     13  C   UNL     1      12.449   3.181  -0.594  0.00  0.00    +0.019 C 
ATOM     14  C   UNL     1      12.545   6.130  -0.584  0.00  0.00    +0.094 C 
ATOM     15  C   UNL     1      13.365   4.052  -1.471  0.00  0.00    +0.085 C 
ENDROOT
BRANCH  10  17
ATOM      6  N   UNL     1       9.898   7.245   0.414  0.00  0.00    -0.237 NA
ATOM      7  N   UNL     1       8.976   7.763   2.579  0.00  0.00    -0.232 NA
ATOM     17  C   UNL     1      10.520   6.186   0.973  0.00  0.00    +0.050 A 
ATOM     18  C   UNL     1      10.419   5.857   2.309  0.00  0.00    +0.052 A 
ATOM     19  C   UNL     1       9.625   6.689   3.072  0.00  0.00    +0.075 A 
ATOM     20  C   UNL     1       9.154   7.979   1.262  0.00  0.00    +0.127 A 
ATOM     23  C   UNL     1       8.452   9.161   0.680  0.00  0.00    +0.088 C 
BRANCH  19  22
ATOM     22  C   UNL     1       9.439   6.453   4.484  0.00  0.00    +0.001 A 
ATOM     24  C   UNL     1       9.976   5.311   5.078  0.00  0.00    +0.013 A 
ATOM     25  C   UNL     1       8.721   7.368   5.254  0.00  0.00    +0.013 A 
ATOM     27  C   UNL     1       9.795   5.082   6.441  0.00  0.00    +0.046 A 
ATOM     28  C   UNL     1       8.539   7.139   6.619  0.00  0.00    +0.046 A 
ATOM     29  C   UNL     1       9.076   5.997   7.211  0.00  0.00    +0.120 A 
BRANCH  29   3
ATOM      3  O   UNL     1       8.898   5.773   8.542  0.00  0.00    -0.495 OA
ATOM     35  C   UNL     1       9.793   4.857   9.171  0.00  0.00    +0.277 C 
ENDBRANCH  29   3
ENDBRANCH  19  22
ENDBRANCH  10  17
BRANCH  11  16
ATOM     16  C   UNL     1      15.067   6.065   1.228  0.00  0.00    +0.252 C 
BRANCH  16   1
ATOM      1  O   UNL     1      15.047   5.855   2.626  0.00  0.00    -0.449 OA
BRANCH   1  21
ATOM      2  O   UNL     1      15.587   7.854   3.596  0.00  0.00    -0.226 OA
ATOM      8  N   UNL     1      13.500   6.849   3.926  0.00  0.00    -0.251 N 
ATOM     21  C   UNL     1      14.779   6.953   3.414  0.00  0.00    +0.405 C 
ATOM     38  H   UNL     1      12.976   6.019   3.660  0.00  0.00    +0.158 HD
BRANCH   8  26
ATOM     26  C   UNL     1      12.827   7.753   4.779  0.00  0.00    +0.036 A 
ATOM     30  C   UNL     1      12.233   8.899   4.251  0.00  0.00    +0.024 A 
ATOM     31  C   UNL     1      12.758   7.500   6.149  0.00  0.00    +0.024 A 
ATOM     32  C   UNL     1      11.569   9.791   5.093  0.00  0.00    +0.013 A 
ATOM     33  C   UNL     1      12.095   8.392   6.991  0.00  0.00    +0.013 A 
ATOM     34  C   UNL     1      11.501   9.538   6.463  0.00  0.00    +0.017 A 
BRANCH  34  36
ATOM      4  O   UNL     1      10.934  11.703   7.208  0.00  0.00    -0.292 OA
ATOM     36  C   UNL     1      10.810  10.469   7.340  0.00  0.00    +0.160 C 
ATOM     37  C   UNL     1       9.910   9.949   8.456  0.00  0.00    +0.091 C 
ENDBRANCH  34  36
ENDBRANCH   8  26
ENDBRANCH   1  21
ENDBRANCH  16   1
ENDBRANCH  11  16
TORSDOF 8
ENDMDL
MODEL 10
REMARK VINA RESULT:      -6.2     14.586     19.423
REMARK  Name = 40776827
REMARK  11 active torsions:
REMARK  status: ('A' for Active; 'I' for Inactive)
REMARK    1  A    between atoms: O_1  and  C_16
REMARK    2  A    between atoms: O_1  and  C_21
REMARK    3  A    between atoms: O_3  and  C_29
REMARK    4  A    between atoms: O_3  and  C_35
REMARK    5  A    between atoms: N_8  and  C_26
REMARK    6  A    between atoms: C_10  and  C_17
REMARK    7  A    between atoms: C_11  and  C_16
REMARK    8  A    between atoms: C_19  and  C_22
REMARK    9  A    between atoms: C_20  and  C_23
REMARK   10  A    between atoms: C_34  and  C_36
REMARK   11  A    between atoms: C_36  and  C_37
REMARK                            x       y       z     vdW  Elec       q    Type
REMARK                         _______ _______ _______ _____ _____    ______ ____
ROOT
ATOM      5  N   UNL     1      13.372   5.645  -0.358  0.00  0.00    -0.296 NA
ATOM      9  C   UNL     1      12.526   3.755   1.222  0.00  0.00    +0.002 C 
ATOM     10  C   UNL     1      11.423   4.830   1.022  0.00  0.00    +0.055 C 
ATOM     11  C   UNL     1      14.371   5.394   0.715  0.00  0.00    +0.095 C 
ATOM     12  C   UNL     1      13.801   4.428   1.775  0.00  0.00    +0.026 C 
ATOM     13  C   UNL     1      12.875   3.208  -0.179  0.00  0.00    +0.019 C 
ATOM     14  C   UNL     1      12.065   6.013   0.242  0.00  0.00    +0.094 C 
ATOM     15  C   UNL     1      13.195   4.385  -1.117  0.00  0.00    +0.085 C 
ENDROOT
BRANCH  10  17
ATOM      6  N   UNL     1      10.690   4.503   3.332  0.00  0.00    -0.237 NA
ATOM      7  N   UNL     1       9.267   6.084   4.464  0.00  0.00    -0.232 NA
ATOM     17  C   UNL     1      10.645   5.298   2.243  0.00  0.00    +0.050 A 
ATOM     18  C   UNL     1       9.944   6.485   2.189  0.00  0.00    +0.052 A 
ATOM     19  C   UNL     1       9.267   6.832   3.342  0.00  0.00    +0.075 A 
ATOM     20  C   UNL     1       9.989   4.949   4.390  0.00  0.00    +0.127 A 
ATOM     23  C   UNL     1      10.011   4.095   5.613  0.00  0.00    +0.088 C 
BRANCH  19  22
ATOM     22  C   UNL     1       8.495   8.049   3.414  0.00  0.00    +0.001 A 
ATOM     24  C   UNL     1       8.246   8.788   2.258  0.00  0.00    +0.013 A 
ATOM     25  C   UNL     1       7.998   8.487   4.643  0.00  0.00    +0.013 A 
ATOM     27  C   UNL     1       7.502   9.965   2.328  0.00  0.00    +0.046 A 
ATOM     28  C   UNL     1       7.254   9.665   4.713  0.00  0.00    +0.046 A 
ATOM     29  C   UNL     1       7.006  10.403   3.557  0.00  0.00    +0.120 A 
BRANCH  29   3
ATOM      3  O   UNL     1       6.280  11.553   3.625  0.00  0.00    -0.495 OA
ATOM     35  C   UNL     1       5.096  11.526   4.421  0.00  0.00    +0.277 C 
ENDBRANCH  29   3
ENDBRANCH  19  22
ENDBRANCH  10  17
BRANCH  11  16
ATOM     16  C   UNL     1      14.889   6.689   1.343  0.00  0.00    +0.252 C 
BRANCH  16   1
ATOM      1  O   UNL     1      15.319   6.405   2.661  0.00  0.00    -0.449 OA
BRANCH   1  21
ATOM      2  O   UNL     1      15.542   8.111   4.167  0.00  0.00    -0.226 OA
ATOM      8  N   UNL     1      13.544   6.912   3.949  0.00  0.00    -0.251 N 
ATOM     21  C   UNL     1      14.855   7.236   3.656  0.00  0.00    +0.405 C 
ATOM     38  H   UNL     1      13.140   6.148   3.414  0.00  0.00    +0.158 HD
BRANCH   8  26
ATOM     26  C   UNL     1      12.692   7.512   4.905  0.00  0.00    +0.036 A 
ATOM     30  C   UNL     1      12.116   8.754   4.643  0.00  0.00    +0.024 A 
ATOM     31  C   UNL     1      12.429   6.860   6.110  0.00  0.00    +0.024 A 
ATOM     32  C   UNL     1      11.275   9.345   5.587  0.00  0.00    +0.013 A 
ATOM     33  C   UNL     1      11.589   7.451   7.053  0.00  0.00    +0.013 A 
ATOM     34  C   UNL     1      11.012   8.694   6.792  0.00  0.00    +0.017 A 
BRANCH  34  36
ATOM      4  O   UNL     1       9.043   8.799   8.086  0.00  0.00    -0.292 OA
ATOM     36  C   UNL     1      10.137   9.312   7.775  0.00  0.00    +0.160 C 
ATOM     37  C   UNL     1      10.542  10.617   8.452  0.00  0.00    +0.091 C 
ENDBRANCH  34  36
ENDBRANCH   8  26
ENDBRANCH   1  21
ENDBRANCH  16   1
ENDBRANCH  11  16
TORSDOF 8
ENDMDL
