MODEL 1
REMARK VINA RESULT:      -7.1      0.000      0.000
REMARK  Name = 45783343
REMARK  10 active torsions:
REMARK  status: ('A' for Active; 'I' for Inactive)
REMARK    1  A    between atoms: O_2  and  C_25
REMARK    2  A    between atoms: O_2  and  C_28
REMARK    3  A    between atoms: O_3  and  C_29
REMARK    4  A    between atoms: O_3  and  C_30
REMARK    5  A    between atoms: N_4  and  C_13
REMARK    6  A    between atoms: C_9  and  C_14
REMARK    7  A    between atoms: C_13  and  C_15
REMARK    8  A    between atoms: C_18  and  C_21
REMARK    9  A    between atoms: C_22  and  C_26
REMARK   10  A    between atoms: C_28  and  C_29
REMARK                            x       y       z     vdW  Elec       q    Type
REMARK                         _______ _______ _______ _____ _____    ______ ____
ROOT
ATOM      1  O   UNL     1      13.974   6.640  20.007  0.00  0.00    -0.336 OA
ATOM      5  N   UNL     1      15.762   7.463  18.938  0.00  0.00    -0.190 NA
ATOM      6  N   UNL     1      15.073   6.391  20.838  0.00  0.00    -0.056 NA
ATOM     14  C   UNL     1      14.467   7.273  18.910  0.00  0.00    +0.245 A 
ATOM     18  C   UNL     1      16.090   6.905  20.140  0.00  0.00    +0.202 A 
ENDROOT
BRANCH  18  21
ATOM      7  N   UNL     1      20.082   6.822  21.536  0.00  0.00    -0.221 NA
ATOM     21  C   UNL     1      17.443   6.877  20.613  0.00  0.00    +0.029 A 
ATOM     23  C   UNL     1      18.322   5.898  20.160  0.00  0.00    +0.079 A 
ATOM     24  C   UNL     1      17.883   7.828  21.528  0.00  0.00    +0.031 A 
ATOM     25  C   UNL     1      19.618   5.914  20.648  0.00  0.00    +0.215 A 
ATOM     27  C   UNL     1      19.200   7.757  21.954  0.00  0.00    +0.115 A 
BRANCH  25   2
ATOM      2  O   UNL     1      20.502   4.960  20.217  0.00  0.00    -0.474 OA
BRANCH   2  28
ATOM     28  C   UNL     1      21.761   4.909  20.878  0.00  0.00    +0.258 C 
BRANCH  28  29
ATOM     29  C   UNL     1      21.869   3.601  21.637  0.00  0.00    +0.200 C 
BRANCH  29   3
ATOM      3  O   UNL     1      22.728   3.782  22.756  0.00  0.00    -0.380 OA
ATOM     30  C   UNL     1      22.669   2.674  23.643  0.00  0.00    +0.194 C 
ENDBRANCH  29   3
ENDBRANCH  28  29
ENDBRANCH   2  28
ENDBRANCH  25   2
ENDBRANCH  18  21
BRANCH  14   9
ATOM      4  N   UNL     1      12.600   8.782  18.256  0.00  0.00    -0.287 NA
ATOM      9  C   UNL     1      13.463   7.658  17.844  0.00  0.00    +0.146 C 
ATOM     10  C   UNL     1      14.132   8.134  16.541  0.00  0.00    +0.030 C 
ATOM     11  C   UNL     1      13.538   9.508  16.269  0.00  0.00    +0.017 C 
ATOM     12  C   UNL     1      12.227   9.488  17.029  0.00  0.00    +0.085 C 
BRANCH   4  13
ATOM     13  C   UNL     1      11.433   8.361  19.021  0.00  0.00    +0.120 C 
BRANCH  13  15
ATOM     15  C   UNL     1      11.383   9.019  20.374  0.00  0.00    -0.033 A 
ATOM     16  C   UNL     1      11.984  10.263  20.568  0.00  0.00    +0.006 A 
ATOM     17  C   UNL     1      10.735   8.385  21.434  0.00  0.00    +0.006 A 
ATOM     19  C   UNL     1      11.938  10.872  21.822  0.00  0.00    +0.019 A 
ATOM     20  C   UNL     1      10.689   8.994  22.689  0.00  0.00    +0.019 A 
ATOM     22  C   UNL     1      11.290  10.238  22.882  0.00  0.00    +0.052 A 
BRANCH  22  26
ATOM      8  N   UNL     1      11.203  11.370  25.210  0.00  0.00    -0.191 NA
ATOM     26  C   UNL     1      11.242  10.862  24.166  0.00  0.00    +0.099 C 
ENDBRANCH  22  26
ENDBRANCH  13  15
ENDBRANCH   4  13
ENDBRANCH  14   9
TORSDOF 9
ENDMDL
MODEL 2
REMARK VINA RESULT:      -6.8      2.017      2.395
REMARK  Name = 45783343
REMARK  10 active torsions:
REMARK  status: ('A' for Active; 'I' for Inactive)
REMARK    1  A    between atoms: O_2  and  C_25
REMARK    2  A    between atoms: O_2  and  C_28
REMARK    3  A    between atoms: O_3  and  C_29
REMARK    4  A    between atoms: O_3  and  C_30
REMARK    5  A    between atoms: N_4  and  C_13
REMARK    6  A    between atoms: C_9  and  C_14
REMARK    7  A    between atoms: C_13  and  C_15
REMARK    8  A    between atoms: C_18  and  C_21
REMARK    9  A    between atoms: C_22  and  C_26
REMARK   10  A    between atoms: C_28  and  C_29
REMARK                            x       y       z     vdW  Elec       q    Type
REMARK                         _______ _______ _______ _____ _____    ______ ____
ROOT
ATOM      1  O   UNL     1      15.252   8.822  19.963  0.00  0.00    -0.336 OA
ATOM      5  N   UNL     1      16.159   6.859  19.378  0.00  0.00    -0.190 NA
ATOM      6  N   UNL     1      16.467   8.733  20.653  0.00  0.00    -0.056 NA
ATOM     14  C   UNL     1      15.147   7.678  19.236  0.00  0.00    +0.245 A 
ATOM     18  C   UNL     1      16.943   7.549  20.256  0.00  0.00    +0.202 A 
ENDROOT
BRANCH  18  21
ATOM      7  N   UNL     1      20.640   6.010  21.618  0.00  0.00    -0.221 NA
ATOM     21  C   UNL     1      18.196   7.027  20.718  0.00  0.00    +0.029 A 
ATOM     23  C   UNL     1      18.894   7.678  21.729  0.00  0.00    +0.079 A 
ATOM     24  C   UNL     1      18.720   5.867  20.156  0.00  0.00    +0.031 A 
ATOM     25  C   UNL     1      20.100   7.134  22.140  0.00  0.00    +0.215 A 
ATOM     27  C   UNL     1      19.934   5.404  20.637  0.00  0.00    +0.115 A 
BRANCH  25   2
ATOM      2  O   UNL     1      20.806   7.758  23.136  0.00  0.00    -0.474 OA
BRANCH   2  28
ATOM     28  C   UNL     1      21.124   6.976  24.281  0.00  0.00    +0.258 C 
BRANCH  28  29
ATOM     29  C   UNL     1      20.340   7.498  25.469  0.00  0.00    +0.200 C 
BRANCH  29   3
ATOM      3  O   UNL     1      19.848   6.396  26.222  0.00  0.00    -0.380 OA
ATOM     30  C   UNL     1      20.681   6.114  27.338  0.00  0.00    +0.194 C 
ENDBRANCH  29   3
ENDBRANCH  28  29
ENDBRANCH   2  28
ENDBRANCH  25   2
ENDBRANCH  18  21
BRANCH  14   9
ATOM      4  N   UNL     1      12.797   8.393  18.845  0.00  0.00    -0.287 NA
ATOM      9  C   UNL     1      13.902   7.527  18.389  0.00  0.00    +0.146 C 
ATOM     10  C   UNL     1      14.131   7.926  16.919  0.00  0.00    +0.030 C 
ATOM     11  C   UNL     1      13.071   8.976  16.622  0.00  0.00    +0.017 C 
ATOM     12  C   UNL     1      11.998   8.704  17.659  0.00  0.00    +0.085 C 
BRANCH   4  13
ATOM     13  C   UNL     1      11.995   7.792  19.902  0.00  0.00    +0.120 C 
BRANCH  13  15
ATOM     15  C   UNL     1      11.662   8.784  20.986  0.00  0.00    -0.033 A 
ATOM     16  C   UNL     1      12.077  10.111  20.869  0.00  0.00    +0.006 A 
ATOM     17  C   UNL     1      10.939   8.376  22.106  0.00  0.00    +0.006 A 
ATOM     19  C   UNL     1      11.769  11.029  21.873  0.00  0.00    +0.019 A 
ATOM     20  C   UNL     1      10.631   9.294  23.111  0.00  0.00    +0.019 A 
ATOM     22  C   UNL     1      11.046  10.620  22.993  0.00  0.00    +0.052 A 
BRANCH  22  26
ATOM      8  N   UNL     1      10.474  12.325  24.857  0.00  0.00    -0.191 NA
ATOM     26  C   UNL     1      10.730  11.561  24.021  0.00  0.00    +0.099 C 
ENDBRANCH  22  26
ENDBRANCH  13  15
ENDBRANCH   4  13
ENDBRANCH  14   9
TORSDOF 9
ENDMDL
MODEL 3
REMARK VINA RESULT:      -6.6      1.659      2.339
REMARK  Name = 45783343
REMARK  10 active torsions:
REMARK  status: ('A' for Active; 'I' for Inactive)
REMARK    1  A    between atoms: O_2  and  C_25
REMARK    2  A    between atoms: O_2  and  C_28
REMARK    3  A    between atoms: O_3  and  C_29
REMARK    4  A    between atoms: O_3  and  C_30
REMARK    5  A    between atoms: N_4  and  C_13
REMARK    6  A    between atoms: C_9  and  C_14
REMARK    7  A    between atoms: C_13  and  C_15
REMARK    8  A    between atoms: C_18  and  C_21
REMARK    9  A    between atoms: C_22  and  C_26
REMARK   10  A    between atoms: C_28  and  C_29
REMARK                            x       y       z     vdW  Elec       q    Type
REMARK                         _______ _______ _______ _____ _____    ______ ____
ROOT
ATOM      1  O   UNL     1      15.105   8.737  19.781  0.00  0.00    -0.336 OA
ATOM      5  N   UNL     1      15.976   6.807  19.052  0.00  0.00    -0.190 NA
ATOM      6  N   UNL     1      16.284   8.542  20.511  0.00  0.00    -0.056 NA
ATOM     14  C   UNL     1      14.998   7.671  18.945  0.00  0.00    +0.245 A 
ATOM     18  C   UNL     1      16.740   7.383  20.024  0.00  0.00    +0.202 A 
ENDROOT
BRANCH  18  21
ATOM      7  N   UNL     1      20.320   5.593  21.392  0.00  0.00    -0.221 NA
ATOM     21  C   UNL     1      17.954   6.776  20.488  0.00  0.00    +0.029 A 
ATOM     23  C   UNL     1      18.592   7.268  21.621  0.00  0.00    +0.079 A 
ATOM     24  C   UNL     1      18.498   5.693  19.805  0.00  0.00    +0.031 A 
ATOM     25  C   UNL     1      19.761   6.647  22.028  0.00  0.00    +0.215 A 
ATOM     27  C   UNL     1      19.672   5.143  20.294  0.00  0.00    +0.115 A 
BRANCH  25   2
ATOM      2  O   UNL     1      20.409   7.113  23.143  0.00  0.00    -0.474 OA
BRANCH   2  28
ATOM     28  C   UNL     1      21.758   6.697  23.320  0.00  0.00    +0.258 C 
BRANCH  28  29
ATOM     29  C   UNL     1      22.681   7.845  22.957  0.00  0.00    +0.200 C 
BRANCH  29   3
ATOM      3  O   UNL     1      23.362   7.529  21.749  0.00  0.00    -0.380 OA
ATOM     30  C   UNL     1      22.786   8.198  20.636  0.00  0.00    +0.194 C 
ENDBRANCH  29   3
ENDBRANCH  28  29
ENDBRANCH   2  28
ENDBRANCH  25   2
ENDBRANCH  18  21
BRANCH  14   9
ATOM      4  N   UNL     1      12.705   8.530  18.504  0.00  0.00    -0.287 NA
ATOM      9  C   UNL     1      13.790   7.645  18.034  0.00  0.00    +0.146 C 
ATOM     10  C   UNL     1      14.107   8.136  16.610  0.00  0.00    +0.030 C 
ATOM     11  C   UNL     1      13.112   9.257  16.345  0.00  0.00    +0.017 C 
ATOM     12  C   UNL     1      11.980   8.965  17.310  0.00  0.00    +0.085 C 
BRANCH   4  13
ATOM     13  C   UNL     1      11.826   7.896  19.477  0.00  0.00    +0.120 C 
BRANCH  13  15
ATOM     15  C   UNL     1      11.553   8.794  20.655  0.00  0.00    -0.033 A 
ATOM     16  C   UNL     1      10.833   8.312  21.748  0.00  0.00    +0.006 A 
ATOM     17  C   UNL     1      12.022  10.108  20.653  0.00  0.00    +0.006 A 
ATOM     19  C   UNL     1      10.581   9.144  22.839  0.00  0.00    +0.019 A 
ATOM     20  C   UNL     1      11.769  10.940  21.744  0.00  0.00    +0.019 A 
ATOM     22  C   UNL     1      11.049  10.458  22.837  0.00  0.00    +0.052 A 
BRANCH  22  26
ATOM      8  N   UNL     1      10.580  12.003  24.861  0.00  0.00    -0.191 NA
ATOM     26  C   UNL     1      10.791  11.310  23.954  0.00  0.00    +0.099 C 
ENDBRANCH  22  26
ENDBRANCH  13  15
ENDBRANCH   4  13
ENDBRANCH  14   9
TORSDOF 9
ENDMDL
MODEL 4
REMARK VINA RESULT:      -6.3     26.236     29.666
REMARK  Name = 45783343
REMARK  10 active torsions:
REMARK  status: ('A' for Active; 'I' for Inactive)
REMARK    1  A    between atoms: O_2  and  C_25
REMARK    2  A    between atoms: O_2  and  C_28
REMARK    3  A    between atoms: O_3  and  C_29
REMARK    4  A    between atoms: O_3  and  C_30
REMARK    5  A    between atoms: N_4  and  C_13
REMARK    6  A    between atoms: C_9  and  C_14
REMARK    7  A    between atoms: C_13  and  C_15
REMARK    8  A    between atoms: C_18  and  C_21
REMARK    9  A    between atoms: C_22  and  C_26
REMARK   10  A    between atoms: C_28  and  C_29
REMARK                            x       y       z     vdW  Elec       q    Type
REMARK                         _______ _______ _______ _____ _____    ______ ____
ROOT
ATOM      1  O   UNL     1      -3.990 -11.321  17.991  0.00  0.00    -0.336 OA
ATOM      5  N   UNL     1      -5.409 -10.742  16.356  0.00  0.00    -0.190 NA
ATOM      6  N   UNL     1      -5.221 -11.073  18.612  0.00  0.00    -0.056 NA
ATOM     14  C   UNL     1      -4.189 -11.103  16.664  0.00  0.00    +0.245 A 
ATOM     18  C   UNL     1      -6.006 -10.737  17.583  0.00  0.00    +0.202 A 
ENDROOT
BRANCH  18  21
ATOM      7  N   UNL     1     -10.082  -9.718  18.070  0.00  0.00    -0.221 NA
ATOM     21  C   UNL     1      -7.388 -10.392  17.748  0.00  0.00    +0.029 A 
ATOM     23  C   UNL     1      -7.848  -9.143  17.347  0.00  0.00    +0.079 A 
ATOM     24  C   UNL     1      -8.274 -11.305  18.311  0.00  0.00    +0.031 A 
ATOM     25  C   UNL     1      -9.192  -8.858  17.528  0.00  0.00    +0.215 A 
ATOM     27  C   UNL     1      -9.598 -10.923  18.448  0.00  0.00    +0.115 A 
BRANCH  25   2
ATOM      2  O   UNL     1      -9.670  -7.633  17.141  0.00  0.00    -0.474 OA
BRANCH   2  28
ATOM     28  C   UNL     1     -10.142  -7.525  15.803  0.00  0.00    +0.258 C 
BRANCH  28  29
ATOM     29  C   UNL     1     -10.688  -6.127  15.583  0.00  0.00    +0.200 C 
BRANCH  29   3
ATOM      3  O   UNL     1     -12.032  -6.219  15.126  0.00  0.00    -0.380 OA
ATOM     30  C   UNL     1     -12.286  -5.307  14.067  0.00  0.00    +0.194 C 
ENDBRANCH  29   3
ENDBRANCH  28  29
ENDBRANCH   2  28
ENDBRANCH  25   2
ENDBRANCH  18  21
BRANCH  14   9
ATOM      4  N   UNL     1      -3.160 -10.666  14.441  0.00  0.00    -0.287 NA
ATOM      9  C   UNL     1      -2.992 -11.307  15.760  0.00  0.00    +0.146 C 
ATOM     10  C   UNL     1      -1.701 -10.692  16.333  0.00  0.00    +0.030 C 
ATOM     11  C   UNL     1      -1.185  -9.765  15.242  0.00  0.00    +0.017 C 
ATOM     12  C   UNL     1      -1.817 -10.313  13.978  0.00  0.00    +0.085 C 
BRANCH   4  13
ATOM     13  C   UNL     1      -3.867 -11.503  13.480  0.00  0.00    +0.120 C 
BRANCH  13  15
ATOM     15  C   UNL     1      -4.582 -10.681  12.440  0.00  0.00    -0.033 A 
ATOM     16  C   UNL     1      -4.157 -10.714  11.112  0.00  0.00    +0.006 A 
ATOM     17  C   UNL     1      -5.669  -9.888  12.805  0.00  0.00    +0.006 A 
ATOM     19  C   UNL     1      -4.819  -9.953  10.149  0.00  0.00    +0.019 A 
ATOM     20  C   UNL     1      -6.332  -9.126  11.841  0.00  0.00    +0.019 A 
ATOM     22  C   UNL     1      -5.907  -9.160  10.514  0.00  0.00    +0.052 A 
BRANCH  22  26
ATOM      8  N   UNL     1      -7.136  -7.747   8.725  0.00  0.00    -0.191 NA
ATOM     26  C   UNL     1      -6.585  -8.380   9.527  0.00  0.00    +0.099 C 
ENDBRANCH  22  26
ENDBRANCH  13  15
ENDBRANCH   4  13
ENDBRANCH  14   9
TORSDOF 9
ENDMDL
MODEL 5
REMARK VINA RESULT:      -6.3     27.448     29.474
REMARK  Name = 45783343
REMARK  10 active torsions:
REMARK  status: ('A' for Active; 'I' for Inactive)
REMARK    1  A    between atoms: O_2  and  C_25
REMARK    2  A    between atoms: O_2  and  C_28
REMARK    3  A    between atoms: O_3  and  C_29
REMARK    4  A    between atoms: O_3  and  C_30
REMARK    5  A    between atoms: N_4  and  C_13
REMARK    6  A    between atoms: C_9  and  C_14
REMARK    7  A    between atoms: C_13  and  C_15
REMARK    8  A    between atoms: C_18  and  C_21
REMARK    9  A    between atoms: C_22  and  C_26
REMARK   10  A    between atoms: C_28  and  C_29
REMARK                            x       y       z     vdW  Elec       q    Type
REMARK                         _______ _______ _______ _____ _____    ______ ____
ROOT
ATOM      1  O   UNL     1      -7.437 -10.529  11.430  0.00  0.00    -0.336 OA
ATOM      5  N   UNL     1      -5.942  -9.146  12.363  0.00  0.00    -0.190 NA
ATOM      6  N   UNL     1      -7.247 -10.987  12.740  0.00  0.00    -0.056 NA
ATOM     14  C   UNL     1      -6.632  -9.442  11.291  0.00  0.00    +0.245 A 
ATOM     18  C   UNL     1      -6.352 -10.120  13.226  0.00  0.00    +0.202 A 
ENDROOT
BRANCH  18  21
ATOM      7  N   UNL     1      -4.865 -10.358  17.178  0.00  0.00    -0.221 NA
ATOM     21  C   UNL     1      -5.848 -10.201  14.566  0.00  0.00    +0.029 A 
ATOM     23  C   UNL     1      -6.693  -9.969  15.645  0.00  0.00    +0.079 A 
ATOM     24  C   UNL     1      -4.511 -10.511  14.791  0.00  0.00    +0.031 A 
ATOM     25  C   UNL     1      -6.158 -10.059  16.919  0.00  0.00    +0.215 A 
ATOM     27  C   UNL     1      -4.073 -10.577  16.104  0.00  0.00    +0.115 A 
BRANCH  25   2
ATOM      2  O   UNL     1      -6.972  -9.835  18.000  0.00  0.00    -0.474 OA
BRANCH   2  28
ATOM     28  C   UNL     1      -6.588 -10.444  19.227  0.00  0.00    +0.258 C 
BRANCH  28  29
ATOM     29  C   UNL     1      -7.556 -11.567  19.545  0.00  0.00    +0.200 C 
BRANCH  29   3
ATOM      3  O   UNL     1      -8.767 -11.010  20.042  0.00  0.00    -0.380 OA
ATOM     30  C   UNL     1      -9.904 -11.606  19.433  0.00  0.00    +0.194 C 
ENDBRANCH  29   3
ENDBRANCH  28  29
ENDBRANCH   2  28
ENDBRANCH  25   2
ENDBRANCH  18  21
BRANCH  14   9
ATOM      4  N   UNL     1      -6.023  -9.560   8.881  0.00  0.00    -0.287 NA
ATOM      9  C   UNL     1      -6.656  -8.753   9.943  0.00  0.00    +0.146 C 
ATOM     10  C   UNL     1      -8.086  -8.489   9.435  0.00  0.00    +0.030 C 
ATOM     11  C   UNL     1      -8.143  -9.132   8.057  0.00  0.00    +0.017 C 
ATOM     12  C   UNL     1      -6.690  -9.194   7.631  0.00  0.00    +0.085 C 
BRANCH   4  13
ATOM     13  C   UNL     1      -4.580  -9.380   8.805  0.00  0.00    +0.120 C 
BRANCH  13  15
ATOM     15  C   UNL     1      -3.860 -10.162   9.871  0.00  0.00    -0.033 A 
ATOM     16  C   UNL     1      -2.896  -9.538  10.664  0.00  0.00    +0.006 A 
ATOM     17  C   UNL     1      -4.157 -11.510  10.067  0.00  0.00    +0.006 A 
ATOM     19  C   UNL     1      -2.229 -10.263  11.651  0.00  0.00    +0.019 A 
ATOM     20  C   UNL     1      -3.490 -12.236  11.055  0.00  0.00    +0.019 A 
ATOM     22  C   UNL     1      -2.527 -11.611  11.847  0.00  0.00    +0.052 A 
BRANCH  22  26
ATOM      8  N   UNL     1      -1.289 -12.957  13.681  0.00  0.00    -0.191 NA
ATOM     26  C   UNL     1      -1.844 -12.354  12.859  0.00  0.00    +0.099 C 
ENDBRANCH  22  26
ENDBRANCH  13  15
ENDBRANCH   4  13
ENDBRANCH  14   9
TORSDOF 9
ENDMDL
MODEL 6
REMARK VINA RESULT:      -6.2     27.340     31.819
REMARK  Name = 45783343
REMARK  10 active torsions:
REMARK  status: ('A' for Active; 'I' for Inactive)
REMARK    1  A    between atoms: O_2  and  C_25
REMARK    2  A    between atoms: O_2  and  C_28
REMARK    3  A    between atoms: O_3  and  C_29
REMARK    4  A    between atoms: O_3  and  C_30
REMARK    5  A    between atoms: N_4  and  C_13
REMARK    6  A    between atoms: C_9  and  C_14
REMARK    7  A    between atoms: C_13  and  C_15
REMARK    8  A    between atoms: C_18  and  C_21
REMARK    9  A    between atoms: C_22  and  C_26
REMARK   10  A    between atoms: C_28  and  C_29
REMARK                            x       y       z     vdW  Elec       q    Type
REMARK                         _______ _______ _______ _____ _____    ______ ____
ROOT
ATOM      1  O   UNL     1     -16.518   2.326  23.875  0.00  0.00    -0.336 OA
ATOM      5  N   UNL     1     -15.479   4.101  24.762  0.00  0.00    -0.190 NA
ATOM      6  N   UNL     1     -16.168   3.151  22.798  0.00  0.00    -0.056 NA
ATOM     14  C   UNL     1     -16.076   2.959  24.993  0.00  0.00    +0.245 A 
ATOM     18  C   UNL     1     -15.559   4.177  23.402  0.00  0.00    +0.202 A 
ENDROOT
BRANCH  18  21
ATOM      7  N   UNL     1     -13.974   7.461  21.261  0.00  0.00    -0.221 NA
ATOM     21  C   UNL     1     -15.022   5.290  22.676  0.00  0.00    +0.029 A 
ATOM     23  C   UNL     1     -13.731   5.232  22.162  0.00  0.00    +0.079 A 
ATOM     24  C   UNL     1     -15.789   6.434  22.483  0.00  0.00    +0.031 A 
ATOM     25  C   UNL     1     -13.258   6.334  21.469  0.00  0.00    +0.215 A 
ATOM     27  C   UNL     1     -15.224   7.482  21.775  0.00  0.00    +0.115 A 
BRANCH  25   2
ATOM      2  O   UNL     1     -11.988   6.300  20.953  0.00  0.00    -0.474 OA
BRANCH   2  28
ATOM     28  C   UNL     1     -11.518   7.492  20.335  0.00  0.00    +0.258 C 
BRANCH  28  29
ATOM     29  C   UNL     1     -11.432   7.272  18.837  0.00  0.00    +0.200 C 
BRANCH  29   3
ATOM      3  O   UNL     1     -10.762   8.377  18.242  0.00  0.00    -0.380 OA
ATOM     30  C   UNL     1     -10.555   8.173  16.852  0.00  0.00    +0.194 C 
ENDBRANCH  29   3
ENDBRANCH  28  29
ENDBRANCH   2  28
ENDBRANCH  25   2
ENDBRANCH  18  21
BRANCH  14   9
ATOM      4  N   UNL     1     -17.258   3.016  27.182  0.00  0.00    -0.287 NA
ATOM      9  C   UNL     1     -16.336   2.262  26.311  0.00  0.00    +0.146 C 
ATOM     10  C   UNL     1     -17.002   0.884  26.135  0.00  0.00    +0.030 C 
ATOM     11  C   UNL     1     -18.260   0.939  26.989  0.00  0.00    +0.017 C 
ATOM     12  C   UNL     1     -17.957   2.026  28.002  0.00  0.00    +0.085 C 
BRANCH   4  13
ATOM     13  C   UNL     1     -16.588   4.024  27.994  0.00  0.00    +0.120 C 
BRANCH  13  15
ATOM     15  C   UNL     1     -16.118   3.462  29.309  0.00  0.00    -0.033 A 
ATOM     16  C   UNL     1     -16.738   3.850  30.497  0.00  0.00    +0.006 A 
ATOM     17  C   UNL     1     -15.061   2.552  29.340  0.00  0.00    +0.006 A 
ATOM     19  C   UNL     1     -16.302   3.330  31.714  0.00  0.00    +0.019 A 
ATOM     20  C   UNL     1     -14.624   2.031  30.559  0.00  0.00    +0.019 A 
ATOM     22  C   UNL     1     -15.245   2.420  31.745  0.00  0.00    +0.052 A 
BRANCH  22  26
ATOM      8  N   UNL     1     -14.435   1.451  34.007  0.00  0.00    -0.191 NA
ATOM     26  C   UNL     1     -14.798   1.886  32.993  0.00  0.00    +0.099 C 
ENDBRANCH  22  26
ENDBRANCH  13  15
ENDBRANCH   4  13
ENDBRANCH  14   9
TORSDOF 9
ENDMDL
MODEL 7
REMARK VINA RESULT:      -6.1      1.717      2.391
REMARK  Name = 45783343
REMARK  10 active torsions:
REMARK  status: ('A' for Active; 'I' for Inactive)
REMARK    1  A    between atoms: O_2  and  C_25
REMARK    2  A    between atoms: O_2  and  C_28
REMARK    3  A    between atoms: O_3  and  C_29
REMARK    4  A    between atoms: O_3  and  C_30
REMARK    5  A    between atoms: N_4  and  C_13
REMARK    6  A    between atoms: C_9  and  C_14
REMARK    7  A    between atoms: C_13  and  C_15
REMARK    8  A    between atoms: C_18  and  C_21
REMARK    9  A    between atoms: C_22  and  C_26
REMARK   10  A    between atoms: C_28  and  C_29
REMARK                            x       y       z     vdW  Elec       q    Type
REMARK                         _______ _______ _______ _____ _____    ______ ____
ROOT
ATOM      1  O   UNL     1      16.269   8.707  20.369  0.00  0.00    -0.336 OA
ATOM      5  N   UNL     1      17.329   6.734  20.335  0.00  0.00    -0.190 NA
ATOM      6  N   UNL     1      17.528   8.932  20.938  0.00  0.00    -0.056 NA
ATOM     14  C   UNL     1      16.233   7.388  20.042  0.00  0.00    +0.245 A 
ATOM     18  C   UNL     1      18.095   7.722  20.883  0.00  0.00    +0.202 A 
ENDROOT
BRANCH  18  21
ATOM      7  N   UNL     1      22.005   6.971  22.308  0.00  0.00    -0.221 NA
ATOM     21  C   UNL     1      19.420   7.467  21.366  0.00  0.00    +0.029 A 
ATOM     23  C   UNL     1      19.758   6.208  21.849  0.00  0.00    +0.079 A 
ATOM     24  C   UNL     1      20.374   8.480  21.354  0.00  0.00    +0.031 A 
ATOM     25  C   UNL     1      21.052   6.013  22.304  0.00  0.00    +0.215 A 
ATOM     27  C   UNL     1      21.640   8.183  21.832  0.00  0.00    +0.115 A 
BRANCH  25   2
ATOM      2  O   UNL     1      21.409   4.780  22.785  0.00  0.00    -0.474 OA
BRANCH   2  28
ATOM     28  C   UNL     1      22.803   4.509  22.878  0.00  0.00    +0.258 C 
BRANCH  28  29
ATOM     29  C   UNL     1      23.105   3.217  22.143  0.00  0.00    +0.200 C 
BRANCH  29   3
ATOM      3  O   UNL     1      24.266   3.400  21.341  0.00  0.00    -0.380 OA
ATOM     30  C   UNL     1      24.045   4.358  20.315  0.00  0.00    +0.194 C 
ENDBRANCH  29   3
ENDBRANCH  28  29
ENDBRANCH   2  28
ENDBRANCH  25   2
ENDBRANCH  18  21
BRANCH  14   9
ATOM      4  N   UNL     1      13.775   7.678  19.791  0.00  0.00    -0.287 NA
ATOM      9  C   UNL     1      14.958   6.886  19.400  0.00  0.00    +0.146 C 
ATOM     10  C   UNL     1      14.994   6.969  17.862  0.00  0.00    +0.030 C 
ATOM     11  C   UNL     1      13.760   7.774  17.479  0.00  0.00    +0.017 C 
ATOM     12  C   UNL     1      12.838   7.603  18.670  0.00  0.00    +0.085 C 
BRANCH   4  13
ATOM     13  C   UNL     1      13.171   7.230  21.039  0.00  0.00    +0.120 C 
BRANCH  13  15
ATOM     15  C   UNL     1      12.533   8.368  21.793  0.00  0.00    -0.033 A 
ATOM     16  C   UNL     1      11.214   8.261  22.232  0.00  0.00    +0.006 A 
ATOM     17  C   UNL     1      13.263   9.528  22.052  0.00  0.00    +0.006 A 
ATOM     19  C   UNL     1      10.624   9.314  22.929  0.00  0.00    +0.019 A 
ATOM     20  C   UNL     1      12.672  10.582  22.749  0.00  0.00    +0.019 A 
ATOM     22  C   UNL     1      11.353  10.475  23.189  0.00  0.00    +0.052 A 
BRANCH  22  26
ATOM      8  N   UNL     1      10.258  12.432  24.484  0.00  0.00    -0.191 NA
ATOM     26  C   UNL     1      10.749  11.554  23.903  0.00  0.00    +0.099 C 
ENDBRANCH  22  26
ENDBRANCH  13  15
ENDBRANCH   4  13
ENDBRANCH  14   9
TORSDOF 9
ENDMDL
MODEL 8
REMARK VINA RESULT:      -6.0     26.661     29.971
REMARK  Name = 45783343
REMARK  10 active torsions:
REMARK  status: ('A' for Active; 'I' for Inactive)
REMARK    1  A    between atoms: O_2  and  C_25
REMARK    2  A    between atoms: O_2  and  C_28
REMARK    3  A    between atoms: O_3  and  C_29
REMARK    4  A    between atoms: O_3  and  C_30
REMARK    5  A    between atoms: N_4  and  C_13
REMARK    6  A    between atoms: C_9  and  C_14
REMARK    7  A    between atoms: C_13  and  C_15
REMARK    8  A    between atoms: C_18  and  C_21
REMARK    9  A    between atoms: C_22  and  C_26
REMARK   10  A    between atoms: C_28  and  C_29
REMARK                            x       y       z     vdW  Elec       q    Type
REMARK                         _______ _______ _______ _____ _____    ______ ____
ROOT
ATOM      1  O   UNL     1     -11.862   6.753  20.942  0.00  0.00    -0.336 OA
ATOM      5  N   UNL     1     -14.044   7.253  20.865  0.00  0.00    -0.190 NA
ATOM      6  N   UNL     1     -12.515   5.761  21.684  0.00  0.00    -0.056 NA
ATOM     14  C   UNL     1     -12.834   7.591  20.496  0.00  0.00    +0.245 A 
ATOM     18  C   UNL     1     -13.799   6.125  21.592  0.00  0.00    +0.202 A 
ENDROOT
BRANCH  18  21
ATOM      7  N   UNL     1     -16.920   3.939  23.427  0.00  0.00    -0.221 NA
ATOM     21  C   UNL     1     -14.857   5.384  22.214  0.00  0.00    +0.029 A 
ATOM     23  C   UNL     1     -14.651   4.772  23.446  0.00  0.00    +0.079 A 
ATOM     24  C   UNL     1     -16.094   5.274  21.588  0.00  0.00    +0.031 A 
ATOM     25  C   UNL     1     -15.705   4.068  24.005  0.00  0.00    +0.215 A 
ATOM     27  C   UNL     1     -17.083   4.547  22.230  0.00  0.00    +0.115 A 
BRANCH  25   2
ATOM      2  O   UNL     1     -15.527   3.456  25.219  0.00  0.00    -0.474 OA
BRANCH   2  28
ATOM     28  C   UNL     1     -16.463   2.443  25.568  0.00  0.00    +0.258 C 
BRANCH  28  29
ATOM     29  C   UNL     1     -16.432   2.239  27.071  0.00  0.00    +0.200 C 
BRANCH  29   3
ATOM      3  O   UNL     1     -15.740   3.326  27.673  0.00  0.00    -0.380 OA
ATOM     30  C   UNL     1     -15.436   3.060  29.035  0.00  0.00    +0.194 C 
ENDBRANCH  29   3
ENDBRANCH  28  29
ENDBRANCH   2  28
ENDBRANCH  25   2
ENDBRANCH  18  21
BRANCH  14   9
ATOM      4  N   UNL     1     -11.780   9.844  20.462  0.00  0.00    -0.287 NA
ATOM      9  C   UNL     1     -12.380   8.764  19.654  0.00  0.00    +0.146 C 
ATOM     10  C   UNL     1     -11.287   8.381  18.639  0.00  0.00    +0.030 C 
ATOM     11  C   UNL     1     -10.136   9.338  18.914  0.00  0.00    +0.017 C 
ATOM     12  C   UNL     1     -10.805  10.513  19.601  0.00  0.00    +0.085 C 
BRANCH   4  13
ATOM     13  C   UNL     1     -12.764  10.775  21.000  0.00  0.00    +0.120 C 
BRANCH  13  15
ATOM     15  C   UNL     1     -12.838  10.707  22.502  0.00  0.00    -0.033 A 
ATOM     16  C   UNL     1     -13.898  10.043  23.120  0.00  0.00    +0.006 A 
ATOM     17  C   UNL     1     -11.845  11.306  23.277  0.00  0.00    +0.006 A 
ATOM     19  C   UNL     1     -13.966   9.980  24.511  0.00  0.00    +0.019 A 
ATOM     20  C   UNL     1     -11.913  11.244  24.670  0.00  0.00    +0.019 A 
ATOM     22  C   UNL     1     -12.974  10.580  25.286  0.00  0.00    +0.052 A 
BRANCH  22  26
ATOM      8  N   UNL     1     -13.100  10.462  27.870  0.00  0.00    -0.191 NA
ATOM     26  C   UNL     1     -13.043  10.515  26.711  0.00  0.00    +0.099 C 
ENDBRANCH  22  26
ENDBRANCH  13  15
ENDBRANCH   4  13
ENDBRANCH  14   9
TORSDOF 9
ENDMDL
MODEL 9
REMARK VINA RESULT:      -6.0     14.406     18.292
REMARK  Name = 45783343
REMARK  10 active torsions:
REMARK  status: ('A' for Active; 'I' for Inactive)
REMARK    1  A    between atoms: O_2  and  C_25
REMARK    2  A    between atoms: O_2  and  C_28
REMARK    3  A    between atoms: O_3  and  C_29
REMARK    4  A    between atoms: O_3  and  C_30
REMARK    5  A    between atoms: N_4  and  C_13
REMARK    6  A    between atoms: C_9  and  C_14
REMARK    7  A    between atoms: C_13  and  C_15
REMARK    8  A    between atoms: C_18  and  C_21
REMARK    9  A    between atoms: C_22  and  C_26
REMARK   10  A    between atoms: C_28  and  C_29
REMARK                            x       y       z     vdW  Elec       q    Type
REMARK                         _______ _______ _______ _____ _____    ______ ____
ROOT
ATOM      1  O   UNL     1      13.416   6.761   7.228  0.00  0.00    -0.336 OA
ATOM      5  N   UNL     1      12.932   7.250   5.096  0.00  0.00    -0.190 NA
ATOM      6  N   UNL     1      14.643   6.992   6.593  0.00  0.00    -0.056 NA
ATOM     14  C   UNL     1      12.461   6.933   6.276  0.00  0.00    +0.245 A 
ATOM     18  C   UNL     1      14.274   7.275   5.339  0.00  0.00    +0.202 A 
ENDROOT
BRANCH  18  21
ATOM      7  N   UNL     1      17.067   8.187   2.297  0.00  0.00    -0.221 NA
ATOM     21  C   UNL     1      15.221   7.584   4.308  0.00  0.00    +0.029 A 
ATOM     23  C   UNL     1      15.036   7.095   3.019  0.00  0.00    +0.079 A 
ATOM     24  C   UNL     1      16.330   8.375   4.592  0.00  0.00    +0.031 A 
ATOM     25  C   UNL     1      15.979   7.422   2.059  0.00  0.00    +0.215 A 
ATOM     27  C   UNL     1      17.215   8.645   3.560  0.00  0.00    +0.115 A 
BRANCH  25   2
ATOM      2  O   UNL     1      15.818   6.951   0.781  0.00  0.00    -0.474 OA
BRANCH   2  28
ATOM     28  C   UNL     1      14.729   6.062   0.560  0.00  0.00    +0.258 C 
BRANCH  28  29
ATOM     29  C   UNL     1      15.210   4.890  -0.273  0.00  0.00    +0.200 C 
BRANCH  29   3
ATOM      3  O   UNL     1      15.799   3.920   0.585  0.00  0.00    -0.380 OA
ATOM     30  C   UNL     1      14.911   3.539   1.627  0.00  0.00    +0.194 C 
ENDBRANCH  29   3
ENDBRANCH  28  29
ENDBRANCH   2  28
ENDBRANCH  25   2
ENDBRANCH  18  21
BRANCH  14   9
ATOM      4  N   UNL     1      10.290   5.796   5.850  0.00  0.00    -0.287 NA
ATOM      9  C   UNL     1      11.026   6.737   6.717  0.00  0.00    +0.146 C 
ATOM     10  C   UNL     1      10.914   6.137   8.131  0.00  0.00    +0.030 C 
ATOM     11  C   UNL     1      10.048   4.896   7.969  0.00  0.00    +0.017 C 
ATOM     12  C   UNL     1       9.274   5.166   6.693  0.00  0.00    +0.085 C 
BRANCH   4  13
ATOM     13  C   UNL     1       9.708   6.432   4.675  0.00  0.00    +0.120 C 
BRANCH  13  15
ATOM     15  C   UNL     1      10.188   5.795   3.398  0.00  0.00    -0.033 A 
ATOM     16  C   UNL     1      10.851   4.568   3.435  0.00  0.00    +0.006 A 
ATOM     17  C   UNL     1       9.970   6.432   2.176  0.00  0.00    +0.006 A 
ATOM     19  C   UNL     1      11.295   3.979   2.252  0.00  0.00    +0.019 A 
ATOM     20  C   UNL     1      10.415   5.842   0.992  0.00  0.00    +0.019 A 
ATOM     22  C   UNL     1      11.077   4.616   1.031  0.00  0.00    +0.052 A 
BRANCH  22  26
ATOM      8  N   UNL     1      11.903   3.521  -1.166  0.00  0.00    -0.191 NA
ATOM     26  C   UNL     1      11.533   4.012  -0.181  0.00  0.00    +0.099 C 
ENDBRANCH  22  26
ENDBRANCH  13  15
ENDBRANCH   4  13
ENDBRANCH  14   9
TORSDOF 9
ENDMDL
MODEL 10
REMARK VINA RESULT:      -6.0     26.839     30.146
REMARK  Name = 45783343
REMARK  10 active torsions:
REMARK  status: ('A' for Active; 'I' for Inactive)
REMARK    1  A    between atoms: O_2  and  C_25
REMARK    2  A    between atoms: O_2  and  C_28
REMARK    3  A    between atoms: O_3  and  C_29
REMARK    4  A    between atoms: O_3  and  C_30
REMARK    5  A    between atoms: N_4  and  C_13
REMARK    6  A    between atoms: C_9  and  C_14
REMARK    7  A    between atoms: C_13  and  C_15
REMARK    8  A    between atoms: C_18  and  C_21
REMARK    9  A    between atoms: C_22  and  C_26
REMARK   10  A    between atoms: C_28  and  C_29
REMARK                            x       y       z     vdW  Elec       q    Type
REMARK                         _______ _______ _______ _____ _____    ______ ____
ROOT
ATOM      1  O   UNL     1      -5.132  -9.757  15.922  0.00  0.00    -0.336 OA
ATOM      5  N   UNL     1      -5.172 -11.676  17.077  0.00  0.00    -0.190 NA
ATOM      6  N   UNL     1      -6.290  -9.714  16.709  0.00  0.00    -0.056 NA
ATOM     14  C   UNL     1      -4.533 -10.945  16.199  0.00  0.00    +0.245 A 
ATOM     18  C   UNL     1      -6.243 -10.880  17.361  0.00  0.00    +0.202 A 
ENDROOT
BRANCH  18  21
ATOM      7  N   UNL     1      -9.213 -12.057  20.134  0.00  0.00    -0.221 NA
ATOM     21  C   UNL     1      -7.250 -11.280  18.301  0.00  0.00    +0.029 A 
ATOM     23  C   UNL     1      -8.356 -10.467  18.528  0.00  0.00    +0.079 A 
ATOM     24  C   UNL     1      -7.125 -12.481  18.991  0.00  0.00    +0.031 A 
ATOM     25  C   UNL     1      -9.299 -10.897  19.446  0.00  0.00    +0.215 A 
ATOM     27  C   UNL     1      -8.124 -12.821  19.888  0.00  0.00    +0.115 A 
BRANCH  25   2
ATOM      2  O   UNL     1     -10.398 -10.114  19.686  0.00  0.00    -0.474 OA
BRANCH   2  28
ATOM     28  C   UNL     1     -11.138  -9.684  18.550  0.00  0.00    +0.258 C 
BRANCH  28  29
ATOM     29  C   UNL     1     -12.620  -9.772  18.862  0.00  0.00    +0.200 C 
BRANCH  29   3
ATOM      3  O   UNL     1     -12.812  -9.583  20.259  0.00  0.00    -0.380 OA
ATOM     30  C   UNL     1     -14.191  -9.586  20.600  0.00  0.00    +0.194 C 
ENDBRANCH  29   3
ENDBRANCH  28  29
ENDBRANCH   2  28
ENDBRANCH  25   2
ENDBRANCH  18  21
BRANCH  14   9
ATOM      4  N   UNL     1      -3.191 -10.606  14.131  0.00  0.00    -0.287 NA
ATOM      9  C   UNL     1      -3.241 -11.236  15.466  0.00  0.00    +0.146 C 
ATOM     10  C   UNL     1      -2.003 -10.692  16.202  0.00  0.00    +0.030 C 
ATOM     11  C   UNL     1      -1.288  -9.815  15.184  0.00  0.00    +0.017 C 
ATOM     12  C   UNL     1      -1.779 -10.343  13.851  0.00  0.00    +0.085 C 
BRANCH   4  13
ATOM     13  C   UNL     1      -3.814 -11.413  13.090  0.00  0.00    +0.120 C 
BRANCH  13  15
ATOM     15  C   UNL     1      -4.585 -10.567  12.112  0.00  0.00    -0.033 A 
ATOM     16  C   UNL     1      -5.834 -10.056  12.463  0.00  0.00    +0.006 A 
ATOM     17  C   UNL     1      -4.049 -10.294  10.853  0.00  0.00    +0.006 A 
ATOM     19  C   UNL     1      -6.547  -9.273  11.556  0.00  0.00    +0.019 A 
ATOM     20  C   UNL     1      -4.763  -9.510   9.946  0.00  0.00    +0.019 A 
ATOM     22  C   UNL     1      -6.011  -9.000  10.298  0.00  0.00    +0.052 A 
BRANCH  22  26
ATOM      8  N   UNL     1      -7.336  -7.546   8.613  0.00  0.00    -0.191 NA
ATOM     26  C   UNL     1      -6.742  -8.197   9.369  0.00  0.00    +0.099 C 
ENDBRANCH  22  26
ENDBRANCH  13  15
ENDBRANCH   4  13
ENDBRANCH  14   9
TORSDOF 9
ENDMDL
