MODEL 1
REMARK VINA RESULT:      -7.9      0.000      0.000
REMARK  Name = 51136657
REMARK  8 active torsions:
REMARK  status: ('A' for Active; 'I' for Inactive)
REMARK    1  A    between atoms: O_3  and  C_18
REMARK    2  A    between atoms: O_5  and  C_26
REMARK    3  A    between atoms: O_5  and  C_32
REMARK    4  A    between atoms: C_8  and  C_13
REMARK    5  A    between atoms: C_9  and  C_14
REMARK    6  A    between atoms: C_13  and  C_15
REMARK    7  A    between atoms: C_14  and  C_18
REMARK    8  A    between atoms: C_16  and  C_22
REMARK                            x       y       z     vdW  Elec       q    Type
REMARK                         _______ _______ _______ _____ _____    ______ ____
ROOT
ATOM      2  O   UNL     1      12.920   9.684  14.839  0.00  0.00    -0.270 OA
ATOM      6  N   UNL     1      12.703   9.703  17.168  0.00  0.00    -0.297 N 
ATOM      8  C   UNL     1      13.468   8.934  19.404  0.00  0.00    +0.016 C 
ATOM      9  C   UNL     1      12.246   7.981  19.451  0.00  0.00    +0.006 C 
ATOM     10  C   UNL     1      11.777   7.593  18.039  0.00  0.00    +0.023 C 
ATOM     11  C   UNL     1      13.160  10.138  18.496  0.00  0.00    +0.112 C 
ATOM     12  C   UNL     1      11.532   8.829  17.178  0.00  0.00    +0.108 C 
ATOM     16  C   UNL     1      13.294  10.050  15.952  0.00  0.00    +0.247 C 
ENDROOT
BRANCH  16  22
ATOM      1  F   UNL     1      17.773  13.404  16.067  0.00  0.00    -0.205 F 
ATOM     22  C   UNL     1      14.469  10.930  15.982  0.00  0.00    +0.037 A 
ATOM     27  C   UNL     1      14.627  11.846  17.022  0.00  0.00    +0.016 A 
ATOM     28  C   UNL     1      15.426  10.850  14.970  0.00  0.00    +0.016 A 
ATOM     29  C   UNL     1      15.743  12.681  17.051  0.00  0.00    +0.039 A 
ATOM     30  C   UNL     1      16.542  11.686  15.000  0.00  0.00    +0.039 A 
ATOM     31  C   UNL     1      16.701  12.601  16.040  0.00  0.00    +0.123 A 
ENDBRANCH  16  22
BRANCH   8  13
ATOM     13  C   UNL     1      14.770   8.254  18.964  0.00  0.00    +0.061 C 
BRANCH  13  15
ATOM      7  N   UNL     1      15.685   9.376  20.880  0.00  0.00    -0.287 NA
ATOM     15  C   UNL     1      15.815   8.400  20.043  0.00  0.00    +0.044 C 
ATOM     17  C   UNL     1      16.939   7.430  20.087  0.00  0.00    -0.001 A 
ATOM     19  C   UNL     1      18.069   7.805  20.825  0.00  0.00    -0.033 A 
ATOM     20  C   UNL     1      18.076   9.145  21.498  0.00  0.00    +0.059 C 
ATOM     21  C   UNL     1      16.666   9.483  21.965  0.00  0.00    +0.146 C 
ATOM     23  C   UNL     1      16.903   6.202  19.423  0.00  0.00    +0.013 A 
ATOM     24  C   UNL     1      19.176   6.954  20.873  0.00  0.00    +0.050 A 
ATOM     25  C   UNL     1      18.008   5.352  19.489  0.00  0.00    +0.046 A 
ATOM     26  C   UNL     1      19.142   5.727  20.209  0.00  0.00    +0.120 A 
BRANCH  26   5
ATOM      5  O   UNL     1      20.218   4.895  20.263  0.00  0.00    -0.495 OA
ATOM     32  C   UNL     1      21.488   5.492  20.518  0.00  0.00    +0.277 C 
ENDBRANCH  26   5
ENDBRANCH  13  15
ENDBRANCH   8  13
BRANCH   9  14
ATOM     14  C   UNL     1      12.488   6.734  20.301  0.00  0.00    +0.124 C 
BRANCH  14  18
ATOM      4  O   UNL     1      10.807   7.230  21.995  0.00  0.00    -0.251 OA
ATOM     18  C   UNL     1      11.327   6.449  21.213  0.00  0.00    +0.305 C 
BRANCH  18   3
ATOM      3  O   UNL     1      10.919   5.165  21.048  0.00  0.00    -0.481 OA
ATOM     33  H   UNL     1      10.569   4.782  21.879  0.00  0.00    +0.295 HD
ENDBRANCH  18   3
ENDBRANCH  14  18
ENDBRANCH   9  14
TORSDOF 7
ENDMDL
MODEL 2
REMARK VINA RESULT:      -7.8      3.836      7.135
REMARK  Name = 51136657
REMARK  8 active torsions:
REMARK  status: ('A' for Active; 'I' for Inactive)
REMARK    1  A    between atoms: O_3  and  C_18
REMARK    2  A    between atoms: O_5  and  C_26
REMARK    3  A    between atoms: O_5  and  C_32
REMARK    4  A    between atoms: C_8  and  C_13
REMARK    5  A    between atoms: C_9  and  C_14
REMARK    6  A    between atoms: C_13  and  C_15
REMARK    7  A    between atoms: C_14  and  C_18
REMARK    8  A    between atoms: C_16  and  C_22
REMARK                            x       y       z     vdW  Elec       q    Type
REMARK                         _______ _______ _______ _____ _____    ______ ____
ROOT
ATOM      2  O   UNL     1      10.709   8.730  16.580  0.00  0.00    -0.270 OA
ATOM      6  N   UNL     1      13.019   9.092  16.649  0.00  0.00    -0.297 N 
ATOM      8  C   UNL     1      14.961  10.444  17.410  0.00  0.00    +0.016 C 
ATOM      9  C   UNL     1      15.065  11.028  15.978  0.00  0.00    +0.006 C 
ATOM     10  C   UNL     1      13.707  11.005  15.257  0.00  0.00    +0.023 C 
ATOM     11  C   UNL     1      14.304   9.053  17.362  0.00  0.00    +0.112 C 
ATOM     12  C   UNL     1      13.091   9.609  15.284  0.00  0.00    +0.108 C 
ATOM     16  C   UNL     1      11.787   8.692  17.171  0.00  0.00    +0.247 C 
ENDROOT
BRANCH  16  22
ATOM      1  F   UNL     1      11.663   6.735  22.412  0.00  0.00    -0.205 F 
ATOM     22  C   UNL     1      11.755   8.179  18.545  0.00  0.00    +0.037 A 
ATOM     27  C   UNL     1      10.885   8.741  19.479  0.00  0.00    +0.016 A 
ATOM     28  C   UNL     1      12.595   7.129  18.918  0.00  0.00    +0.016 A 
ATOM     29  C   UNL     1      10.853   8.253  20.785  0.00  0.00    +0.039 A 
ATOM     30  C   UNL     1      12.564   6.641  20.225  0.00  0.00    +0.039 A 
ATOM     31  C   UNL     1      11.693   7.204  21.158  0.00  0.00    +0.123 A 
ENDBRANCH  16  22
BRANCH   8  13
ATOM     13  C   UNL     1      14.218  11.350  18.399  0.00  0.00    +0.061 C 
BRANCH  13  15
ATOM      7  N   UNL     1      15.670  10.395  20.056  0.00  0.00    -0.287 NA
ATOM     15  C   UNL     1      14.512  10.915  19.814  0.00  0.00    +0.044 C 
ATOM     17  C   UNL     1      13.463  11.096  20.851  0.00  0.00    -0.001 A 
ATOM     19  C   UNL     1      13.605  10.350  22.028  0.00  0.00    -0.033 A 
ATOM     20  C   UNL     1      14.777   9.424  22.157  0.00  0.00    +0.059 C 
ATOM     21  C   UNL     1      15.979  10.028  21.442  0.00  0.00    +0.146 C 
ATOM     23  C   UNL     1      12.372  11.949  20.680  0.00  0.00    +0.013 A 
ATOM     24  C   UNL     1      12.631  10.444  23.026  0.00  0.00    +0.050 A 
ATOM     25  C   UNL     1      11.412  12.048  21.689  0.00  0.00    +0.046 A 
ATOM     26  C   UNL     1      11.540  11.296  22.857  0.00  0.00    +0.120 A 
BRANCH  26   5
ATOM      5  O   UNL     1      10.595  11.393  23.833  0.00  0.00    -0.495 OA
ATOM     32  C   UNL     1      11.018  11.904  25.096  0.00  0.00    +0.277 C 
ENDBRANCH  26   5
ENDBRANCH  13  15
ENDBRANCH   8  13
BRANCH   9  14
ATOM     14  C   UNL     1      15.670  12.432  15.944  0.00  0.00    +0.124 C 
BRANCH  14  18
ATOM      4  O   UNL     1      17.839  13.334  15.293  0.00  0.00    -0.251 OA
ATOM     18  C   UNL     1      17.001  12.446  15.244  0.00  0.00    +0.305 C 
BRANCH  18   3
ATOM      3  O   UNL     1      17.154  11.305  14.525  0.00  0.00    -0.481 OA
ATOM     33  H   UNL     1      16.480  11.225  13.818  0.00  0.00    +0.295 HD
ENDBRANCH  18   3
ENDBRANCH  14  18
ENDBRANCH   9  14
TORSDOF 7
ENDMDL
MODEL 3
REMARK VINA RESULT:      -7.6     26.439     29.383
REMARK  Name = 51136657
REMARK  8 active torsions:
REMARK  status: ('A' for Active; 'I' for Inactive)
REMARK    1  A    between atoms: O_3  and  C_18
REMARK    2  A    between atoms: O_5  and  C_26
REMARK    3  A    between atoms: O_5  and  C_32
REMARK    4  A    between atoms: C_8  and  C_13
REMARK    5  A    between atoms: C_9  and  C_14
REMARK    6  A    between atoms: C_13  and  C_15
REMARK    7  A    between atoms: C_14  and  C_18
REMARK    8  A    between atoms: C_16  and  C_22
REMARK                            x       y       z     vdW  Elec       q    Type
REMARK                         _______ _______ _______ _____ _____    ______ ____
ROOT
ATOM      2  O   UNL     1      -1.134  -9.490  12.608  0.00  0.00    -0.270 OA
ATOM      6  N   UNL     1      -2.167 -11.162  13.878  0.00  0.00    -0.297 N 
ATOM      8  C   UNL     1      -4.124 -11.974  15.177  0.00  0.00    +0.016 C 
ATOM      9  C   UNL     1      -3.330 -11.689  16.477  0.00  0.00    +0.006 C 
ATOM     10  C   UNL     1      -2.284 -10.581  16.270  0.00  0.00    +0.023 C 
ATOM     11  C   UNL     1      -3.149 -12.246  14.016  0.00  0.00    +0.112 C 
ATOM     12  C   UNL     1      -1.380 -10.890  15.080  0.00  0.00    +0.108 C 
ATOM     16  C   UNL     1      -1.950 -10.402  12.727  0.00  0.00    +0.247 C 
ENDROOT
BRANCH  16  22
ATOM      1  F   UNL     1      -5.037 -11.552   8.202  0.00  0.00    -0.205 F 
ATOM     22  C   UNL     1      -2.760 -10.704  11.540  0.00  0.00    +0.037 A 
ATOM     27  C   UNL     1      -3.083  -9.689  10.639  0.00  0.00    +0.016 A 
ATOM     28  C   UNL     1      -3.207 -12.006  11.313  0.00  0.00    +0.016 A 
ATOM     29  C   UNL     1      -3.851  -9.975   9.512  0.00  0.00    +0.039 A 
ATOM     30  C   UNL     1      -3.977 -12.292  10.186  0.00  0.00    +0.039 A 
ATOM     31  C   UNL     1      -4.299 -11.277   9.286  0.00  0.00    +0.123 A 
ENDBRANCH  16  22
BRANCH   8  13
ATOM     13  C   UNL     1      -5.111 -10.865  14.794  0.00  0.00    +0.061 C 
BRANCH  13  15
ATOM      7  N   UNL     1      -6.732 -12.550  14.244  0.00  0.00    -0.287 NA
ATOM     15  C   UNL     1      -6.193 -11.425  13.903  0.00  0.00    +0.044 C 
ATOM     17  C   UNL     1      -6.578 -10.670  12.683  0.00  0.00    -0.001 A 
ATOM     19  C   UNL     1      -7.278 -11.378  11.697  0.00  0.00    -0.033 A 
ATOM     20  C   UNL     1      -7.574 -12.830  11.927  0.00  0.00    +0.059 C 
ATOM     21  C   UNL     1      -7.824 -13.065  13.411  0.00  0.00    +0.146 C 
ATOM     23  C   UNL     1      -6.258  -9.324  12.496  0.00  0.00    +0.013 A 
ATOM     24  C   UNL     1      -7.634 -10.736  10.508  0.00  0.00    +0.050 A 
ATOM     25  C   UNL     1      -6.631  -8.687  11.312  0.00  0.00    +0.046 A 
ATOM     26  C   UNL     1      -7.314  -9.391  10.320  0.00  0.00    +0.120 A 
BRANCH  26   5
ATOM      5  O   UNL     1      -7.669  -8.763   9.164  0.00  0.00    -0.495 OA
ATOM     32  C   UNL     1      -8.886  -8.020   9.176  0.00  0.00    +0.277 C 
ENDBRANCH  26   5
ENDBRANCH  13  15
ENDBRANCH   8  13
BRANCH   9  14
ATOM     14  C   UNL     1      -4.228 -11.366  17.671  0.00  0.00    +0.124 C 
BRANCH  14  18
ATOM      4  O   UNL     1      -3.500 -12.058  19.892  0.00  0.00    -0.251 OA
ATOM     18  C   UNL     1      -4.003 -12.321  18.810  0.00  0.00    +0.305 C 
BRANCH  18   3
ATOM      3  O   UNL     1      -4.447 -13.557  18.467  0.00  0.00    -0.481 OA
ATOM     33  H   UNL     1      -5.347 -13.529  18.081  0.00  0.00    +0.295 HD
ENDBRANCH  18   3
ENDBRANCH  14  18
ENDBRANCH   9  14
TORSDOF 7
ENDMDL
MODEL 4
REMARK VINA RESULT:      -7.6      3.823      7.269
REMARK  Name = 51136657
REMARK  8 active torsions:
REMARK  status: ('A' for Active; 'I' for Inactive)
REMARK    1  A    between atoms: O_3  and  C_18
REMARK    2  A    between atoms: O_5  and  C_26
REMARK    3  A    between atoms: O_5  and  C_32
REMARK    4  A    between atoms: C_8  and  C_13
REMARK    5  A    between atoms: C_9  and  C_14
REMARK    6  A    between atoms: C_13  and  C_15
REMARK    7  A    between atoms: C_14  and  C_18
REMARK    8  A    between atoms: C_16  and  C_22
REMARK                            x       y       z     vdW  Elec       q    Type
REMARK                         _______ _______ _______ _____ _____    ______ ____
ROOT
ATOM      2  O   UNL     1      16.224   7.501  21.613  0.00  0.00    -0.270 OA
ATOM      6  N   UNL     1      15.426   8.711  19.776  0.00  0.00    -0.297 N 
ATOM      8  C   UNL     1      13.578   9.922  18.639  0.00  0.00    +0.016 C 
ATOM      9  C   UNL     1      13.391   8.691  17.716  0.00  0.00    +0.006 C 
ATOM     10  C   UNL     1      13.863   7.396  18.398  0.00  0.00    +0.023 C 
ATOM     11  C   UNL     1      15.029   9.980  19.149  0.00  0.00    +0.112 C 
ATOM     12  C   UNL     1      15.291   7.535  18.919  0.00  0.00    +0.108 C 
ATOM     16  C   UNL     1      15.896   8.561  21.082  0.00  0.00    +0.247 C 
ENDROOT
BRANCH  16  22
ATOM      1  F   UNL     1      16.360  13.152  24.250  0.00  0.00    -0.205 F 
ATOM     22  C   UNL     1      16.018   9.765  21.913  0.00  0.00    +0.037 A 
ATOM     27  C   UNL     1      14.955  10.163  22.724  0.00  0.00    +0.016 A 
ATOM     28  C   UNL     1      17.196  10.512  21.891  0.00  0.00    +0.016 A 
ATOM     29  C   UNL     1      15.070  11.307  23.513  0.00  0.00    +0.039 A 
ATOM     30  C   UNL     1      17.312  11.656  22.681  0.00  0.00    +0.039 A 
ATOM     31  C   UNL     1      16.249  12.053  23.491  0.00  0.00    +0.123 A 
ENDBRANCH  16  22
BRANCH   8  13
ATOM     13  C   UNL     1      12.597   9.972  19.816  0.00  0.00    +0.061 C 
BRANCH  13  15
ATOM      7  N   UNL     1      12.755  12.341  19.454  0.00  0.00    -0.287 NA
ATOM     15  C   UNL     1      12.413  11.399  20.271  0.00  0.00    +0.044 C 
ATOM     17  C   UNL     1      11.859  11.653  21.625  0.00  0.00    -0.001 A 
ATOM     19  C   UNL     1      12.059  12.933  22.160  0.00  0.00    -0.033 A 
ATOM     20  C   UNL     1      12.819  13.940  21.350  0.00  0.00    +0.059 C 
ATOM     21  C   UNL     1      12.521  13.727  19.871  0.00  0.00    +0.146 C 
ATOM     23  C   UNL     1      11.179  10.678  22.359  0.00  0.00    +0.013 A 
ATOM     24  C   UNL     1      11.598  13.223  23.447  0.00  0.00    +0.050 A 
ATOM     25  C   UNL     1      10.709  10.982  23.637  0.00  0.00    +0.046 A 
ATOM     26  C   UNL     1      10.920  12.249  24.180  0.00  0.00    +0.120 A 
BRANCH  26   5
ATOM      5  O   UNL     1      10.463  12.536  25.431  0.00  0.00    -0.495 OA
ATOM     32  C   UNL     1      10.709  13.851  25.926  0.00  0.00    +0.277 C 
ENDBRANCH  26   5
ENDBRANCH  13  15
ENDBRANCH   8  13
BRANCH   9  14
ATOM     14  C   UNL     1      11.960   8.538  17.200  0.00  0.00    +0.124 C 
BRANCH  14  18
ATOM      4  O   UNL     1      12.627   9.586  15.102  0.00  0.00    -0.251 OA
ATOM     18  C   UNL     1      11.758   9.266  15.900  0.00  0.00    +0.305 C 
BRANCH  18   3
ATOM      3  O   UNL     1      10.438   9.530  15.722  0.00  0.00    -0.481 OA
ATOM     33  H   UNL     1      10.229  10.474  15.879  0.00  0.00    +0.295 HD
ENDBRANCH  18   3
ENDBRANCH  14  18
ENDBRANCH   9  14
TORSDOF 7
ENDMDL
MODEL 5
REMARK VINA RESULT:      -7.4     26.820     29.500
REMARK  Name = 51136657
REMARK  8 active torsions:
REMARK  status: ('A' for Active; 'I' for Inactive)
REMARK    1  A    between atoms: O_3  and  C_18
REMARK    2  A    between atoms: O_5  and  C_26
REMARK    3  A    between atoms: O_5  and  C_32
REMARK    4  A    between atoms: C_8  and  C_13
REMARK    5  A    between atoms: C_9  and  C_14
REMARK    6  A    between atoms: C_13  and  C_15
REMARK    7  A    between atoms: C_14  and  C_18
REMARK    8  A    between atoms: C_16  and  C_22
REMARK                            x       y       z     vdW  Elec       q    Type
REMARK                         _______ _______ _______ _____ _____    ______ ____
ROOT
ATOM      2  O   UNL     1      -1.391  -9.921  12.341  0.00  0.00    -0.270 OA
ATOM      6  N   UNL     1      -2.677 -11.269  13.757  0.00  0.00    -0.297 N 
ATOM      8  C   UNL     1      -4.582 -11.527  15.332  0.00  0.00    +0.016 C 
ATOM      9  C   UNL     1      -3.564 -11.533  16.501  0.00  0.00    +0.006 C 
ATOM     10  C   UNL     1      -2.280 -10.770  16.137  0.00  0.00    +0.023 C 
ATOM     11  C   UNL     1      -3.904 -12.026  14.043  0.00  0.00    +0.112 C 
ATOM     12  C   UNL     1      -1.684 -11.282  14.829  0.00  0.00    +0.108 C 
ATOM     16  C   UNL     1      -2.413 -10.562  12.582  0.00  0.00    +0.247 C 
ENDROOT
BRANCH  16  22
ATOM      1  F   UNL     1      -6.310 -10.596   8.565  0.00  0.00    -0.205 F 
ATOM     22  C   UNL     1      -3.435 -10.571  11.528  0.00  0.00    +0.037 A 
ATOM     27  C   UNL     1      -3.462 -11.603  10.592  0.00  0.00    +0.016 A 
ATOM     28  C   UNL     1      -4.379  -9.545  11.464  0.00  0.00    +0.016 A 
ATOM     29  C   UNL     1      -4.433 -11.612   9.591  0.00  0.00    +0.039 A 
ATOM     30  C   UNL     1      -5.350  -9.554  10.462  0.00  0.00    +0.039 A 
ATOM     31  C   UNL     1      -5.377 -10.587   9.526  0.00  0.00    +0.123 A 
ENDBRANCH  16  22
BRANCH   8  13
ATOM     13  C   UNL     1      -5.246 -10.166  15.092  0.00  0.00    +0.061 C 
BRANCH  13  15
ATOM      7  N   UNL     1      -7.038 -10.667  13.575  0.00  0.00    -0.287 NA
ATOM     15  C   UNL     1      -6.711 -10.356  14.786  0.00  0.00    +0.044 C 
ATOM     17  C   UNL     1      -7.700 -10.170  15.879  0.00  0.00    -0.001 A 
ATOM     19  C   UNL     1      -9.033  -9.970  15.496  0.00  0.00    -0.033 A 
ATOM     20  C   UNL     1      -9.366  -9.941  14.034  0.00  0.00    +0.059 C 
ATOM     21  C   UNL     1      -8.456 -10.911  13.291  0.00  0.00    +0.146 C 
ATOM     23  C   UNL     1      -7.345 -10.177  17.229  0.00  0.00    +0.013 A 
ATOM     24  C   UNL     1     -10.006  -9.749  16.475  0.00  0.00    +0.050 A 
ATOM     25  C   UNL     1      -8.326  -9.971  18.200  0.00  0.00    +0.046 A 
ATOM     26  C   UNL     1      -9.652  -9.755  17.824  0.00  0.00    +0.120 A 
BRANCH  26   5
ATOM      5  O   UNL     1     -10.602  -9.548  18.777  0.00  0.00    -0.495 OA
ATOM     32  C   UNL     1     -10.517 -10.339  19.961  0.00  0.00    +0.277 C 
ENDBRANCH  26   5
ENDBRANCH  13  15
ENDBRANCH   8  13
BRANCH   9  14
ATOM     14  C   UNL     1      -4.150 -11.009  17.812  0.00  0.00    +0.124 C 
BRANCH  14  18
ATOM      4  O   UNL     1      -3.332 -12.172  19.792  0.00  0.00    -0.251 OA
ATOM     18  C   UNL     1      -4.143 -12.063  18.884  0.00  0.00    +0.305 C 
BRANCH  18   3
ATOM      3  O   UNL     1      -5.191 -12.907  18.705  0.00  0.00    -0.481 OA
ATOM     33  H   UNL     1      -5.873 -12.796  19.400  0.00  0.00    +0.295 HD
ENDBRANCH  18   3
ENDBRANCH  14  18
ENDBRANCH   9  14
TORSDOF 7
ENDMDL
MODEL 6
REMARK VINA RESULT:      -7.4     27.217     29.632
REMARK  Name = 51136657
REMARK  8 active torsions:
REMARK  status: ('A' for Active; 'I' for Inactive)
REMARK    1  A    between atoms: O_3  and  C_18
REMARK    2  A    between atoms: O_5  and  C_26
REMARK    3  A    between atoms: O_5  and  C_32
REMARK    4  A    between atoms: C_8  and  C_13
REMARK    5  A    between atoms: C_9  and  C_14
REMARK    6  A    between atoms: C_13  and  C_15
REMARK    7  A    between atoms: C_14  and  C_18
REMARK    8  A    between atoms: C_16  and  C_22
REMARK                            x       y       z     vdW  Elec       q    Type
REMARK                         _______ _______ _______ _____ _____    ______ ____
ROOT
ATOM      2  O   UNL     1      -1.760 -10.120  14.668  0.00  0.00    -0.270 OA
ATOM      6  N   UNL     1      -3.504 -11.441  15.496  0.00  0.00    -0.297 N 
ATOM      8  C   UNL     1      -5.935 -11.805  15.869  0.00  0.00    +0.016 C 
ATOM      9  C   UNL     1      -5.724 -11.420  17.356  0.00  0.00    +0.006 C 
ATOM     10  C   UNL     1      -4.512 -10.491  17.533  0.00  0.00    +0.023 C 
ATOM     11  C   UNL     1      -4.627 -12.366  15.282  0.00  0.00    +0.112 C 
ATOM     12  C   UNL     1      -3.261 -11.085  16.892  0.00  0.00    +0.108 C 
ATOM     16  C   UNL     1      -2.696 -10.899  14.495  0.00  0.00    +0.247 C 
ENDROOT
BRANCH  16  22
ATOM      1  F   UNL     1      -3.746 -12.352   9.193  0.00  0.00    -0.205 F 
ATOM     22  C   UNL     1      -2.971 -11.280  13.104  0.00  0.00    +0.037 A 
ATOM     27  C   UNL     1      -2.759 -10.363  12.075  0.00  0.00    +0.016 A 
ATOM     28  C   UNL     1      -3.446 -12.559  12.813  0.00  0.00    +0.016 A 
ATOM     29  C   UNL     1      -3.021 -10.725  10.754  0.00  0.00    +0.039 A 
ATOM     30  C   UNL     1      -3.707 -12.921  11.491  0.00  0.00    +0.039 A 
ATOM     31  C   UNL     1      -3.495 -12.004  10.462  0.00  0.00    +0.123 A 
ENDBRANCH  16  22
BRANCH   8  13
ATOM     13  C   UNL     1      -6.460 -10.657  14.998  0.00  0.00    +0.061 C 
BRANCH  13  15
ATOM      7  N   UNL     1      -7.867 -12.246  13.872  0.00  0.00    -0.287 NA
ATOM     15  C   UNL     1      -7.099 -11.213  13.748  0.00  0.00    +0.044 C 
ATOM     17  C   UNL     1      -6.813 -10.558  12.446  0.00  0.00    -0.001 A 
ATOM     19  C   UNL     1      -7.089 -11.301  11.291  0.00  0.00    -0.033 A 
ATOM     20  C   UNL     1      -7.632 -12.691  11.443  0.00  0.00    +0.059 C 
ATOM     21  C   UNL     1      -8.535 -12.749  12.668  0.00  0.00    +0.146 C 
ATOM     23  C   UNL     1      -6.281  -9.270  12.349  0.00  0.00    +0.013 A 
ATOM     24  C   UNL     1      -6.804 -10.758  10.036  0.00  0.00    +0.050 A 
ATOM     25  C   UNL     1      -6.015  -8.729  11.090  0.00  0.00    +0.046 A 
ATOM     26  C   UNL     1      -6.272  -9.471   9.938  0.00  0.00    +0.120 A 
BRANCH  26   5
ATOM      5  O   UNL     1      -6.003  -8.939   8.714  0.00  0.00    -0.495 OA
ATOM     32  C   UNL     1      -5.319  -9.773   7.780  0.00  0.00    +0.277 C 
ENDBRANCH  26   5
ENDBRANCH  13  15
ENDBRANCH   8  13
BRANCH   9  14
ATOM     14  C   UNL     1      -6.969 -10.813  18.002  0.00  0.00    +0.124 C 
BRANCH  14  18
ATOM      4  O   UNL     1      -7.267 -12.082  20.062  0.00  0.00    -0.251 OA
ATOM     18  C   UNL     1      -6.990 -11.039  19.488  0.00  0.00    +0.305 C 
BRANCH  18   3
ATOM      3  O   UNL     1      -6.651  -9.892  20.131  0.00  0.00    -0.481 OA
ATOM     33  H   UNL     1      -6.960  -9.889  21.061  0.00  0.00    +0.295 HD
ENDBRANCH  18   3
ENDBRANCH  14  18
ENDBRANCH   9  14
TORSDOF 7
ENDMDL
MODEL 7
REMARK VINA RESULT:      -7.4     26.751     28.875
REMARK  Name = 51136657
REMARK  8 active torsions:
REMARK  status: ('A' for Active; 'I' for Inactive)
REMARK    1  A    between atoms: O_3  and  C_18
REMARK    2  A    between atoms: O_5  and  C_26
REMARK    3  A    between atoms: O_5  and  C_32
REMARK    4  A    between atoms: C_8  and  C_13
REMARK    5  A    between atoms: C_9  and  C_14
REMARK    6  A    between atoms: C_13  and  C_15
REMARK    7  A    between atoms: C_14  and  C_18
REMARK    8  A    between atoms: C_16  and  C_22
REMARK                            x       y       z     vdW  Elec       q    Type
REMARK                         _______ _______ _______ _____ _____    ______ ____
ROOT
ATOM      2  O   UNL     1      -8.525 -10.647  12.466  0.00  0.00    -0.270 OA
ATOM      6  N   UNL     1      -7.550  -9.980  14.484  0.00  0.00    -0.297 N 
ATOM      8  C   UNL     1      -6.120 -10.489  16.453  0.00  0.00    +0.016 C 
ATOM      9  C   UNL     1      -7.409 -10.639  17.301  0.00  0.00    +0.006 C 
ATOM     10  C   UNL     1      -8.612 -11.046  16.434  0.00  0.00    +0.023 C 
ATOM     11  C   UNL     1      -6.380  -9.547  15.264  0.00  0.00    +0.112 C 
ATOM     12  C   UNL     1      -8.788 -10.099  15.251  0.00  0.00    +0.108 C 
ATOM     16  C   UNL     1      -7.552 -10.278  13.120  0.00  0.00    +0.247 C 
ENDROOT
BRANCH  16  22
ATOM      1  F   UNL     1      -2.736  -9.779  10.314  0.00  0.00    -0.205 F 
ATOM     22  C   UNL     1      -6.289 -10.147  12.384  0.00  0.00    +0.037 A 
ATOM     27  C   UNL     1      -5.996  -8.964  11.707  0.00  0.00    +0.016 A 
ATOM     28  C   UNL     1      -5.381 -11.207  12.362  0.00  0.00    +0.016 A 
ATOM     29  C   UNL     1      -4.796  -8.839  11.008  0.00  0.00    +0.039 A 
ATOM     30  C   UNL     1      -4.181 -11.082  11.662  0.00  0.00    +0.039 A 
ATOM     31  C   UNL     1      -3.889  -9.898  10.985  0.00  0.00    +0.123 A 
ENDBRANCH  16  22
BRANCH   8  13
ATOM     13  C   UNL     1      -5.542 -11.821  15.959  0.00  0.00    +0.061 C 
BRANCH  13  15
ATOM      7  N   UNL     1      -3.448 -10.747  16.437  0.00  0.00    -0.287 NA
ATOM     15  C   UNL     1      -4.045 -11.706  15.808  0.00  0.00    +0.044 C 
ATOM     17  C   UNL     1      -3.335 -12.686  14.946  0.00  0.00    -0.001 A 
ATOM     19  C   UNL     1      -2.048 -12.335  14.519  0.00  0.00    -0.033 A 
ATOM     20  C   UNL     1      -1.487 -11.010  14.940  0.00  0.00    +0.059 C 
ATOM     21  C   UNL     1      -1.986 -10.672  16.338  0.00  0.00    +0.146 C 
ATOM     23  C   UNL     1      -3.905 -13.899  14.554  0.00  0.00    +0.013 A 
ATOM     24  C   UNL     1      -1.343 -13.195  13.673  0.00  0.00    +0.050 A 
ATOM     25  C   UNL     1      -3.187 -14.759  13.721  0.00  0.00    +0.046 A 
ATOM     26  C   UNL     1      -1.912 -14.407  13.280  0.00  0.00    +0.120 A 
BRANCH  26   5
ATOM      5  O   UNL     1      -1.221 -15.248  12.462  0.00  0.00    -0.495 OA
ATOM     32  C   UNL     1      -1.974 -15.979  11.496  0.00  0.00    +0.277 C 
ENDBRANCH  26   5
ENDBRANCH  13  15
ENDBRANCH   8  13
BRANCH   9  14
ATOM     14  C   UNL     1      -7.245 -11.596  18.481  0.00  0.00    +0.124 C 
BRANCH  14  18
ATOM      4  O   UNL     1      -5.136 -11.581  19.704  0.00  0.00    -0.251 OA
ATOM     18  C   UNL     1      -6.231 -11.091  19.469  0.00  0.00    +0.305 C 
BRANCH  18   3
ATOM      3  O   UNL     1      -6.707  -9.981  20.089  0.00  0.00    -0.481 OA
ATOM     33  H   UNL     1      -6.268  -9.166  19.768  0.00  0.00    +0.295 HD
ENDBRANCH  18   3
ENDBRANCH  14  18
ENDBRANCH   9  14
TORSDOF 7
ENDMDL
MODEL 8
REMARK VINA RESULT:      -7.3     12.645     16.310
REMARK  Name = 51136657
REMARK  8 active torsions:
REMARK  status: ('A' for Active; 'I' for Inactive)
REMARK    1  A    between atoms: O_3  and  C_18
REMARK    2  A    between atoms: O_5  and  C_26
REMARK    3  A    between atoms: O_5  and  C_32
REMARK    4  A    between atoms: C_8  and  C_13
REMARK    5  A    between atoms: C_9  and  C_14
REMARK    6  A    between atoms: C_13  and  C_15
REMARK    7  A    between atoms: C_14  and  C_18
REMARK    8  A    between atoms: C_16  and  C_22
REMARK                            x       y       z     vdW  Elec       q    Type
REMARK                         _______ _______ _______ _____ _____    ______ ____
ROOT
ATOM      2  O   UNL     1      15.413   6.597   4.043  0.00  0.00    -0.270 OA
ATOM      6  N   UNL     1      13.585   7.021   2.646  0.00  0.00    -0.297 N 
ATOM      8  C   UNL     1      11.218   6.599   2.016  0.00  0.00    +0.016 C 
ATOM      9  C   UNL     1      11.728   5.736   0.833  0.00  0.00    +0.006 C 
ATOM     10  C   UNL     1      13.116   5.141   1.124  0.00  0.00    +0.023 C 
ATOM     11  C   UNL     1      12.279   7.648   2.395  0.00  0.00    +0.112 C 
ATOM     12  C   UNL     1      14.107   6.225   1.536  0.00  0.00    +0.108 C 
ATOM     16  C   UNL     1      14.324   7.125   3.826  0.00  0.00    +0.247 C 
ENDROOT
BRANCH  16  22
ATOM      1  F   UNL     1      12.202  10.201   7.993  0.00  0.00    -0.205 F 
ATOM     22  C   UNL     1      13.767   7.931   4.919  0.00  0.00    +0.037 A 
ATOM     27  C   UNL     1      12.987   7.327   5.905  0.00  0.00    +0.016 A 
ATOM     28  C   UNL     1      14.018   9.303   4.971  0.00  0.00    +0.016 A 
ATOM     29  C   UNL     1      12.458   8.093   6.943  0.00  0.00    +0.039 A 
ATOM     30  C   UNL     1      13.489  10.069   6.010  0.00  0.00    +0.039 A 
ATOM     31  C   UNL     1      12.709   9.464   6.995  0.00  0.00    +0.123 A 
ENDBRANCH  16  22
BRANCH   8  13
ATOM     13  C   UNL     1      10.809   5.785   3.250  0.00  0.00    +0.061 C 
BRANCH  13  15
ATOM      7  N   UNL     1       9.021   7.383   3.375  0.00  0.00    -0.287 NA
ATOM     15  C   UNL     1       9.738   6.520   4.017  0.00  0.00    +0.044 C 
ATOM     17  C   UNL     1       9.563   6.226   5.463  0.00  0.00    -0.001 A 
ATOM     19  C   UNL     1       8.855   7.170   6.218  0.00  0.00    -0.033 A 
ATOM     20  C   UNL     1       8.342   8.401   5.533  0.00  0.00    +0.059 C 
ATOM     21  C   UNL     1       7.940   8.053   4.105  0.00  0.00    +0.146 C 
ATOM     23  C   UNL     1      10.082   5.080   6.068  0.00  0.00    +0.013 A 
ATOM     24  C   UNL     1       8.692   6.973   7.592  0.00  0.00    +0.050 A 
ATOM     25  C   UNL     1       9.900   4.883   7.438  0.00  0.00    +0.046 A 
ATOM     26  C   UNL     1       9.210   5.828   8.198  0.00  0.00    +0.120 A 
BRANCH  26   5
ATOM      5  O   UNL     1       9.043   5.632   9.535  0.00  0.00    -0.495 OA
ATOM     32  C   UNL     1       9.326   4.328  10.040  0.00  0.00    +0.277 C 
ENDBRANCH  26   5
ENDBRANCH  13  15
ENDBRANCH   8  13
BRANCH   9  14
ATOM     14  C   UNL     1      10.746   4.639   0.423  0.00  0.00    +0.124 C 
BRANCH  14  18
ATOM      4  O   UNL     1      10.543   3.359  -1.642  0.00  0.00    -0.251 OA
ATOM     18  C   UNL     1      10.753   4.415  -1.064  0.00  0.00    +0.305 C 
BRANCH  18   3
ATOM      3  O   UNL     1      11.033   5.580  -1.702  0.00  0.00    -0.481 OA
ATOM     33  H   UNL     1      11.618   6.158  -1.169  0.00  0.00    +0.295 HD
ENDBRANCH  18   3
ENDBRANCH  14  18
ENDBRANCH   9  14
TORSDOF 7
ENDMDL
MODEL 9
REMARK VINA RESULT:      -7.2     26.321     29.812
REMARK  Name = 51136657
REMARK  8 active torsions:
REMARK  status: ('A' for Active; 'I' for Inactive)
REMARK    1  A    between atoms: O_3  and  C_18
REMARK    2  A    between atoms: O_5  and  C_26
REMARK    3  A    between atoms: O_5  and  C_32
REMARK    4  A    between atoms: C_8  and  C_13
REMARK    5  A    between atoms: C_9  and  C_14
REMARK    6  A    between atoms: C_13  and  C_15
REMARK    7  A    between atoms: C_14  and  C_18
REMARK    8  A    between atoms: C_16  and  C_22
REMARK                            x       y       z     vdW  Elec       q    Type
REMARK                         _______ _______ _______ _____ _____    ______ ____
ROOT
ATOM      2  O   UNL     1      -8.077 -11.444  18.562  0.00  0.00    -0.270 OA
ATOM      6  N   UNL     1      -6.353 -10.349  17.420  0.00  0.00    -0.297 N 
ATOM      8  C   UNL     1      -4.699 -10.295  15.565  0.00  0.00    +0.016 C 
ATOM      9  C   UNL     1      -3.593 -10.640  16.594  0.00  0.00    +0.006 C 
ATOM     10  C   UNL     1      -4.161 -11.407  17.800  0.00  0.00    +0.023 C 
ATOM     11  C   UNL     1      -5.865  -9.576  16.269  0.00  0.00    +0.112 C 
ATOM     12  C   UNL     1      -5.338 -10.663  18.423  0.00  0.00    +0.108 C 
ATOM     16  C   UNL     1      -7.665 -10.791  17.604  0.00  0.00    +0.247 C 
ENDROOT
BRANCH  16  22
ATOM      1  F   UNL     1     -11.443  -9.518  13.677  0.00  0.00    -0.205 F 
ATOM     22  C   UNL     1      -8.656 -10.457  16.574  0.00  0.00    +0.037 A 
ATOM     27  C   UNL     1      -9.155  -9.158  16.482  0.00  0.00    +0.016 A 
ATOM     28  C   UNL     1      -9.099 -11.439  15.688  0.00  0.00    +0.016 A 
ATOM     29  C   UNL     1     -10.096  -8.840  15.503  0.00  0.00    +0.039 A 
ATOM     30  C   UNL     1     -10.041 -11.122  14.709  0.00  0.00    +0.039 A 
ATOM     31  C   UNL     1     -10.539  -9.822  14.617  0.00  0.00    +0.123 A 
ENDBRANCH  16  22
BRANCH   8  13
ATOM     13  C   UNL     1      -5.218 -11.506  14.779  0.00  0.00    +0.061 C 
BRANCH  13  15
ATOM      7  N   UNL     1      -3.769 -11.927  12.911  0.00  0.00    -0.287 NA
ATOM     15  C   UNL     1      -4.858 -11.363  13.321  0.00  0.00    +0.044 C 
ATOM     17  C   UNL     1      -5.759 -10.583  12.434  0.00  0.00    -0.001 A 
ATOM     19  C   UNL     1      -5.223 -10.146  11.216  0.00  0.00    -0.033 A 
ATOM     20  C   UNL     1      -3.795 -10.475  10.899  0.00  0.00    +0.059 C 
ATOM     21  C   UNL     1      -3.451 -11.840  11.482  0.00  0.00    +0.146 C 
ATOM     23  C   UNL     1      -7.077 -10.274  12.779  0.00  0.00    +0.013 A 
ATOM     24  C   UNL     1      -6.006  -9.373  10.355  0.00  0.00    +0.050 A 
ATOM     25  C   UNL     1      -7.857  -9.515  11.906  0.00  0.00    +0.046 A 
ATOM     26  C   UNL     1      -7.322  -9.063  10.699  0.00  0.00    +0.120 A 
BRANCH  26   5
ATOM      5  O   UNL     1      -8.088  -8.316   9.855  0.00  0.00    -0.495 OA
ATOM     32  C   UNL     1      -7.772  -8.379   8.466  0.00  0.00    +0.277 C 
ENDBRANCH  26   5
ENDBRANCH  13  15
ENDBRANCH   8  13
BRANCH   9  14
ATOM     14  C   UNL     1      -2.415 -11.397  15.980  0.00  0.00    +0.124 C 
BRANCH  14  18
ATOM      4  O   UNL     1      -1.506  -9.913  14.273  0.00  0.00    -0.251 OA
ATOM     18  C   UNL     1      -1.415 -10.460  15.362  0.00  0.00    +0.305 C 
BRANCH  18   3
ATOM      3  O   UNL     1      -0.360 -10.297  16.201  0.00  0.00    -0.481 OA
ATOM     33  H   UNL     1       0.107 -11.141  16.371  0.00  0.00    +0.295 HD
ENDBRANCH  18   3
ENDBRANCH  14  18
ENDBRANCH   9  14
TORSDOF 7
ENDMDL
MODEL 10
REMARK VINA RESULT:      -7.2      3.829      6.699
REMARK  Name = 51136657
REMARK  8 active torsions:
REMARK  status: ('A' for Active; 'I' for Inactive)
REMARK    1  A    between atoms: O_3  and  C_18
REMARK    2  A    between atoms: O_5  and  C_26
REMARK    3  A    between atoms: O_5  and  C_32
REMARK    4  A    between atoms: C_8  and  C_13
REMARK    5  A    between atoms: C_9  and  C_14
REMARK    6  A    between atoms: C_13  and  C_15
REMARK    7  A    between atoms: C_14  and  C_18
REMARK    8  A    between atoms: C_16  and  C_22
REMARK                            x       y       z     vdW  Elec       q    Type
REMARK                         _______ _______ _______ _____ _____    ______ ____
ROOT
ATOM      2  O   UNL     1      10.928   8.271  19.961  0.00  0.00    -0.270 OA
ATOM      6  N   UNL     1      12.955   7.854  21.052  0.00  0.00    -0.297 N 
ATOM      8  C   UNL     1      15.357   8.389  21.402  0.00  0.00    +0.016 C 
ATOM      9  C   UNL     1      15.717   7.128  20.576  0.00  0.00    +0.006 C 
ATOM     10  C   UNL     1      14.604   6.767  19.579  0.00  0.00    +0.023 C 
ATOM     11  C   UNL     1      13.972   8.213  22.051  0.00  0.00    +0.112 C 
ATOM     12  C   UNL     1      13.252   6.651  20.278  0.00  0.00    +0.108 C 
ATOM     16  C   UNL     1      11.778   8.563  20.800  0.00  0.00    +0.247 C 
ENDROOT
BRANCH  16  22
ATOM      1  F   UNL     1      10.772  13.155  23.837  0.00  0.00    -0.205 F 
ATOM     22  C   UNL     1      11.515   9.767  21.596  0.00  0.00    +0.037 A 
ATOM     27  C   UNL     1      11.748  11.029  21.051  0.00  0.00    +0.016 A 
ATOM     28  C   UNL     1      11.031   9.649  22.899  0.00  0.00    +0.016 A 
ATOM     29  C   UNL     1      11.497  12.173  21.807  0.00  0.00    +0.039 A 
ATOM     30  C   UNL     1      10.780  10.794  23.656  0.00  0.00    +0.039 A 
ATOM     31  C   UNL     1      11.013  12.055  23.110  0.00  0.00    +0.123 A 
ENDBRANCH  16  22
BRANCH   8  13
ATOM     13  C   UNL     1      15.406   9.694  20.598  0.00  0.00    +0.061 C 
BRANCH  13  15
ATOM      7  N   UNL     1      17.579  10.715  20.545  0.00  0.00    -0.287 NA
ATOM     15  C   UNL     1      16.455  10.613  21.175  0.00  0.00    +0.044 C 
ATOM     17  C   UNL     1      16.153  11.344  22.432  0.00  0.00    -0.001 A 
ATOM     19  C   UNL     1      17.246  11.866  23.137  0.00  0.00    -0.033 A 
ATOM     20  C   UNL     1      18.625  11.643  22.594  0.00  0.00    +0.059 C 
ATOM     21  C   UNL     1      18.575  11.653  21.071  0.00  0.00    +0.146 C 
ATOM     23  C   UNL     1      14.854  11.506  22.918  0.00  0.00    +0.013 A 
ATOM     24  C   UNL     1      17.033  12.530  24.348  0.00  0.00    +0.050 A 
ATOM     25  C   UNL     1      14.650  12.184  24.121  0.00  0.00    +0.046 A 
ATOM     26  C   UNL     1      15.735  12.691  24.836  0.00  0.00    +0.120 A 
BRANCH  26   5
ATOM      5  O   UNL     1      15.528  13.345  26.012  0.00  0.00    -0.495 OA
ATOM     32  C   UNL     1      14.191  13.379  26.508  0.00  0.00    +0.277 C 
ENDBRANCH  26   5
ENDBRANCH  13  15
ENDBRANCH   8  13
BRANCH   9  14
ATOM     14  C   UNL     1      17.064   7.242  19.862  0.00  0.00    +0.124 C 
BRANCH  14  18
ATOM      4  O   UNL     1      18.509   6.414  21.643  0.00  0.00    -0.251 OA
ATOM     18  C   UNL     1      18.103   6.356  20.491  0.00  0.00    +0.305 C 
BRANCH  18   3
ATOM      3  O   UNL     1      18.548   5.452  19.581  0.00  0.00    -0.481 OA
ATOM     33  H   UNL     1      19.486   5.604  19.342  0.00  0.00    +0.295 HD
ENDBRANCH  18   3
ENDBRANCH  14  18
ENDBRANCH   9  14
TORSDOF 7
ENDMDL
