MODEL 1
REMARK VINA RESULT:      -7.3      0.000      0.000
REMARK  Name = 7142689
REMARK  7 active torsions:
REMARK  status: ('A' for Active; 'I' for Inactive)
REMARK    1  A    between atoms: O_4  and  C_28
REMARK    2  A    between atoms: O_4  and  C_34
REMARK    3  A    between atoms: O_5  and  C_36
REMARK    4  A    between atoms: N_9  and  C_20
REMARK    5  A    between atoms: C_19  and  C_22
REMARK    6  A    between atoms: C_25  and  C_29
REMARK    7  A    between atoms: C_32  and  C_36
REMARK                            x       y       z     vdW  Elec       q    Type
REMARK                         _______ _______ _______ _____ _____    ______ ____
ROOT
ATOM      1  O   UNL     1      13.808   7.296   2.202  0.00  0.00    -0.266 OA
ATOM      2  O   UNL     1      13.145   7.807  -2.903  0.00  0.00    -0.270 OA
ATOM      7  N   UNL     1      14.657   6.054  -2.555  0.00  0.00    -0.297 N 
ATOM      8  N   UNL     1      14.731   5.857   0.609  0.00  0.00    -0.310 N 
ATOM     10  C   UNL     1      16.551   6.595  -1.035  0.00  0.00    +0.027 C 
ATOM     11  C   UNL     1      15.675   4.295  -1.128  0.00  0.00    +0.054 C 
ATOM     12  C   UNL     1      16.954   5.124  -1.027  0.00  0.00    +0.018 C 
ATOM     13  C   UNL     1      15.800   6.939  -2.334  0.00  0.00    +0.113 C 
ATOM     14  C   UNL     1      15.707   6.881   0.214  0.00  0.00    +0.130 C 
ATOM     15  C   UNL     1      14.954   4.616  -2.453  0.00  0.00    +0.117 C 
ATOM     16  C   UNL     1      14.749   4.579   0.039  0.00  0.00    +0.027 A 
ATOM     17  C   UNL     1      13.924   3.622   0.496  0.00  0.00    +0.024 A 
ATOM     18  C   UNL     1      13.849   6.193   1.657  0.00  0.00    +0.273 A 
ATOM     19  C   UNL     1      13.400   6.607  -2.817  0.00  0.00    +0.247 C 
ATOM     20  C   UNL     1      12.927   5.107   2.120  0.00  0.00    +0.099 A 
ATOM     21  C   UNL     1      12.995   3.895   1.558  0.00  0.00    +0.030 A 
ENDROOT
BRANCH  19  22
ATOM     22  C   UNL     1      12.269   5.690  -2.989  0.00  0.00    +0.037 A 
ATOM     23  C   UNL     1      11.893   5.287  -4.267  0.00  0.00    +0.016 A 
ATOM     24  C   UNL     1      11.575   5.228  -1.873  0.00  0.00    +0.016 A 
ATOM     26  C   UNL     1      10.817   4.414  -4.432  0.00  0.00    +0.046 A 
ATOM     27  C   UNL     1      10.499   4.355  -2.038  0.00  0.00    +0.046 A 
ATOM     28  C   UNL     1      10.120   3.949  -3.316  0.00  0.00    +0.120 A 
BRANCH  28   4
ATOM      4  O   UNL     1       9.069   3.099  -3.477  0.00  0.00    -0.495 OA
ATOM     34  C   UNL     1       9.366   1.705  -3.544  0.00  0.00    +0.277 C 
ENDBRANCH  28   4
ENDBRANCH  19  22
BRANCH  20   9
ATOM      3  O   UNL     1      10.232   5.981   1.786  0.00  0.00    -0.270 OA
ATOM      9  N   UNL     1      12.047   5.398   3.119  0.00  0.00    -0.277 N 
ATOM     25  C   UNL     1      10.744   5.820   2.892  0.00  0.00    +0.248 C 
ATOM     37  H   UNL     1      12.447   5.430   4.050  0.00  0.00    +0.155 HD
BRANCH  25  29
ATOM     29  C   UNL     1       9.925   6.067   4.107  0.00  0.00    +0.038 A 
ATOM     30  C   UNL     1      10.224   5.377   5.264  0.00  0.00    +0.028 A 
ATOM     31  C   UNL     1       8.894   6.981   4.040  0.00  0.00    +0.013 A 
ATOM     32  C   UNL     1       9.456   5.609   6.404  0.00  0.00    +0.060 A 
ATOM     33  C   UNL     1       8.127   7.214   5.180  0.00  0.00    +0.002 A 
ATOM     35  C   UNL     1       8.407   6.529   6.363  0.00  0.00    +0.015 A 
BRANCH  32  36
ATOM      6  O   UNL     1       9.633   5.358   8.776  0.00  0.00    -0.245 OA
ATOM     36  C   UNL     1       9.748   4.895   7.637  0.00  0.00    +0.337 C 
BRANCH  36   5
ATOM      5  O   UNL     1      10.172   3.621   7.412  0.00  0.00    -0.477 OA
ATOM     38  H   UNL     1       9.828   2.997   8.086  0.00  0.00    +0.295 HD
ENDBRANCH  36   5
ENDBRANCH  32  36
ENDBRANCH  25  29
ENDBRANCH  20   9
TORSDOF 6
ENDMDL
MODEL 2
REMARK VINA RESULT:      -7.2      5.748     10.532
REMARK  Name = 7142689
REMARK  7 active torsions:
REMARK  status: ('A' for Active; 'I' for Inactive)
REMARK    1  A    between atoms: O_4  and  C_28
REMARK    2  A    between atoms: O_4  and  C_34
REMARK    3  A    between atoms: O_5  and  C_36
REMARK    4  A    between atoms: N_9  and  C_20
REMARK    5  A    between atoms: C_19  and  C_22
REMARK    6  A    between atoms: C_25  and  C_29
REMARK    7  A    between atoms: C_32  and  C_36
REMARK                            x       y       z     vdW  Elec       q    Type
REMARK                         _______ _______ _______ _____ _____    ______ ____
ROOT
ATOM      1  O   UNL     1      12.685   7.578   3.595  0.00  0.00    -0.266 OA
ATOM      2  O   UNL     1       9.291  11.075   5.330  0.00  0.00    -0.270 OA
ATOM      7  N   UNL     1       8.669   8.992   6.195  0.00  0.00    -0.297 N 
ATOM      8  N   UNL     1      10.988   7.108   5.131  0.00  0.00    -0.310 N 
ATOM     10  C   UNL     1       8.504   7.168   4.511  0.00  0.00    +0.027 C 
ATOM     11  C   UNL     1       9.178   6.643   6.820  0.00  0.00    +0.054 C 
ATOM     12  C   UNL     1       8.344   6.153   5.637  0.00  0.00    +0.018 C 
ATOM     13  C   UNL     1       8.012   8.554   4.964  0.00  0.00    +0.113 C 
ATOM     14  C   UNL     1       9.973   7.191   4.071  0.00  0.00    +0.130 C 
ATOM     15  C   UNL     1       8.648   8.012   7.293  0.00  0.00    +0.117 C 
ATOM     16  C   UNL     1      10.641   6.765   6.442  0.00  0.00    +0.027 A 
ATOM     17  C   UNL     1      11.597   6.581   7.369  0.00  0.00    +0.024 A 
ATOM     18  C   UNL     1      12.330   7.292   4.739  0.00  0.00    +0.273 A 
ATOM     19  C   UNL     1       9.270  10.252   6.243  0.00  0.00    +0.247 C 
ATOM     20  C   UNL     1      13.363   7.105   5.807  0.00  0.00    +0.099 A 
ATOM     21  C   UNL     1      12.984   6.757   7.042  0.00  0.00    +0.030 A 
ENDROOT
BRANCH  19  22
ATOM     22  C   UNL     1       9.958  10.638   7.480  0.00  0.00    +0.037 A 
ATOM     23  C   UNL     1       9.218  11.054   8.583  0.00  0.00    +0.016 A 
ATOM     24  C   UNL     1      11.349  10.588   7.544  0.00  0.00    +0.016 A 
ATOM     26  C   UNL     1       9.871  11.422   9.760  0.00  0.00    +0.046 A 
ATOM     27  C   UNL     1      12.002  10.956   8.721  0.00  0.00    +0.046 A 
ATOM     28  C   UNL     1      11.264  11.372   9.827  0.00  0.00    +0.120 A 
BRANCH  28   4
ATOM      4  O   UNL     1      11.902  11.732  10.975  0.00  0.00    -0.495 OA
ATOM     34  C   UNL     1      11.087  12.168  12.062  0.00  0.00    +0.277 C 
ENDBRANCH  28   4
ENDBRANCH  19  22
BRANCH  20   9
ATOM      3  O   UNL     1      14.929   9.425   6.364  0.00  0.00    -0.270 OA
ATOM      9  N   UNL     1      14.671   7.292   5.471  0.00  0.00    -0.277 N 
ATOM     25  C   UNL     1      15.381   8.447   5.771  0.00  0.00    +0.248 C 
ATOM     37  H   UNL     1      15.061   6.590   4.854  0.00  0.00    +0.155 HD
BRANCH  25  29
ATOM     29  C   UNL     1      16.804   8.458   5.345  0.00  0.00    +0.038 A 
ATOM     30  C   UNL     1      17.775   8.777   6.272  0.00  0.00    +0.028 A 
ATOM     31  C   UNL     1      17.109   8.148   4.037  0.00  0.00    +0.013 A 
ATOM     32  C   UNL     1      19.110   8.787   5.873  0.00  0.00    +0.060 A 
ATOM     33  C   UNL     1      18.445   8.157   3.637  0.00  0.00    +0.002 A 
ATOM     35  C   UNL     1      19.446   8.476   4.554  0.00  0.00    +0.015 A 
BRANCH  32  36
ATOM      6  O   UNL     1      20.552  10.261   7.085  0.00  0.00    -0.245 OA
ATOM     36  C   UNL     1      20.155   9.120   6.829  0.00  0.00    +0.337 C 
BRANCH  36   5
ATOM      5  O   UNL     1      20.672   8.019   7.440  0.00  0.00    -0.477 OA
ATOM     38  H   UNL     1      21.045   7.383   6.792  0.00  0.00    +0.295 HD
ENDBRANCH  36   5
ENDBRANCH  32  36
ENDBRANCH  25  29
ENDBRANCH  20   9
TORSDOF 6
ENDMDL
MODEL 3
REMARK VINA RESULT:      -7.0     25.076     30.321
REMARK  Name = 7142689
REMARK  7 active torsions:
REMARK  status: ('A' for Active; 'I' for Inactive)
REMARK    1  A    between atoms: O_4  and  C_28
REMARK    2  A    between atoms: O_4  and  C_34
REMARK    3  A    between atoms: O_5  and  C_36
REMARK    4  A    between atoms: N_9  and  C_20
REMARK    5  A    between atoms: C_19  and  C_22
REMARK    6  A    between atoms: C_25  and  C_29
REMARK    7  A    between atoms: C_32  and  C_36
REMARK                            x       y       z     vdW  Elec       q    Type
REMARK                         _______ _______ _______ _____ _____    ______ ____
ROOT
ATOM      1  O   UNL     1      -6.263 -13.163  15.434  0.00  0.00    -0.266 OA
ATOM      2  O   UNL     1     -11.310 -12.323  16.200  0.00  0.00    -0.270 OA
ATOM      7  N   UNL     1     -10.214 -11.971  18.238  0.00  0.00    -0.297 N 
ATOM      8  N   UNL     1      -7.172 -12.374  17.437  0.00  0.00    -0.310 N 
ATOM     10  C   UNL     1      -8.682 -13.805  18.931  0.00  0.00    +0.027 C 
ATOM     11  C   UNL     1      -8.176 -11.481  19.569  0.00  0.00    +0.054 C 
ATOM     12  C   UNL     1      -8.155 -12.927  20.061  0.00  0.00    +0.018 C 
ATOM     13  C   UNL     1     -10.118 -13.395  18.558  0.00  0.00    +0.113 C 
ATOM     14  C   UNL     1      -7.723 -13.703  17.738  0.00  0.00    +0.130 C 
ATOM     15  C   UNL     1      -9.624 -11.068  19.240  0.00  0.00    +0.117 C 
ATOM     16  C   UNL     1      -7.304 -11.312  18.339  0.00  0.00    +0.027 A 
ATOM     17  C   UNL     1      -6.694 -10.140  18.097  0.00  0.00    +0.024 A 
ATOM     18  C   UNL     1      -6.423 -12.253  16.249  0.00  0.00    +0.273 A 
ATOM     19  C   UNL     1     -10.816 -11.574  17.041  0.00  0.00    +0.247 C 
ATOM     20  C   UNL     1      -5.782 -10.922  16.003  0.00  0.00    +0.099 A 
ATOM     21  C   UNL     1      -5.919  -9.944  16.904  0.00  0.00    +0.030 A 
ENDROOT
BRANCH  19  22
ATOM     22  C   UNL     1     -10.854 -10.140  16.734  0.00  0.00    +0.037 A 
ATOM     23  C   UNL     1      -9.743  -9.525  16.161  0.00  0.00    +0.016 A 
ATOM     24  C   UNL     1     -11.999  -9.400  17.017  0.00  0.00    +0.016 A 
ATOM     26  C   UNL     1      -9.778  -8.161  15.869  0.00  0.00    +0.046 A 
ATOM     27  C   UNL     1     -12.035  -8.037  16.724  0.00  0.00    +0.046 A 
ATOM     28  C   UNL     1     -10.925  -7.418  16.151  0.00  0.00    +0.120 A 
BRANCH  28   4
ATOM      4  O   UNL     1     -10.959  -6.087  15.867  0.00  0.00    -0.495 OA
ATOM     34  C   UNL     1     -11.910  -5.654  14.894  0.00  0.00    +0.277 C 
ENDBRANCH  28   4
ENDBRANCH  19  22
BRANCH  20   9
ATOM      3  O   UNL     1      -6.756  -9.849  13.545  0.00  0.00    -0.270 OA
ATOM      9  N   UNL     1      -5.063 -10.760  14.855  0.00  0.00    -0.277 N 
ATOM     25  C   UNL     1      -5.596 -10.230  13.688  0.00  0.00    +0.248 C 
ATOM     37  H   UNL     1      -4.145 -11.189  14.858  0.00  0.00    +0.155 HD
BRANCH  25  29
ATOM     29  C   UNL     1      -4.652 -10.109  12.546  0.00  0.00    +0.038 A 
ATOM     30  C   UNL     1      -5.139  -9.710  11.319  0.00  0.00    +0.028 A 
ATOM     31  C   UNL     1      -3.320 -10.400  12.751  0.00  0.00    +0.013 A 
ATOM     32  C   UNL     1      -4.254  -9.596  10.248  0.00  0.00    +0.060 A 
ATOM     33  C   UNL     1      -2.434 -10.285  11.681  0.00  0.00    +0.002 A 
ATOM     35  C   UNL     1      -2.900  -9.884  10.428  0.00  0.00    +0.015 A 
BRANCH  32  36
ATOM      6  O   UNL     1      -4.725  -9.869   7.919  0.00  0.00    -0.245 OA
ATOM     36  C   UNL     1      -4.739  -9.178   8.942  0.00  0.00    +0.337 C 
BRANCH  36   5
ATOM      5  O   UNL     1      -5.231  -7.908   8.952  0.00  0.00    -0.477 OA
ATOM     38  H   UNL     1      -4.517  -7.240   8.877  0.00  0.00    +0.295 HD
ENDBRANCH  36   5
ENDBRANCH  32  36
ENDBRANCH  25  29
ENDBRANCH  20   9
TORSDOF 6
ENDMDL
MODEL 4
REMARK VINA RESULT:      -7.0     33.960     36.857
REMARK  Name = 7142689
REMARK  7 active torsions:
REMARK  status: ('A' for Active; 'I' for Inactive)
REMARK    1  A    between atoms: O_4  and  C_28
REMARK    2  A    between atoms: O_4  and  C_34
REMARK    3  A    between atoms: O_5  and  C_36
REMARK    4  A    between atoms: N_9  and  C_20
REMARK    5  A    between atoms: C_19  and  C_22
REMARK    6  A    between atoms: C_25  and  C_29
REMARK    7  A    between atoms: C_32  and  C_36
REMARK                            x       y       z     vdW  Elec       q    Type
REMARK                         _______ _______ _______ _____ _____    ______ ____
ROOT
ATOM      1  O   UNL     1       9.607  -9.530  31.999  0.00  0.00    -0.266 OA
ATOM      2  O   UNL     1       8.420  -9.273  37.028  0.00  0.00    -0.270 OA
ATOM      7  N   UNL     1       8.021  -7.164  36.095  0.00  0.00    -0.297 N 
ATOM      8  N   UNL     1       8.653  -7.661  33.027  0.00  0.00    -0.310 N 
ATOM     10  C   UNL     1       9.902  -6.242  34.754  0.00  0.00    +0.027 C 
ATOM     11  C   UNL     1       7.582  -5.679  34.154  0.00  0.00    +0.054 C 
ATOM     12  C   UNL     1       8.996  -5.114  34.272  0.00  0.00    +0.018 C 
ATOM     13  C   UNL     1       9.428  -6.765  36.121  0.00  0.00    +0.113 C 
ATOM     14  C   UNL     1       9.926  -7.345  33.689  0.00  0.00    +0.130 C 
ATOM     15  C   UNL     1       7.100  -6.160  35.538  0.00  0.00    +0.117 C 
ATOM     16  C   UNL     1       7.536  -6.831  33.168  0.00  0.00    +0.027 A 
ATOM     17  C   UNL     1       6.418  -7.074  32.464  0.00  0.00    +0.024 A 
ATOM     18  C   UNL     1       8.645  -8.781  32.170  0.00  0.00    +0.273 A 
ATOM     19  C   UNL     1       7.656  -8.430  36.561  0.00  0.00    +0.247 C 
ATOM     20  C   UNL     1       7.371  -9.034  31.424  0.00  0.00    +0.099 A 
ATOM     21  C   UNL     1       6.337  -8.199  31.576  0.00  0.00    +0.030 A 
ENDROOT
BRANCH  19  22
ATOM     22  C   UNL     1       6.243  -8.811  36.478  0.00  0.00    +0.037 A 
ATOM     23  C   UNL     1       5.416  -8.652  37.587  0.00  0.00    +0.016 A 
ATOM     24  C   UNL     1       5.734  -9.332  35.291  0.00  0.00    +0.016 A 
ATOM     26  C   UNL     1       4.071  -9.015  37.509  0.00  0.00    +0.046 A 
ATOM     27  C   UNL     1       4.389  -9.695  35.212  0.00  0.00    +0.046 A 
ATOM     28  C   UNL     1       3.558  -9.537  36.321  0.00  0.00    +0.120 A 
BRANCH  28   4
ATOM      4  O   UNL     1       2.246  -9.892  36.245  0.00  0.00    -0.495 OA
ATOM     34  C   UNL     1       1.917 -11.237  36.588  0.00  0.00    +0.277 C 
ENDBRANCH  28   4
ENDBRANCH  19  22
BRANCH  20   9
ATOM      3  O   UNL     1       6.364 -11.617  32.099  0.00  0.00    -0.270 OA
ATOM      9  N   UNL     1       7.318 -10.117  30.597  0.00  0.00    -0.277 N 
ATOM     25  C   UNL     1       6.815 -11.352  30.986  0.00  0.00    +0.248 C 
ATOM     37  H   UNL     1       7.807 -10.011  29.717  0.00  0.00    +0.155 HD
BRANCH  25  29
ATOM     29  C   UNL     1       6.818 -12.407  29.940  0.00  0.00    +0.038 A 
ATOM     30  C   UNL     1       5.734 -13.256  29.847  0.00  0.00    +0.028 A 
ATOM     31  C   UNL     1       7.903 -12.502  29.095  0.00  0.00    +0.013 A 
ATOM     32  C   UNL     1       5.737 -14.246  28.865  0.00  0.00    +0.060 A 
ATOM     33  C   UNL     1       7.906 -13.491  28.112  0.00  0.00    +0.002 A 
ATOM     35  C   UNL     1       6.823 -14.364  27.997  0.00  0.00    +0.015 A 
BRANCH  32  36
ATOM      6  O   UNL     1       4.685 -16.388  28.703  0.00  0.00    -0.245 OA
ATOM     36  C   UNL     1       4.609 -15.156  28.745  0.00  0.00    +0.337 C 
BRANCH  36   5
ATOM      5  O   UNL     1       3.417 -14.501  28.681  0.00  0.00    -0.477 OA
ATOM     38  H   UNL     1       2.657 -15.118  28.747  0.00  0.00    +0.295 HD
ENDBRANCH  36   5
ENDBRANCH  32  36
ENDBRANCH  25  29
ENDBRANCH  20   9
TORSDOF 6
ENDMDL
MODEL 5
REMARK VINA RESULT:      -6.9      5.026      8.808
REMARK  Name = 7142689
REMARK  7 active torsions:
REMARK  status: ('A' for Active; 'I' for Inactive)
REMARK    1  A    between atoms: O_4  and  C_28
REMARK    2  A    between atoms: O_4  and  C_34
REMARK    3  A    between atoms: O_5  and  C_36
REMARK    4  A    between atoms: N_9  and  C_20
REMARK    5  A    between atoms: C_19  and  C_22
REMARK    6  A    between atoms: C_25  and  C_29
REMARK    7  A    between atoms: C_32  and  C_36
REMARK                            x       y       z     vdW  Elec       q    Type
REMARK                         _______ _______ _______ _____ _____    ______ ____
ROOT
ATOM      1  O   UNL     1      13.858   6.421   7.232  0.00  0.00    -0.266 OA
ATOM      2  O   UNL     1      10.250   5.071   3.779  0.00  0.00    -0.270 OA
ATOM      7  N   UNL     1       9.294   6.641   5.228  0.00  0.00    -0.297 N 
ATOM      8  N   UNL     1      11.744   7.407   7.091  0.00  0.00    -0.310 N 
ATOM     10  C   UNL     1       9.587   6.143   7.648  0.00  0.00    +0.027 C 
ATOM     11  C   UNL     1       9.474   8.482   6.885  0.00  0.00    +0.054 C 
ATOM     12  C   UNL     1       9.035   7.523   7.991  0.00  0.00    +0.018 C 
ATOM     13  C   UNL     1       9.040   5.669   6.290  0.00  0.00    +0.113 C 
ATOM     14  C   UNL     1      11.119   6.206   7.664  0.00  0.00    +0.130 C 
ATOM     15  C   UNL     1       8.884   8.021   5.537  0.00  0.00    +0.117 C 
ATOM     16  C   UNL     1      10.987   8.543   6.787  0.00  0.00    +0.027 A 
ATOM     17  C   UNL     1      11.592   9.669   6.373  0.00  0.00    +0.024 A 
ATOM     18  C   UNL     1      13.148   7.390   6.961  0.00  0.00    +0.273 A 
ATOM     19  C   UNL     1       9.905   6.222   4.044  0.00  0.00    +0.247 C 
ATOM     20  C   UNL     1      13.782   8.655   6.471  0.00  0.00    +0.099 A 
ATOM     21  C   UNL     1      13.019   9.723   6.212  0.00  0.00    +0.030 A 
ENDROOT
BRANCH  19  22
ATOM     22  C   UNL     1      10.185   7.234   3.019  0.00  0.00    +0.037 A 
ATOM     23  C   UNL     1       9.242   7.495   2.029  0.00  0.00    +0.016 A 
ATOM     24  C   UNL     1      11.393   7.927   3.042  0.00  0.00    +0.016 A 
ATOM     26  C   UNL     1       9.508   8.458   1.054  0.00  0.00    +0.046 A 
ATOM     27  C   UNL     1      11.658   8.889   2.067  0.00  0.00    +0.046 A 
ATOM     28  C   UNL     1      10.717   9.155   1.074  0.00  0.00    +0.120 A 
BRANCH  28   4
ATOM      4  O   UNL     1      10.976  10.093   0.122  0.00  0.00    -0.495 OA
ATOM     34  C   UNL     1      11.711  11.246   0.531  0.00  0.00    +0.277 C 
ENDBRANCH  28   4
ENDBRANCH  19  22
BRANCH  20   9
ATOM      3  O   UNL     1      15.209   8.007   4.087  0.00  0.00    -0.270 OA
ATOM      9  N   UNL     1      15.137   8.673   6.315  0.00  0.00    -0.277 N 
ATOM     25  C   UNL     1      15.773   8.346   5.125  0.00  0.00    +0.248 C 
ATOM     37  H   UNL     1      15.667   8.798   7.169  0.00  0.00    +0.155 HD
BRANCH  25  29
ATOM     29  C   UNL     1      17.256   8.446   5.139  0.00  0.00    +0.038 A 
ATOM     30  C   UNL     1      17.879   8.940   6.266  0.00  0.00    +0.028 A 
ATOM     31  C   UNL     1      17.960   8.040   4.026  0.00  0.00    +0.013 A 
ATOM     32  C   UNL     1      19.271   9.033   6.280  0.00  0.00    +0.060 A 
ATOM     33  C   UNL     1      19.352   8.132   4.039  0.00  0.00    +0.002 A 
ATOM     35  C   UNL     1      20.008   8.629   5.166  0.00  0.00    +0.015 A 
BRANCH  32  36
ATOM      6  O   UNL     1      19.876  10.711   7.874  0.00  0.00    -0.245 OA
ATOM     36  C   UNL     1      19.955   9.552   7.454  0.00  0.00    +0.337 C 
BRANCH  36   5
ATOM      5  O   UNL     1      20.716   8.608   8.072  0.00  0.00    -0.477 OA
ATOM     38  H   UNL     1      21.674   8.751   7.915  0.00  0.00    +0.295 HD
ENDBRANCH  36   5
ENDBRANCH  32  36
ENDBRANCH  25  29
ENDBRANCH  20   9
TORSDOF 6
ENDMDL
MODEL 6
REMARK VINA RESULT:      -6.7      4.394      8.209
REMARK  Name = 7142689
REMARK  7 active torsions:
REMARK  status: ('A' for Active; 'I' for Inactive)
REMARK    1  A    between atoms: O_4  and  C_28
REMARK    2  A    between atoms: O_4  and  C_34
REMARK    3  A    between atoms: O_5  and  C_36
REMARK    4  A    between atoms: N_9  and  C_20
REMARK    5  A    between atoms: C_19  and  C_22
REMARK    6  A    between atoms: C_25  and  C_29
REMARK    7  A    between atoms: C_32  and  C_36
REMARK                            x       y       z     vdW  Elec       q    Type
REMARK                         _______ _______ _______ _____ _____    ______ ____
ROOT
ATOM      1  O   UNL     1      14.383   7.049   6.586  0.00  0.00    -0.266 OA
ATOM      2  O   UNL     1      10.894   4.022   4.256  0.00  0.00    -0.270 OA
ATOM      7  N   UNL     1      10.189   6.239   4.008  0.00  0.00    -0.297 N 
ATOM      8  N   UNL     1      12.567   7.850   5.352  0.00  0.00    -0.310 N 
ATOM     10  C   UNL     1      10.140   7.562   6.114  0.00  0.00    +0.027 C 
ATOM     11  C   UNL     1      10.627   8.683   3.977  0.00  0.00    +0.054 C 
ATOM     12  C   UNL     1       9.884   8.828   5.304  0.00  0.00    +0.018 C 
ATOM     13  C   UNL     1       9.625   6.326   5.355  0.00  0.00    +0.113 C 
ATOM     14  C   UNL     1      11.638   7.468   6.425  0.00  0.00    +0.130 C 
ATOM     15  C   UNL     1      10.074   7.468   3.206  0.00  0.00    +0.117 C 
ATOM     16  C   UNL     1      12.117   8.510   4.203  0.00  0.00    +0.027 A 
ATOM     17  C   UNL     1      12.996   8.953   3.289  0.00  0.00    +0.024 A 
ATOM     18  C   UNL     1      13.937   7.610   5.584  0.00  0.00    +0.273 A 
ATOM     19  C   UNL     1      10.795   5.051   3.591  0.00  0.00    +0.247 C 
ATOM     20  C   UNL     1      14.882   8.094   4.528  0.00  0.00    +0.099 A 
ATOM     21  C   UNL     1      14.406   8.739   3.457  0.00  0.00    +0.030 A 
ENDROOT
BRANCH  19  22
ATOM     22  C   UNL     1      11.388   5.017   2.250  0.00  0.00    +0.037 A 
ATOM     23  C   UNL     1      10.641   4.544   1.175  0.00  0.00    +0.016 A 
ATOM     24  C   UNL     1      12.696   5.456   2.058  0.00  0.00    +0.016 A 
ATOM     26  C   UNL     1      11.204   4.510  -0.101  0.00  0.00    +0.046 A 
ATOM     27  C   UNL     1      13.259   5.422   0.783  0.00  0.00    +0.046 A 
ATOM     28  C   UNL     1      12.514   4.950  -0.297  0.00  0.00    +0.120 A 
BRANCH  28   4
ATOM      4  O   UNL     1      13.064   4.916  -1.541  0.00  0.00    -0.495 OA
ATOM     34  C   UNL     1      14.376   4.365  -1.657  0.00  0.00    +0.277 C 
ENDBRANCH  28   4
ENDBRANCH  19  22
BRANCH  20   9
ATOM      3  O   UNL     1      16.776   9.934   5.610  0.00  0.00    -0.270 OA
ATOM      9  N   UNL     1      16.214   7.865   4.707  0.00  0.00    -0.277 N 
ATOM     25  C   UNL     1      17.087   8.804   5.241  0.00  0.00    +0.248 C 
ATOM     37  H   UNL     1      16.564   7.012   4.288  0.00  0.00    +0.155 HD
BRANCH  25  29
ATOM     29  C   UNL     1      18.500   8.364   5.381  0.00  0.00    +0.038 A 
ATOM     30  C   UNL     1      19.157   7.871   4.272  0.00  0.00    +0.028 A 
ATOM     31  C   UNL     1      19.108   8.464   6.614  0.00  0.00    +0.013 A 
ATOM     32  C   UNL     1      20.483   7.459   4.404  0.00  0.00    +0.060 A 
ATOM     33  C   UNL     1      20.434   8.052   6.746  0.00  0.00    +0.002 A 
ATOM     35  C   UNL     1      21.122   7.550   5.641  0.00  0.00    +0.015 A 
BRANCH  32  36
ATOM      6  O   UNL     1      20.984   7.240   2.075  0.00  0.00    -0.245 OA
ATOM     36  C   UNL     1      21.200   6.935   3.252  0.00  0.00    +0.337 C 
BRANCH  36   5
ATOM      5  O   UNL     1      22.169   6.045   3.604  0.00  0.00    -0.477 OA
ATOM     38  H   UNL     1      22.603   6.293   4.448  0.00  0.00    +0.295 HD
ENDBRANCH  36   5
ENDBRANCH  32  36
ENDBRANCH  25  29
ENDBRANCH  20   9
TORSDOF 6
ENDMDL
MODEL 7
REMARK VINA RESULT:      -6.7     25.560     28.925
REMARK  Name = 7142689
REMARK  7 active torsions:
REMARK  status: ('A' for Active; 'I' for Inactive)
REMARK    1  A    between atoms: O_4  and  C_28
REMARK    2  A    between atoms: O_4  and  C_34
REMARK    3  A    between atoms: O_5  and  C_36
REMARK    4  A    between atoms: N_9  and  C_20
REMARK    5  A    between atoms: C_19  and  C_22
REMARK    6  A    between atoms: C_25  and  C_29
REMARK    7  A    between atoms: C_32  and  C_36
REMARK                            x       y       z     vdW  Elec       q    Type
REMARK                         _______ _______ _______ _____ _____    ______ ____
ROOT
ATOM      1  O   UNL     1     -12.367  -7.591   9.214  0.00  0.00    -0.266 OA
ATOM      2  O   UNL     1     -16.537  -4.913  10.700  0.00  0.00    -0.270 OA
ATOM      7  N   UNL     1     -14.716  -4.144  11.952  0.00  0.00    -0.297 N 
ATOM      8  N   UNL     1     -12.312  -5.807  10.723  0.00  0.00    -0.310 N 
ATOM     10  C   UNL     1     -13.375  -5.929  13.050  0.00  0.00    +0.027 C 
ATOM     11  C   UNL     1     -12.276  -3.852  12.312  0.00  0.00    +0.054 C 
ATOM     12  C   UNL     1     -12.321  -4.894  13.429  0.00  0.00    +0.018 C 
ATOM     13  C   UNL     1     -14.752  -5.261  12.896  0.00  0.00    +0.113 C 
ATOM     14  C   UNL     1     -12.929  -6.639  11.766  0.00  0.00    +0.130 C 
ATOM     15  C   UNL     1     -13.649  -3.160  12.196  0.00  0.00    +0.117 C 
ATOM     16  C   UNL     1     -11.913  -4.492  10.986  0.00  0.00    +0.027 A 
ATOM     17  C   UNL     1     -11.246  -3.789  10.055  0.00  0.00    +0.024 A 
ATOM     18  C   UNL     1     -12.052  -6.432   9.486  0.00  0.00    +0.273 A 
ATOM     19  C   UNL     1     -15.644  -4.094  10.909  0.00  0.00    +0.247 C 
ATOM     20  C   UNL     1     -11.332  -5.605   8.466  0.00  0.00    +0.099 A 
ATOM     21  C   UNL     1     -10.952  -4.359   8.770  0.00  0.00    +0.030 A 
ENDROOT
BRANCH  19  22
ATOM     22  C   UNL     1     -15.547  -2.983   9.957  0.00  0.00    +0.037 A 
ATOM     23  C   UNL     1     -14.726  -3.098   8.838  0.00  0.00    +0.016 A 
ATOM     24  C   UNL     1     -16.277  -1.817  10.176  0.00  0.00    +0.016 A 
ATOM     26  C   UNL     1     -14.634  -2.042   7.932  0.00  0.00    +0.046 A 
ATOM     27  C   UNL     1     -16.185  -0.760   9.269  0.00  0.00    +0.046 A 
ATOM     28  C   UNL     1     -15.364  -0.872   8.148  0.00  0.00    +0.120 A 
BRANCH  28   4
ATOM      4  O   UNL     1     -15.273   0.159   7.265  0.00  0.00    -0.495 OA
ATOM     34  C   UNL     1     -13.981   0.445   6.730  0.00  0.00    +0.277 C 
ENDBRANCH  28   4
ENDBRANCH  19  22
BRANCH  20   9
ATOM      3  O   UNL     1      -8.871  -6.791   7.640  0.00  0.00    -0.270 OA
ATOM      9  N   UNL     1     -11.078  -6.167   7.250  0.00  0.00    -0.277 N 
ATOM     25  C   UNL     1      -9.856  -6.729   6.907  0.00  0.00    +0.248 C 
ATOM     37  H   UNL     1     -11.794  -6.018   6.549  0.00  0.00    +0.155 HD
BRANCH  25  29
ATOM     29  C   UNL     1      -9.775  -7.314   5.543  0.00  0.00    +0.038 A 
ATOM     30  C   UNL     1      -8.789  -8.239   5.272  0.00  0.00    +0.028 A 
ATOM     31  C   UNL     1     -10.691  -6.913   4.593  0.00  0.00    +0.013 A 
ATOM     32  C   UNL     1      -8.713  -8.788   3.993  0.00  0.00    +0.060 A 
ATOM     33  C   UNL     1     -10.617  -7.463   3.314  0.00  0.00    +0.002 A 
ATOM     35  C   UNL     1      -9.628  -8.400   3.013  0.00  0.00    +0.015 A 
BRANCH  32  36
ATOM      6  O   UNL     1      -6.879 -10.242   4.486  0.00  0.00    -0.245 OA
ATOM     36  C   UNL     1      -7.683  -9.765   3.678  0.00  0.00    +0.337 C 
BRANCH  36   5
ATOM      5  O   UNL     1      -7.686 -10.120   2.364  0.00  0.00    -0.477 OA
ATOM     38  H   UNL     1      -8.463  -9.755   1.889  0.00  0.00    +0.295 HD
ENDBRANCH  36   5
ENDBRANCH  32  36
ENDBRANCH  25  29
ENDBRANCH  20   9
TORSDOF 6
ENDMDL
MODEL 8
REMARK VINA RESULT:      -6.6      5.703      9.680
REMARK  Name = 7142689
REMARK  7 active torsions:
REMARK  status: ('A' for Active; 'I' for Inactive)
REMARK    1  A    between atoms: O_4  and  C_28
REMARK    2  A    between atoms: O_4  and  C_34
REMARK    3  A    between atoms: O_5  and  C_36
REMARK    4  A    between atoms: N_9  and  C_20
REMARK    5  A    between atoms: C_19  and  C_22
REMARK    6  A    between atoms: C_25  and  C_29
REMARK    7  A    between atoms: C_32  and  C_36
REMARK                            x       y       z     vdW  Elec       q    Type
REMARK                         _______ _______ _______ _____ _____    ______ ____
ROOT
ATOM      1  O   UNL     1      15.079  10.885   4.635  0.00  0.00    -0.266 OA
ATOM      2  O   UNL     1      10.534  10.858   7.107  0.00  0.00    -0.270 OA
ATOM      7  N   UNL     1      10.171  10.043   4.943  0.00  0.00    -0.297 N 
ATOM      8  N   UNL     1      13.106  10.005   3.743  0.00  0.00    -0.310 N 
ATOM     10  C   UNL     1      11.095  11.464   3.122  0.00  0.00    +0.027 C 
ATOM     11  C   UNL     1      10.975   9.023   2.827  0.00  0.00    +0.054 C 
ATOM     12  C   UNL     1      10.787  10.362   2.115  0.00  0.00    +0.018 C 
ATOM     13  C   UNL     1      10.145  11.370   4.329  0.00  0.00    +0.113 C 
ATOM     14  C   UNL     1      12.568  11.357   3.536  0.00  0.00    +0.130 C 
ATOM     15  C   UNL     1       9.988   8.922   4.007  0.00  0.00    +0.117 C 
ATOM     16  C   UNL     1      12.396   8.871   3.334  0.00  0.00    +0.027 A 
ATOM     17  C   UNL     1      12.954   7.652   3.427  0.00  0.00    +0.024 A 
ATOM     18  C   UNL     1      14.408   9.916   4.278  0.00  0.00    +0.273 A 
ATOM     19  C   UNL     1      10.380   9.925   6.319  0.00  0.00    +0.247 C 
ATOM     20  C   UNL     1      14.984   8.538   4.390  0.00  0.00    +0.099 A 
ATOM     21  C   UNL     1      14.275   7.486   3.967  0.00  0.00    +0.030 A 
ENDROOT
BRANCH  19  22
ATOM     22  C   UNL     1      10.444   8.576   6.892  0.00  0.00    +0.037 A 
ATOM     23  C   UNL     1       9.306   8.011   7.461  0.00  0.00    +0.016 A 
ATOM     24  C   UNL     1      11.643   7.867   6.864  0.00  0.00    +0.016 A 
ATOM     26  C   UNL     1       9.366   6.728   8.006  0.00  0.00    +0.046 A 
ATOM     27  C   UNL     1      11.703   6.584   7.409  0.00  0.00    +0.046 A 
ATOM     28  C   UNL     1      10.565   6.015   7.979  0.00  0.00    +0.120 A 
BRANCH  28   4
ATOM      4  O   UNL     1      10.624   4.764   8.512  0.00  0.00    -0.495 OA
ATOM     34  C   UNL     1       9.461   4.292   9.191  0.00  0.00    +0.277 C 
ENDBRANCH  28   4
ENDBRANCH  19  22
BRANCH  20   9
ATOM      3  O   UNL     1      17.419   8.313   2.919  0.00  0.00    -0.270 OA
ATOM      9  N   UNL     1      16.234   8.408   4.919  0.00  0.00    -0.277 N 
ATOM     25  C   UNL     1      17.384   8.303   4.148  0.00  0.00    +0.248 C 
ATOM     37  H   UNL     1      16.264   8.244   5.918  0.00  0.00    +0.155 HD
BRANCH  25  29
ATOM     29  C   UNL     1      18.659   8.192   4.904  0.00  0.00    +0.038 A 
ATOM     30  C   UNL     1      19.784   7.735   4.249  0.00  0.00    +0.028 A 
ATOM     31  C   UNL     1      18.676   8.550   6.235  0.00  0.00    +0.013 A 
ATOM     32  C   UNL     1      20.980   7.631   4.958  0.00  0.00    +0.060 A 
ATOM     33  C   UNL     1      19.872   8.447   6.945  0.00  0.00    +0.002 A 
ATOM     35  C   UNL     1      21.024   7.988   6.307  0.00  0.00    +0.015 A 
BRANCH  32  36
ATOM      6  O   UNL     1      23.091   7.864   3.857  0.00  0.00    -0.245 OA
ATOM     36  C   UNL     1      22.181   7.151   4.294  0.00  0.00    +0.337 C 
BRANCH  36   5
ATOM      5  O   UNL     1      22.215   5.794   4.195  0.00  0.00    -0.477 OA
ATOM     38  H   UNL     1      22.159   5.494   3.263  0.00  0.00    +0.295 HD
ENDBRANCH  36   5
ENDBRANCH  32  36
ENDBRANCH  25  29
ENDBRANCH  20   9
TORSDOF 6
ENDMDL
MODEL 9
REMARK VINA RESULT:      -6.6     24.760     29.598
REMARK  Name = 7142689
REMARK  7 active torsions:
REMARK  status: ('A' for Active; 'I' for Inactive)
REMARK    1  A    between atoms: O_4  and  C_28
REMARK    2  A    between atoms: O_4  and  C_34
REMARK    3  A    between atoms: O_5  and  C_36
REMARK    4  A    between atoms: N_9  and  C_20
REMARK    5  A    between atoms: C_19  and  C_22
REMARK    6  A    between atoms: C_25  and  C_29
REMARK    7  A    between atoms: C_32  and  C_36
REMARK                            x       y       z     vdW  Elec       q    Type
REMARK                         _______ _______ _______ _____ _____    ______ ____
ROOT
ATOM      1  O   UNL     1      -5.899 -13.460  14.650  0.00  0.00    -0.266 OA
ATOM      2  O   UNL     1     -10.024 -12.169  17.493  0.00  0.00    -0.270 OA
ATOM      7  N   UNL     1      -8.128 -11.303  18.557  0.00  0.00    -0.297 N 
ATOM      8  N   UNL     1      -5.813 -12.081  16.534  0.00  0.00    -0.310 N 
ATOM     10  C   UNL     1      -6.284 -12.938  18.900  0.00  0.00    +0.027 C 
ATOM     11  C   UNL     1      -5.759 -10.559  18.541  0.00  0.00    +0.054 C 
ATOM     12  C   UNL     1      -5.368 -11.801  19.341  0.00  0.00    +0.018 C 
ATOM     13  C   UNL     1      -7.755 -12.577  19.171  0.00  0.00    +0.113 C 
ATOM     14  C   UNL     1      -6.024 -13.235  17.419  0.00  0.00    +0.130 C 
ATOM     15  C   UNL     1      -7.221 -10.182  18.853  0.00  0.00    +0.117 C 
ATOM     16  C   UNL     1      -5.600 -10.799  17.052  0.00  0.00    +0.027 A 
ATOM     17  C   UNL     1      -5.294  -9.779  16.232  0.00  0.00    +0.024 A 
ATOM     18  C   UNL     1      -5.736 -12.348  15.151  0.00  0.00    +0.273 A 
ATOM     19  C   UNL     1      -9.262 -11.237  17.744  0.00  0.00    +0.247 C 
ATOM     20  C   UNL     1      -5.420 -11.180  14.268  0.00  0.00    +0.099 A 
ATOM     21  C   UNL     1      -5.204  -9.977  14.812  0.00  0.00    +0.030 A 
ENDROOT
BRANCH  19  22
ATOM     22  C   UNL     1      -9.578  -9.953  17.110  0.00  0.00    +0.037 A 
ATOM     23  C   UNL     1      -9.120  -9.684  15.822  0.00  0.00    +0.016 A 
ATOM     24  C   UNL     1     -10.335  -9.007  17.798  0.00  0.00    +0.016 A 
ATOM     26  C   UNL     1      -9.420  -8.463  15.218  0.00  0.00    +0.046 A 
ATOM     27  C   UNL     1     -10.636  -7.786  17.194  0.00  0.00    +0.046 A 
ATOM     28  C   UNL     1     -10.179  -7.514  15.905  0.00  0.00    +0.120 A 
BRANCH  28   4
ATOM      4  O   UNL     1     -10.471  -6.322  15.316  0.00  0.00    -0.495 OA
ATOM     34  C   UNL     1     -11.836  -5.907  15.332  0.00  0.00    +0.277 C 
ENDBRANCH  28   4
ENDBRANCH  19  22
BRANCH  20   9
ATOM      3  O   UNL     1      -3.059 -11.736  12.766  0.00  0.00    -0.270 OA
ATOM      9  N   UNL     1      -5.355 -11.394  12.923  0.00  0.00    -0.277 N 
ATOM     25  C   UNL     1      -4.171 -11.660  12.248  0.00  0.00    +0.248 C 
ATOM     37  H   UNL     1      -6.209 -11.200  12.415  0.00  0.00    +0.155 HD
BRANCH  25  29
ATOM     29  C   UNL     1      -4.302 -11.889  10.785  0.00  0.00    +0.038 A 
ATOM     30  C   UNL     1      -4.706 -10.843   9.981  0.00  0.00    +0.028 A 
ATOM     31  C   UNL     1      -4.012 -13.138  10.279  0.00  0.00    +0.013 A 
ATOM     32  C   UNL     1      -4.828 -11.057   8.609  0.00  0.00    +0.060 A 
ATOM     33  C   UNL     1      -4.133 -13.353   8.907  0.00  0.00    +0.002 A 
ATOM     35  C   UNL     1      -4.541 -12.313   8.071  0.00  0.00    +0.015 A 
BRANCH  32  36
ATOM      6  O   UNL     1      -5.989 -10.095   6.752  0.00  0.00    -0.245 OA
ATOM     36  C   UNL     1      -5.253  -9.973   7.737  0.00  0.00    +0.337 C 
BRANCH  36   5
ATOM      5  O   UNL     1      -4.750  -8.768   8.122  0.00  0.00    -0.477 OA
ATOM     38  H   UNL     1      -3.952  -8.524   7.606  0.00  0.00    +0.295 HD
ENDBRANCH  36   5
ENDBRANCH  32  36
ENDBRANCH  25  29
ENDBRANCH  20   9
TORSDOF 6
ENDMDL
MODEL 10
REMARK VINA RESULT:      -6.6      5.292      8.643
REMARK  Name = 7142689
REMARK  7 active torsions:
REMARK  status: ('A' for Active; 'I' for Inactive)
REMARK    1  A    between atoms: O_4  and  C_28
REMARK    2  A    between atoms: O_4  and  C_34
REMARK    3  A    between atoms: O_5  and  C_36
REMARK    4  A    between atoms: N_9  and  C_20
REMARK    5  A    between atoms: C_19  and  C_22
REMARK    6  A    between atoms: C_25  and  C_29
REMARK    7  A    between atoms: C_32  and  C_36
REMARK                            x       y       z     vdW  Elec       q    Type
REMARK                         _______ _______ _______ _____ _____    ______ ____
ROOT
ATOM      1  O   UNL     1      11.004  11.559   5.390  0.00  0.00    -0.266 OA
ATOM      2  O   UNL     1       8.306   7.353   4.051  0.00  0.00    -0.270 OA
ATOM      7  N   UNL     1      10.540   6.982   3.459  0.00  0.00    -0.297 N 
ATOM      8  N   UNL     1      11.960   9.603   4.542  0.00  0.00    -0.310 N 
ATOM     10  C   UNL     1      11.587   8.810   2.135  0.00  0.00    +0.027 C 
ATOM     11  C   UNL     1      12.967   7.464   3.668  0.00  0.00    +0.054 C 
ATOM     12  C   UNL     1      12.946   8.138   2.297  0.00  0.00    +0.018 C 
ATOM     13  C   UNL     1      10.458   7.768   2.228  0.00  0.00    +0.113 C 
ATOM     14  C   UNL     1      11.450   9.907   3.198  0.00  0.00    +0.130 C 
ATOM     15  C   UNL     1      11.860   6.393   3.734  0.00  0.00    +0.117 C 
ATOM     16  C   UNL     1      12.761   8.480   4.776  0.00  0.00    +0.027 A 
ATOM     17  C   UNL     1      13.313   8.283   5.985  0.00  0.00    +0.024 A 
ATOM     18  C   UNL     1      11.688  10.548   5.552  0.00  0.00    +0.273 A 
ATOM     19  C   UNL     1       9.411   6.863   4.275  0.00  0.00    +0.247 C 
ATOM     20  C   UNL     1      12.298  10.278   6.893  0.00  0.00    +0.099 A 
ATOM     21  C   UNL     1      13.074   9.201   7.063  0.00  0.00    +0.030 A 
ENDROOT
BRANCH  19  22
ATOM     22  C   UNL     1       9.544   6.105   5.524  0.00  0.00    +0.037 A 
ATOM     23  C   UNL     1       9.616   4.715   5.485  0.00  0.00    +0.016 A 
ATOM     24  C   UNL     1       9.595   6.779   6.742  0.00  0.00    +0.016 A 
ATOM     26  C   UNL     1       9.741   3.993   6.673  0.00  0.00    +0.046 A 
ATOM     27  C   UNL     1       9.721   6.057   7.929  0.00  0.00    +0.046 A 
ATOM     28  C   UNL     1       9.794   4.665   7.895  0.00  0.00    +0.120 A 
BRANCH  28   4
ATOM      4  O   UNL     1       9.915   3.961   9.053  0.00  0.00    -0.495 OA
ATOM     34  C   UNL     1       9.163   4.422  10.175  0.00  0.00    +0.277 C 
ENDBRANCH  28   4
ENDBRANCH  19  22
BRANCH  20   9
ATOM      3  O   UNL     1      10.256  10.028   8.870  0.00  0.00    -0.270 OA
ATOM      9  N   UNL     1      12.044  11.159   7.902  0.00  0.00    -0.277 N 
ATOM     25  C   UNL     1      11.032  10.981   8.835  0.00  0.00    +0.248 C 
ATOM     37  H   UNL     1      12.547  12.036   7.843  0.00  0.00    +0.155 HD
BRANCH  25  29
ATOM     29  C   UNL     1      10.921  12.037   9.875  0.00  0.00    +0.038 A 
ATOM     30  C   UNL     1       9.917  11.944  10.816  0.00  0.00    +0.028 A 
ATOM     31  C   UNL     1      11.828  13.076   9.865  0.00  0.00    +0.013 A 
ATOM     32  C   UNL     1       9.814  12.934  11.792  0.00  0.00    +0.060 A 
ATOM     33  C   UNL     1      11.726  14.067  10.842  0.00  0.00    +0.002 A 
ATOM     35  C   UNL     1      10.719  13.997  11.805  0.00  0.00    +0.015 A 
BRANCH  32  36
ATOM      6  O   UNL     1       8.810  13.378  13.917  0.00  0.00    -0.245 OA
ATOM     36  C   UNL     1       8.764  12.862  12.795  0.00  0.00    +0.337 C 
BRANCH  36   5
ATOM      5  O   UNL     1       7.686  12.148  12.370  0.00  0.00    -0.477 OA
ATOM     38  H   UNL     1       6.917  12.256  12.970  0.00  0.00    +0.295 HD
ENDBRANCH  36   5
ENDBRANCH  32  36
ENDBRANCH  25  29
ENDBRANCH  20   9
TORSDOF 6
ENDMDL
