MODEL 1
REMARK VINA RESULT:      -6.9      0.000      0.000
REMARK  Name = 51137072
REMARK  3 active torsions:
REMARK  status: ('A' for Active; 'I' for Inactive)
REMARK    1  A    between atoms: N_3  and  C_9
REMARK    2  A    between atoms: C_5  and  C_10
REMARK    3  A    between atoms: C_9  and  C_11
REMARK                            x       y       z     vdW  Elec       q    Type
REMARK                         _______ _______ _______ _____ _____    ______ ____
ROOT
ATOM      3  N   UNL     1      11.406   9.504  21.680  0.00  0.00    -0.297 NA
ATOM      5  C   UNL     1      13.093   8.757  20.230  0.00  0.00    +0.060 C 
ATOM      6  C   UNL     1      11.874   7.824  20.126  0.00  0.00    +0.027 C 
ATOM      7  C   UNL     1      12.862   9.555  21.521  0.00  0.00    +0.095 C 
ATOM      8  C   UNL     1      11.042   8.122  21.367  0.00  0.00    +0.085 C 
ENDROOT
BRANCH   5  10
ATOM      2  S   UNL     1      15.549   8.349  21.464  0.00  0.00    -0.072 S 
ATOM      4  N   UNL     1      14.816   7.229  19.260  0.00  0.00    -0.244 NA
ATOM     10  C   UNL     1      14.432   8.059  20.202  0.00  0.00    +0.084 A 
ATOM     12  C   UNL     1      16.666   7.273  20.710  0.00  0.00    +0.039 A 
ATOM     13  C   UNL     1      16.095   6.769  19.537  0.00  0.00    +0.078 A 
ATOM     16  C   UNL     1      17.955   6.902  21.125  0.00  0.00    +0.017 A 
ATOM     17  C   UNL     1      16.842   5.863  18.755  0.00  0.00    +0.029 A 
ATOM     20  C   UNL     1      18.673   6.003  20.333  0.00  0.00    +0.001 A 
ATOM     21  C   UNL     1      18.126   5.488  19.163  0.00  0.00    +0.002 A 
ENDBRANCH   5  10
BRANCH   3   9
ATOM      9  C   UNL     1      10.980   9.901  23.014  0.00  0.00    +0.119 C 
BRANCH   9  11
ATOM      1 CL   UNL     1      10.494  14.067  26.108  0.00  0.00    -0.084 Cl
ATOM     11  C   UNL     1      10.914  11.399  23.157  0.00  0.00    -0.032 A 
ATOM     14  C   UNL     1      10.754  11.972  24.418  0.00  0.00    +0.025 A 
ATOM     15  C   UNL     1      11.013  12.213  22.028  0.00  0.00    +0.005 A 
ATOM     18  C   UNL     1      10.693  13.359  24.552  0.00  0.00    +0.041 A 
ATOM     19  C   UNL     1      10.953  13.600  22.162  0.00  0.00    +0.002 A 
ATOM     22  C   UNL     1      10.793  14.174  23.423  0.00  0.00    +0.020 A 
ENDBRANCH   9  11
ENDBRANCH   3   9
TORSDOF 3
ENDMDL
MODEL 2
REMARK VINA RESULT:      -6.7     27.194     28.824
REMARK  Name = 51137072
REMARK  3 active torsions:
REMARK  status: ('A' for Active; 'I' for Inactive)
REMARK    1  A    between atoms: N_3  and  C_9
REMARK    2  A    between atoms: C_5  and  C_10
REMARK    3  A    between atoms: C_9  and  C_11
REMARK                            x       y       z     vdW  Elec       q    Type
REMARK                         _______ _______ _______ _____ _____    ______ ____
ROOT
ATOM      3  N   UNL     1      -2.302 -11.398  12.908  0.00  0.00    -0.297 NA
ATOM      5  C   UNL     1      -2.821 -10.520  15.020  0.00  0.00    +0.060 C 
ATOM      6  C   UNL     1      -1.598 -11.448  15.134  0.00  0.00    +0.027 C 
ATOM      7  C   UNL     1      -3.440 -10.859  13.657  0.00  0.00    +0.095 C 
ATOM      8  C   UNL     1      -1.609 -12.272  13.853  0.00  0.00    +0.085 C 
ENDROOT
BRANCH   5  10
ATOM      2  S   UNL     1      -5.370  -9.955  15.973  0.00  0.00    -0.072 S 
ATOM      4  N   UNL     1      -3.555 -11.213  17.307  0.00  0.00    -0.244 NA
ATOM     10  C   UNL     1      -3.808 -10.629  16.158  0.00  0.00    +0.084 A 
ATOM     12  C   UNL     1      -5.774 -10.477  17.566  0.00  0.00    +0.039 A 
ATOM     13  C   UNL     1      -4.673 -11.134  18.125  0.00  0.00    +0.078 A 
ATOM     16  C   UNL     1      -6.978 -10.318  18.271  0.00  0.00    +0.017 A 
ATOM     17  C   UNL     1      -4.784 -11.648  19.434  0.00  0.00    +0.029 A 
ATOM     20  C   UNL     1      -7.061 -10.837  19.564  0.00  0.00    +0.001 A 
ATOM     21  C   UNL     1      -5.980 -11.493  20.142  0.00  0.00    +0.002 A 
ENDBRANCH   5  10
BRANCH   3   9
ATOM      9  C   UNL     1      -2.715 -12.102  11.702  0.00  0.00    +0.119 C 
BRANCH   9  11
ATOM      1 CL   UNL     1      -6.266 -11.344   7.963  0.00  0.00    -0.084 Cl
ATOM     11  C   UNL     1      -3.358 -11.174  10.706  0.00  0.00    -0.032 A 
ATOM     14  C   UNL     1      -4.393 -11.635   9.892  0.00  0.00    +0.025 A 
ATOM     15  C   UNL     1      -2.920  -9.854  10.596  0.00  0.00    +0.005 A 
ATOM     18  C   UNL     1      -4.990 -10.776   8.969  0.00  0.00    +0.041 A 
ATOM     19  C   UNL     1      -3.517  -8.995   9.673  0.00  0.00    +0.002 A 
ATOM     22  C   UNL     1      -4.552  -9.456   8.860  0.00  0.00    +0.020 A 
ENDBRANCH   9  11
ENDBRANCH   3   9
TORSDOF 3
ENDMDL
MODEL 3
REMARK VINA RESULT:      -6.6     27.006     29.204
REMARK  Name = 51137072
REMARK  3 active torsions:
REMARK  status: ('A' for Active; 'I' for Inactive)
REMARK    1  A    between atoms: N_3  and  C_9
REMARK    2  A    between atoms: C_5  and  C_10
REMARK    3  A    between atoms: C_9  and  C_11
REMARK                            x       y       z     vdW  Elec       q    Type
REMARK                         _______ _______ _______ _____ _____    ______ ____
ROOT
ATOM      3  N   UNL     1      -3.911 -10.953  14.898  0.00  0.00    -0.297 NA
ATOM      5  C   UNL     1      -5.257  -9.918  16.517  0.00  0.00    +0.060 C 
ATOM      6  C   UNL     1      -4.247 -10.851  17.208  0.00  0.00    +0.027 C 
ATOM      7  C   UNL     1      -5.236 -10.346  15.043  0.00  0.00    +0.095 C 
ATOM      8  C   UNL     1      -3.735 -11.765  16.102  0.00  0.00    +0.085 C 
ENDROOT
BRANCH   5  10
ATOM      2  S   UNL     1      -6.970 -10.958  18.442  0.00  0.00    -0.072 S 
ATOM      4  N   UNL     1      -7.645  -9.201  16.680  0.00  0.00    -0.244 NA
ATOM     10  C   UNL     1      -6.644  -9.931  17.114  0.00  0.00    +0.084 A 
ATOM     12  C   UNL     1      -8.600 -10.395  18.467  0.00  0.00    +0.039 A 
ATOM     13  C   UNL     1      -8.773  -9.455  17.446  0.00  0.00    +0.078 A 
ATOM     16  C   UNL     1      -9.649 -10.758  19.327  0.00  0.00    +0.017 A 
ATOM     17  C   UNL     1     -10.042  -8.859  17.283  0.00  0.00    +0.029 A 
ATOM     20  C   UNL     1     -10.894 -10.153  19.144  0.00  0.00    +0.001 A 
ATOM     21  C   UNL     1     -11.092  -9.216  18.136  0.00  0.00    +0.002 A 
ENDBRANCH   5  10
BRANCH   3   9
ATOM      9  C   UNL     1      -3.789 -11.736  13.677  0.00  0.00    +0.119 C 
BRANCH   9  11
ATOM      1 CL   UNL     1      -0.330  -8.857  11.049  0.00  0.00    -0.084 Cl
ATOM     11  C   UNL     1      -3.474 -10.871  12.486  0.00  0.00    -0.032 A 
ATOM     14  C   UNL     1      -2.198 -10.329  12.337  0.00  0.00    +0.025 A 
ATOM     15  C   UNL     1      -4.458 -10.612  11.532  0.00  0.00    +0.005 A 
ATOM     18  C   UNL     1      -1.905  -9.528  11.233  0.00  0.00    +0.041 A 
ATOM     19  C   UNL     1      -4.165  -9.811  10.428  0.00  0.00    +0.002 A 
ATOM     22  C   UNL     1      -2.888  -9.269  10.278  0.00  0.00    +0.020 A 
ENDBRANCH   9  11
ENDBRANCH   3   9
TORSDOF 3
ENDMDL
MODEL 4
REMARK VINA RESULT:      -6.6     26.921     29.692
REMARK  Name = 51137072
REMARK  3 active torsions:
REMARK  status: ('A' for Active; 'I' for Inactive)
REMARK    1  A    between atoms: N_3  and  C_9
REMARK    2  A    between atoms: C_5  and  C_10
REMARK    3  A    between atoms: C_9  and  C_11
REMARK                            x       y       z     vdW  Elec       q    Type
REMARK                         _______ _______ _______ _____ _____    ______ ____
ROOT
ATOM      3  N   UNL     1      -4.705 -11.602  17.349  0.00  0.00    -0.297 NA
ATOM      5  C   UNL     1      -6.389 -10.578  18.620  0.00  0.00    +0.060 C 
ATOM      6  C   UNL     1      -5.835 -11.792  19.385  0.00  0.00    +0.027 C 
ATOM      7  C   UNL     1      -5.897 -10.768  17.179  0.00  0.00    +0.095 C 
ATOM      8  C   UNL     1      -5.089 -12.610  18.338  0.00  0.00    +0.085 C 
ENDROOT
BRANCH   5  10
ATOM      2  S   UNL     1      -8.693  -9.494  17.505  0.00  0.00    -0.072 S 
ATOM      4  N   UNL     1      -8.636 -10.895  19.669  0.00  0.00    -0.244 NA
ATOM     10  C   UNL     1      -7.887 -10.400  18.711  0.00  0.00    +0.084 A 
ATOM     12  C   UNL     1     -10.192  -9.773  18.310  0.00  0.00    +0.039 A 
ATOM     13  C   UNL     1      -9.960 -10.545  19.453  0.00  0.00    +0.078 A 
ATOM     16  C   UNL     1     -11.480  -9.341  17.956  0.00  0.00    +0.017 A 
ATOM     17  C   UNL     1     -11.058 -10.894  20.268  0.00  0.00    +0.029 A 
ATOM     20  C   UNL     1     -12.548  -9.701  18.780  0.00  0.00    +0.001 A 
ATOM     21  C   UNL     1     -12.343 -10.467  19.922  0.00  0.00    +0.002 A 
ENDBRANCH   5  10
BRANCH   3   9
ATOM      9  C   UNL     1      -4.259 -12.196  16.097  0.00  0.00    +0.119 C 
BRANCH   9  11
ATOM      1 CL   UNL     1      -2.200 -10.219  11.737  0.00  0.00    -0.084 Cl
ATOM     11  C   UNL     1      -3.184 -11.373  15.439  0.00  0.00    -0.032 A 
ATOM     14  C   UNL     1      -3.189 -11.198  14.055  0.00  0.00    +0.025 A 
ATOM     15  C   UNL     1      -2.184 -10.784  16.212  0.00  0.00    +0.005 A 
ATOM     18  C   UNL     1      -2.195 -10.434  13.444  0.00  0.00    +0.041 A 
ATOM     19  C   UNL     1      -1.189 -10.020  15.601  0.00  0.00    +0.002 A 
ATOM     22  C   UNL     1      -1.194  -9.845  14.218  0.00  0.00    +0.020 A 
ENDBRANCH   9  11
ENDBRANCH   3   9
TORSDOF 3
ENDMDL
MODEL 5
REMARK VINA RESULT:      -6.6      1.374      1.886
REMARK  Name = 51137072
REMARK  3 active torsions:
REMARK  status: ('A' for Active; 'I' for Inactive)
REMARK    1  A    between atoms: N_3  and  C_9
REMARK    2  A    between atoms: C_5  and  C_10
REMARK    3  A    between atoms: C_9  and  C_11
REMARK                            x       y       z     vdW  Elec       q    Type
REMARK                         _______ _______ _______ _____ _____    ______ ____
ROOT
ATOM      3  N   UNL     1      12.247   8.891  20.895  0.00  0.00    -0.297 NA
ATOM      5  C   UNL     1      14.308   8.515  19.840  0.00  0.00    +0.060 C 
ATOM      6  C   UNL     1      13.272   7.503  19.321  0.00  0.00    +0.027 C 
ATOM      7  C   UNL     1      13.681   9.093  21.116  0.00  0.00    +0.095 C 
ATOM      8  C   UNL     1      12.138   7.543  20.338  0.00  0.00    +0.085 C 
ENDROOT
BRANCH   5  10
ATOM      2  S   UNL     1      16.080   6.415  19.419  0.00  0.00    -0.072 S 
ATOM      4  N   UNL     1      16.637   8.556  20.744  0.00  0.00    -0.244 NA
ATOM     10  C   UNL     1      15.690   7.949  20.068  0.00  0.00    +0.084 A 
ATOM     12  C   UNL     1      17.664   6.545  20.088  0.00  0.00    +0.039 A 
ATOM     13  C   UNL     1      17.776   7.764  20.764  0.00  0.00    +0.078 A 
ATOM     16  C   UNL     1      18.731   5.635  20.019  0.00  0.00    +0.017 A 
ATOM     17  C   UNL     1      18.999   8.079  21.393  0.00  0.00    +0.029 A 
ATOM     20  C   UNL     1      19.930   5.972  20.649  0.00  0.00    +0.001 A 
ATOM     21  C   UNL     1      20.066   7.178  21.329  0.00  0.00    +0.002 A 
ENDBRANCH   5  10
BRANCH   3   9
ATOM      9  C   UNL     1      11.469   9.051  22.115  0.00  0.00    +0.119 C 
BRANCH   9  11
ATOM      1 CL   UNL     1      10.591  12.667  25.764  0.00  0.00    -0.084 Cl
ATOM     11  C   UNL     1      11.280  10.501  22.471  0.00  0.00    -0.032 A 
ATOM     14  C   UNL     1      11.050  10.869  23.797  0.00  0.00    +0.025 A 
ATOM     15  C   UNL     1      11.334  11.478  21.476  0.00  0.00    +0.005 A 
ATOM     18  C   UNL     1      10.876  12.213  24.128  0.00  0.00    +0.041 A 
ATOM     19  C   UNL     1      11.159  12.821  21.808  0.00  0.00    +0.002 A 
ATOM     22  C   UNL     1      10.930  13.189  23.133  0.00  0.00    +0.020 A 
ENDBRANCH   9  11
ENDBRANCH   3   9
TORSDOF 3
ENDMDL
MODEL 6
REMARK VINA RESULT:      -6.4      3.047      8.366
REMARK  Name = 51137072
REMARK  3 active torsions:
REMARK  status: ('A' for Active; 'I' for Inactive)
REMARK    1  A    between atoms: N_3  and  C_9
REMARK    2  A    between atoms: C_5  and  C_10
REMARK    3  A    between atoms: C_9  and  C_11
REMARK                            x       y       z     vdW  Elec       q    Type
REMARK                         _______ _______ _______ _____ _____    ______ ____
ROOT
ATOM      3  N   UNL     1      13.830   8.271  20.235  0.00  0.00    -0.297 NA
ATOM      5  C   UNL     1      12.600  10.265  20.362  0.00  0.00    +0.060 C 
ATOM      6  C   UNL     1      14.060  10.583  19.995  0.00  0.00    +0.027 C 
ATOM      7  C   UNL     1      12.637   8.821  20.883  0.00  0.00    +0.095 C 
ATOM      8  C   UNL     1      14.840   9.324  20.350  0.00  0.00    +0.085 C 
ENDROOT
BRANCH   5  10
ATOM      2  S   UNL     1      11.812  10.765  22.980  0.00  0.00    -0.072 S 
ATOM      4  N   UNL     1      11.513  12.416  21.021  0.00  0.00    -0.244 NA
ATOM     10  C   UNL     1      11.967  11.226  21.340  0.00  0.00    +0.084 A 
ATOM     12  C   UNL     1      11.070  12.283  23.326  0.00  0.00    +0.039 A 
ATOM     13  C   UNL     1      10.995  13.035  22.149  0.00  0.00    +0.078 A 
ATOM     16  C   UNL     1      10.589  12.773  24.551  0.00  0.00    +0.017 A 
ATOM     17  C   UNL     1      10.418  14.321  22.203  0.00  0.00    +0.029 A 
ATOM     20  C   UNL     1      10.023  14.049  24.576  0.00  0.00    +0.001 A 
ATOM     21  C   UNL     1       9.937  14.816  23.419  0.00  0.00    +0.002 A 
ENDBRANCH   5  10
BRANCH   3   9
ATOM      9  C   UNL     1      14.263   7.019  20.839  0.00  0.00    +0.119 C 
BRANCH   9  11
ATOM      1 CL   UNL     1      19.283   6.549  22.160  0.00  0.00    -0.084 Cl
ATOM     11  C   UNL     1      15.671   6.664  20.443  0.00  0.00    -0.032 A 
ATOM     14  C   UNL     1      16.703   6.760  21.375  0.00  0.00    +0.025 A 
ATOM     15  C   UNL     1      15.944   6.237  19.142  0.00  0.00    +0.005 A 
ATOM     18  C   UNL     1      18.008   6.429  21.009  0.00  0.00    +0.041 A 
ATOM     19  C   UNL     1      17.249   5.907  18.776  0.00  0.00    +0.002 A 
ATOM     22  C   UNL     1      18.281   6.003  19.709  0.00  0.00    +0.020 A 
ENDBRANCH   9  11
ENDBRANCH   3   9
TORSDOF 3
ENDMDL
MODEL 7
REMARK VINA RESULT:      -6.4      3.986      5.974
REMARK  Name = 51137072
REMARK  3 active torsions:
REMARK  status: ('A' for Active; 'I' for Inactive)
REMARK    1  A    between atoms: N_3  and  C_9
REMARK    2  A    between atoms: C_5  and  C_10
REMARK    3  A    between atoms: C_9  and  C_11
REMARK                            x       y       z     vdW  Elec       q    Type
REMARK                         _______ _______ _______ _____ _____    ______ ____
ROOT
ATOM      3  N   UNL     1      16.618   7.644  20.638  0.00  0.00    -0.297 NA
ATOM      5  C   UNL     1      18.726   6.703  20.222  0.00  0.00    +0.060 C 
ATOM      6  C   UNL     1      17.639   5.855  19.537  0.00  0.00    +0.027 C 
ATOM      7  C   UNL     1      17.961   7.582  21.221  0.00  0.00    +0.095 C 
ATOM      8  C   UNL     1      16.334   6.278  20.200  0.00  0.00    +0.085 C 
ENDROOT
BRANCH   5  10
ATOM      2  S   UNL     1      20.500   6.456  22.347  0.00  0.00    -0.072 S 
ATOM      4  N   UNL     1      20.348   4.807  20.370  0.00  0.00    -0.244 NA
ATOM     10  C   UNL     1      19.837   5.909  20.868  0.00  0.00    +0.084 A 
ATOM     12  C   UNL     1      21.578   5.110  22.351  0.00  0.00    +0.039 A 
ATOM     13  C   UNL     1      21.347   4.337  21.209  0.00  0.00    +0.078 A 
ATOM     16  C   UNL     1      22.556   4.763  23.296  0.00  0.00    +0.017 A 
ATOM     17  C   UNL     1      22.126   3.177  21.009  0.00  0.00    +0.029 A 
ATOM     20  C   UNL     1      23.312   3.610  23.074  0.00  0.00    +0.001 A 
ATOM     21  C   UNL     1      23.102   2.825  21.946  0.00  0.00    +0.002 A 
ENDBRANCH   5  10
BRANCH   3   9
ATOM      9  C   UNL     1      15.626   8.141  21.581  0.00  0.00    +0.119 C 
BRANCH   9  11
ATOM      1 CL   UNL     1      10.534   7.038  21.695  0.00  0.00    -0.084 Cl
ATOM     11  C   UNL     1      14.266   8.269  20.948  0.00  0.00    -0.032 A 
ATOM     14  C   UNL     1      13.160   7.665  21.545  0.00  0.00    +0.025 A 
ATOM     15  C   UNL     1      14.112   8.991  19.764  0.00  0.00    +0.005 A 
ATOM     18  C   UNL     1      11.899   7.784  20.959  0.00  0.00    +0.041 A 
ATOM     19  C   UNL     1      12.852   9.109  19.178  0.00  0.00    +0.002 A 
ATOM     22  C   UNL     1      11.745   8.506  19.776  0.00  0.00    +0.020 A 
ENDBRANCH   9  11
ENDBRANCH   3   9
TORSDOF 3
ENDMDL
MODEL 8
REMARK VINA RESULT:      -6.3     26.862     29.666
REMARK  Name = 51137072
REMARK  3 active torsions:
REMARK  status: ('A' for Active; 'I' for Inactive)
REMARK    1  A    between atoms: N_3  and  C_9
REMARK    2  A    between atoms: C_5  and  C_10
REMARK    3  A    between atoms: C_9  and  C_11
REMARK                            x       y       z     vdW  Elec       q    Type
REMARK                         _______ _______ _______ _____ _____    ______ ____
ROOT
ATOM      3  N   UNL     1      -6.042 -10.997  16.757  0.00  0.00    -0.297 NA
ATOM      5  C   UNL     1      -7.665  -9.331  17.065  0.00  0.00    +0.060 C 
ATOM      6  C   UNL     1      -7.961 -10.517  18.000  0.00  0.00    +0.027 C 
ATOM      7  C   UNL     1      -6.670  -9.886  16.037  0.00  0.00    +0.095 C 
ATOM      8  C   UNL     1      -7.146 -11.675  17.438  0.00  0.00    +0.085 C 
ENDROOT
BRANCH   5  10
ATOM      2  S   UNL     1      -9.481  -9.355  14.961  0.00  0.00    -0.072 S 
ATOM      4  N   UNL     1      -9.533  -7.677  16.919  0.00  0.00    -0.244 NA
ATOM     10  C   UNL     1      -8.883  -8.706  16.427  0.00  0.00    +0.084 A 
ATOM     12  C   UNL     1     -10.732  -8.169  14.957  0.00  0.00    +0.039 A 
ATOM     13  C   UNL     1     -10.596  -7.357  16.088  0.00  0.00    +0.078 A 
ATOM     16  C   UNL     1     -11.760  -7.971  14.021  0.00  0.00    +0.017 A 
ATOM     17  C   UNL     1     -11.523  -6.311  16.285  0.00  0.00    +0.029 A 
ATOM     20  C   UNL     1     -12.663  -6.929  14.241  0.00  0.00    +0.001 A 
ATOM     21  C   UNL     1     -12.549  -6.108  15.358  0.00  0.00    +0.002 A 
ENDBRANCH   5  10
BRANCH   3   9
ATOM      9  C   UNL     1      -5.307 -11.887  15.871  0.00  0.00    +0.119 C 
BRANCH   9  11
ATOM      1 CL   UNL     1      -2.116 -10.209  12.107  0.00  0.00    -0.084 Cl
ATOM     11  C   UNL     1      -3.975 -11.308  15.475  0.00  0.00    -0.032 A 
ATOM     14  C   UNL     1      -3.695 -11.056  14.132  0.00  0.00    +0.025 A 
ATOM     15  C   UNL     1      -3.020 -11.021  16.451  0.00  0.00    +0.005 A 
ATOM     18  C   UNL     1      -2.462 -10.518  13.765  0.00  0.00    +0.041 A 
ATOM     19  C   UNL     1      -1.787 -10.483  16.084  0.00  0.00    +0.002 A 
ATOM     22  C   UNL     1      -1.507 -10.232  14.741  0.00  0.00    +0.020 A 
ENDBRANCH   9  11
ENDBRANCH   3   9
TORSDOF 3
ENDMDL
MODEL 9
REMARK VINA RESULT:      -6.3      3.978      8.199
REMARK  Name = 51137072
REMARK  3 active torsions:
REMARK  status: ('A' for Active; 'I' for Inactive)
REMARK    1  A    between atoms: N_3  and  C_9
REMARK    2  A    between atoms: C_5  and  C_10
REMARK    3  A    between atoms: C_9  and  C_11
REMARK                            x       y       z     vdW  Elec       q    Type
REMARK                         _______ _______ _______ _____ _____    ______ ____
ROOT
ATOM      3  N   UNL     1      11.566   8.526  20.256  0.00  0.00    -0.297 NA
ATOM      5  C   UNL     1      11.966   9.807  22.180  0.00  0.00    +0.060 C 
ATOM      6  C   UNL     1      11.108   8.584  22.546  0.00  0.00    +0.027 C 
ATOM      7  C   UNL     1      11.875   9.903  20.650  0.00  0.00    +0.095 C 
ATOM      8  C   UNL     1      10.560   8.076  21.218  0.00  0.00    +0.085 C 
ENDROOT
BRANCH   5  10
ATOM      2  S   UNL     1      11.275  12.488  21.934  0.00  0.00    -0.072 S 
ATOM      4  N   UNL     1      11.441  11.220  24.173  0.00  0.00    -0.244 NA
ATOM     10  C   UNL     1      11.573  11.090  22.874  0.00  0.00    +0.084 A 
ATOM     12  C   UNL     1      10.932  13.372  23.374  0.00  0.00    +0.039 A 
ATOM     13  C   UNL     1      11.073  12.522  24.476  0.00  0.00    +0.078 A 
ATOM     16  C   UNL     1      10.564  14.719  23.519  0.00  0.00    +0.017 A 
ATOM     17  C   UNL     1      10.838  13.043  25.766  0.00  0.00    +0.029 A 
ATOM     20  C   UNL     1      10.336  15.208  24.807  0.00  0.00    +0.001 A 
ATOM     21  C   UNL     1      10.471  14.384  25.919  0.00  0.00    +0.002 A 
ENDBRANCH   5  10
BRANCH   3   9
ATOM      9  C   UNL     1      11.098   8.435  18.880  0.00  0.00    +0.119 C 
BRANCH   9  11
ATOM      1 CL   UNL     1      13.473  10.904  14.953  0.00  0.00    -0.084 Cl
ATOM     11  C   UNL     1      12.236   8.494  17.897  0.00  0.00    -0.032 A 
ATOM     14  C   UNL     1      12.318   9.548  16.988  0.00  0.00    +0.025 A 
ATOM     15  C   UNL     1      13.210   7.495  17.895  0.00  0.00    +0.005 A 
ATOM     18  C   UNL     1      13.373   9.604  16.077  0.00  0.00    +0.041 A 
ATOM     19  C   UNL     1      14.265   7.550  16.984  0.00  0.00    +0.002 A 
ATOM     22  C   UNL     1      14.347   8.605  16.075  0.00  0.00    +0.020 A 
ENDBRANCH   9  11
ENDBRANCH   3   9
TORSDOF 3
ENDMDL
MODEL 10
REMARK VINA RESULT:      -6.3      4.587      9.347
REMARK  Name = 51137072
REMARK  3 active torsions:
REMARK  status: ('A' for Active; 'I' for Inactive)
REMARK    1  A    between atoms: N_3  and  C_9
REMARK    2  A    between atoms: C_5  and  C_10
REMARK    3  A    between atoms: C_9  and  C_11
REMARK                            x       y       z     vdW  Elec       q    Type
REMARK                         _______ _______ _______ _____ _____    ______ ____
ROOT
ATOM      3  N   UNL     1      18.653   7.302  21.329  0.00  0.00    -0.297 NA
ATOM      5  C   UNL     1      16.512   7.847  20.539  0.00  0.00    +0.060 C 
ATOM      6  C   UNL     1      17.294   9.138  20.839  0.00  0.00    +0.027 C 
ATOM      7  C   UNL     1      17.302   6.740  21.251  0.00  0.00    +0.095 C 
ATOM      8  C   UNL     1      18.458   8.698  21.719  0.00  0.00    +0.085 C 
ENDROOT
BRANCH   5  10
ATOM      2  S   UNL     1      14.440   9.266  21.730  0.00  0.00    -0.072 S 
ATOM      4  N   UNL     1      14.205   6.904  20.722  0.00  0.00    -0.244 NA
ATOM     10  C   UNL     1      15.056   7.880  20.938  0.00  0.00    +0.084 A 
ATOM     12  C   UNL     1      12.886   8.522  21.805  0.00  0.00    +0.039 A 
ATOM     13  C   UNL     1      12.957   7.256  21.213  0.00  0.00    +0.078 A 
ATOM     16  C   UNL     1      11.691   9.021  22.347  0.00  0.00    +0.017 A 
ATOM     17  C   UNL     1      11.789   6.466  21.165  0.00  0.00    +0.029 A 
ATOM     20  C   UNL     1      10.551   8.218  22.286  0.00  0.00    +0.001 A 
ATOM     21  C   UNL     1      10.595   6.956  21.703  0.00  0.00    +0.002 A 
ENDBRANCH   5  10
BRANCH   3   9
ATOM      9  C   UNL     1      19.501   6.579  22.265  0.00  0.00    +0.119 C 
BRANCH   9  11
ATOM      1 CL   UNL     1      22.871   2.790  21.057  0.00  0.00    -0.084 Cl
ATOM     11  C   UNL     1      20.805   6.167  21.635  0.00  0.00    -0.032 A 
ATOM     14  C   UNL     1      21.189   4.827  21.637  0.00  0.00    +0.025 A 
ATOM     15  C   UNL     1      21.630   7.127  21.047  0.00  0.00    +0.005 A 
ATOM     18  C   UNL     1      22.397   4.445  21.053  0.00  0.00    +0.041 A 
ATOM     19  C   UNL     1      22.838   6.745  20.462  0.00  0.00    +0.002 A 
ATOM     22  C   UNL     1      23.221   5.404  20.465  0.00  0.00    +0.020 A 
ENDBRANCH   9  11
ENDBRANCH   3   9
TORSDOF 3
ENDMDL
