MODEL 1
REMARK VINA RESULT:      -7.0      0.000      0.000
REMARK  Name = 40777064
REMARK  7 active torsions:
REMARK  status: ('A' for Active; 'I' for Inactive)
REMARK    1  A    between atoms: N_7  and  C_17
REMARK    2  A    between atoms: C_11  and  C_18
REMARK    3  A    between atoms: C_12  and  C_17
REMARK    4  A    between atoms: C_20  and  C_23
REMARK    5  A    between atoms: C_21  and  C_25
REMARK    6  A    between atoms: C_22  and  C_24
REMARK    7  A    between atoms: C_33  and  C_34
REMARK                            x       y       z     vdW  Elec       q    Type
REMARK                         _______ _______ _______ _____ _____    ______ ____
ROOT
ATOM      6  N   UNL     1      15.067   9.905   3.361  0.00  0.00    -0.297 NA
ATOM     10  C   UNL     1      15.728   7.436   3.858  0.00  0.00    +0.002 C 
ATOM     11  C   UNL     1      14.697   7.499   2.697  0.00  0.00    +0.055 C 
ATOM     12  C   UNL     1      14.949   9.631   4.818  0.00  0.00    +0.074 C 
ATOM     13  C   UNL     1      15.136   8.126   5.105  0.00  0.00    +0.024 C 
ATOM     14  C   UNL     1      16.949   8.271   3.415  0.00  0.00    +0.019 C 
ATOM     15  C   UNL     1      14.203   8.970   2.597  0.00  0.00    +0.094 C 
ATOM     16  C   UNL     1      16.474   9.663   2.964  0.00  0.00    +0.085 C 
ENDROOT
BRANCH  11  18
ATOM      8  N   UNL     1      13.734   5.355   2.020  0.00  0.00    -0.237 NA
ATOM      9  N   UNL     1      11.515   4.680   2.677  0.00  0.00    -0.232 NA
ATOM     18  C   UNL     1      13.546   6.503   2.704  0.00  0.00    +0.050 A 
ATOM     19  C   UNL     1      12.388   6.807   3.389  0.00  0.00    +0.052 A 
ATOM     20  C   UNL     1      11.397   5.849   3.340  0.00  0.00    +0.081 A 
ATOM     21  C   UNL     1      12.693   4.501   2.048  0.00  0.00    +0.127 A 
ATOM     25  C   UNL     1      12.863   3.219   1.304  0.00  0.00    +0.088 C 
BRANCH  20  23
ATOM      1  S   UNL     1       9.249   7.471   3.716  0.00  0.00    -0.095 S 
ATOM     23  C   UNL     1      10.137   6.037   4.009  0.00  0.00    +0.038 A 
ATOM     26  C   UNL     1       9.493   5.202   4.896  0.00  0.00    +0.017 A 
ATOM     29  C   UNL     1       8.254   5.748   5.341  0.00  0.00    +0.008 A 
ATOM     30  C   UNL     1       7.999   6.979   4.777  0.00  0.00    +0.046 A 
ENDBRANCH  20  23
ENDBRANCH  11  18
BRANCH  12  17
ATOM     17  C   UNL     1      13.643  10.167   5.408  0.00  0.00    +0.123 C 
BRANCH  17   7
ATOM      5  O   UNL     1      10.814   9.991   5.868  0.00  0.00    -0.270 OA
ATOM      7  N   UNL     1      12.958   9.146   6.140  0.00  0.00    -0.310 N 
ATOM     22  C   UNL     1      11.576   9.137   6.315  0.00  0.00    +0.244 C 
ATOM     35  H   UNL     1      13.535   8.444   6.590  0.00  0.00    +0.149 HD
BRANCH  22  24
ATOM     24  C   UNL     1      11.020   8.021   7.124  0.00  0.00    +0.037 A 
ATOM     27  C   UNL     1      11.753   6.846   7.289  0.00  0.00    +0.013 A 
ATOM     28  C   UNL     1       9.764   8.150   7.717  0.00  0.00    +0.013 A 
ATOM     31  C   UNL     1      11.230   5.799   8.047  0.00  0.00    +0.013 A 
ATOM     32  C   UNL     1       9.241   7.102   8.476  0.00  0.00    +0.013 A 
ATOM     33  C   UNL     1       9.973   5.927   8.640  0.00  0.00    +0.055 A 
BRANCH  33  34
ATOM      2  F   UNL     1       9.296   3.650   8.736  0.00  0.00    -0.166 F 
ATOM      3  F   UNL     1      10.175   4.487  10.540  0.00  0.00    -0.166 F 
ATOM      4  F   UNL     1       8.169   5.060   9.949  0.00  0.00    -0.166 F 
ATOM     34  C   UNL     1       9.415   4.806   9.451  0.00  0.00    +0.417 C 
ENDBRANCH  33  34
ENDBRANCH  22  24
ENDBRANCH  17   7
ENDBRANCH  12  17
TORSDOF 6
ENDMDL
MODEL 2
REMARK VINA RESULT:      -6.9     23.811     26.485
REMARK  Name = 40777064
REMARK  7 active torsions:
REMARK  status: ('A' for Active; 'I' for Inactive)
REMARK    1  A    between atoms: N_7  and  C_17
REMARK    2  A    between atoms: C_11  and  C_18
REMARK    3  A    between atoms: C_12  and  C_17
REMARK    4  A    between atoms: C_20  and  C_23
REMARK    5  A    between atoms: C_21  and  C_25
REMARK    6  A    between atoms: C_22  and  C_24
REMARK    7  A    between atoms: C_33  and  C_34
REMARK                            x       y       z     vdW  Elec       q    Type
REMARK                         _______ _______ _______ _____ _____    ______ ____
ROOT
ATOM      6  N   UNL     1      -5.477 -10.836   9.579  0.00  0.00    -0.297 NA
ATOM     10  C   UNL     1      -3.725  -9.270  10.701  0.00  0.00    +0.002 C 
ATOM     11  C   UNL     1      -3.249 -10.748  10.760  0.00  0.00    +0.055 C 
ATOM     12  C   UNL     1      -6.150  -9.939  10.556  0.00  0.00    +0.074 C 
ATOM     13  C   UNL     1      -5.107  -9.150  11.377  0.00  0.00    +0.024 C 
ATOM     14  C   UNL     1      -3.920  -8.924   9.208  0.00  0.00    +0.019 C 
ATOM     15  C   UNL     1      -4.426 -11.633  10.260  0.00  0.00    +0.094 C 
ATOM     16  C   UNL     1      -4.823  -9.985   8.556  0.00  0.00    +0.085 C 
ENDROOT
BRANCH  11  18
ATOM      8  N   UNL     1      -2.180 -10.331  12.920  0.00  0.00    -0.237 NA
ATOM      9  N   UNL     1      -1.577 -12.120  14.419  0.00  0.00    -0.232 NA
ATOM     18  C   UNL     1      -2.656 -11.260  12.064  0.00  0.00    +0.050 A 
ATOM     19  C   UNL     1      -2.629 -12.617  12.312  0.00  0.00    +0.052 A 
ATOM     20  C   UNL     1      -2.072 -12.992  13.517  0.00  0.00    +0.081 A 
ATOM     21  C   UNL     1      -1.662 -10.824  14.061  0.00  0.00    +0.127 A 
ATOM     25  C   UNL     1      -1.127  -9.828  15.034  0.00  0.00    +0.088 C 
BRANCH  20  23
ATOM      1  S   UNL     1      -0.609 -15.280  13.414  0.00  0.00    -0.095 S 
ATOM     23  C   UNL     1      -1.978 -14.375  13.902  0.00  0.00    +0.038 A 
ATOM     26  C   UNL     1      -2.860 -15.132  14.642  0.00  0.00    +0.017 A 
ATOM     29  C   UNL     1      -2.405 -16.472  14.810  0.00  0.00    +0.008 A 
ATOM     30  C   UNL     1      -1.194 -16.688  14.192  0.00  0.00    +0.046 A 
ENDBRANCH  20  23
ENDBRANCH  11  18
BRANCH  12  17
ATOM     17  C   UNL     1      -7.134 -10.690  11.455  0.00  0.00    +0.123 C 
BRANCH  17   7
ATOM      5  O   UNL     1      -6.251 -13.142  12.661  0.00  0.00    -0.270 OA
ATOM      7  N   UNL     1      -6.601 -10.851  12.773  0.00  0.00    -0.310 N 
ATOM     22  C   UNL     1      -6.195 -12.083  13.281  0.00  0.00    +0.244 C 
ATOM     35  H   UNL     1      -6.586 -10.025  13.362  0.00  0.00    +0.149 HD
BRANCH  22  24
ATOM     24  C   UNL     1      -5.687 -12.086  14.678  0.00  0.00    +0.037 A 
ATOM     27  C   UNL     1      -5.894 -13.198  15.494  0.00  0.00    +0.013 A 
ATOM     28  C   UNL     1      -5.003 -10.975  15.172  0.00  0.00    +0.013 A 
ATOM     31  C   UNL     1      -5.419 -13.200  16.804  0.00  0.00    +0.013 A 
ATOM     32  C   UNL     1      -4.527 -10.977  16.484  0.00  0.00    +0.013 A 
ATOM     33  C   UNL     1      -4.735 -12.088  17.300  0.00  0.00    +0.055 A 
BRANCH  33  34
ATOM      2  F   UNL     1      -4.067 -13.352  19.200  0.00  0.00    -0.166 F 
ATOM      3  F   UNL     1      -3.010 -11.485  18.844  0.00  0.00    -0.166 F 
ATOM      4  F   UNL     1      -5.049 -11.450  19.583  0.00  0.00    -0.166 F 
ATOM     34  C   UNL     1      -4.226 -12.091  18.702  0.00  0.00    +0.417 C 
ENDBRANCH  33  34
ENDBRANCH  22  24
ENDBRANCH  17   7
ENDBRANCH  12  17
TORSDOF 6
ENDMDL
MODEL 3
REMARK VINA RESULT:      -6.6      3.572      6.543
REMARK  Name = 40777064
REMARK  7 active torsions:
REMARK  status: ('A' for Active; 'I' for Inactive)
REMARK    1  A    between atoms: N_7  and  C_17
REMARK    2  A    between atoms: C_11  and  C_18
REMARK    3  A    between atoms: C_12  and  C_17
REMARK    4  A    between atoms: C_20  and  C_23
REMARK    5  A    between atoms: C_21  and  C_25
REMARK    6  A    between atoms: C_22  and  C_24
REMARK    7  A    between atoms: C_33  and  C_34
REMARK                            x       y       z     vdW  Elec       q    Type
REMARK                         _______ _______ _______ _____ _____    ______ ____
ROOT
ATOM      6  N   UNL     1       7.633  11.920   2.746  0.00  0.00    -0.297 NA
ATOM     10  C   UNL     1       7.139  12.544   5.226  0.00  0.00    +0.002 C 
ATOM     11  C   UNL     1       8.661  12.316   5.016  0.00  0.00    +0.055 C 
ATOM     12  C   UNL     1       6.535  11.068   3.276  0.00  0.00    +0.074 C 
ATOM     13  C   UNL     1       6.369  11.278   4.796  0.00  0.00    +0.024 C 
ATOM     14  C   UNL     1       6.722  13.677   4.263  0.00  0.00    +0.019 C 
ATOM     15  C   UNL     1       8.851  11.755   3.578  0.00  0.00    +0.094 C 
ATOM     16  C   UNL     1       7.197  13.334   2.840  0.00  0.00    +0.085 C 
ENDROOT
BRANCH  11  18
ATOM      8  N   UNL     1       9.077  11.704   7.347  0.00  0.00    -0.237 NA
ATOM      9  N   UNL     1      10.739  10.073   7.969  0.00  0.00    -0.232 NA
ATOM     18  C   UNL     1       9.416  11.502   6.057  0.00  0.00    +0.050 A 
ATOM     19  C   UNL     1      10.392  10.616   5.650  0.00  0.00    +0.052 A 
ATOM     20  C   UNL     1      11.026   9.922   6.659  0.00  0.00    +0.081 A 
ATOM     21  C   UNL     1       9.768  10.967   8.238  0.00  0.00    +0.127 A 
ATOM     25  C   UNL     1       9.420  11.161   9.675  0.00  0.00    +0.088 C 
BRANCH  20  23
ATOM      1  S   UNL     1      13.162   9.289   5.103  0.00  0.00    -0.095 S 
ATOM     23  C   UNL     1      12.065   8.967   6.377  0.00  0.00    +0.038 A 
ATOM     26  C   UNL     1      12.335   7.769   7.001  0.00  0.00    +0.017 A 
ATOM     29  C   UNL     1      13.457   7.107   6.425  0.00  0.00    +0.008 A 
ATOM     30  C   UNL     1      14.002   7.823   5.383  0.00  0.00    +0.046 A 
ENDBRANCH  20  23
ENDBRANCH  11  18
BRANCH  12  17
ATOM     17  C   UNL     1       6.721   9.591   2.921  0.00  0.00    +0.123 C 
BRANCH  17   7
ATOM      5  O   UNL     1       8.884   7.703   2.970  0.00  0.00    -0.270 OA
ATOM      7  N   UNL     1       7.183   8.849   4.054  0.00  0.00    -0.310 N 
ATOM     22  C   UNL     1       8.244   7.949   3.989  0.00  0.00    +0.244 C 
ATOM     35  H   UNL     1       6.657   8.957   4.915  0.00  0.00    +0.149 HD
BRANCH  22  24
ATOM     24  C   UNL     1       8.584   7.237   5.249  0.00  0.00    +0.037 A 
ATOM     27  C   UNL     1       8.272   7.810   6.481  0.00  0.00    +0.013 A 
ATOM     28  C   UNL     1       9.215   5.995   5.197  0.00  0.00    +0.013 A 
ATOM     31  C   UNL     1       8.592   7.143   7.663  0.00  0.00    +0.013 A 
ATOM     32  C   UNL     1       9.536   5.326   6.379  0.00  0.00    +0.013 A 
ATOM     33  C   UNL     1       9.225   5.899   7.611  0.00  0.00    +0.055 A 
BRANCH  33  34
ATOM      2  F   UNL     1       9.675   3.836   8.703  0.00  0.00    -0.166 F 
ATOM      3  F   UNL     1      10.753   5.581   9.424  0.00  0.00    -0.166 F 
ATOM      4  F   UNL     1       8.641   5.355   9.866  0.00  0.00    -0.166 F 
ATOM     34  C   UNL     1       9.566   5.185   8.875  0.00  0.00    +0.417 C 
ENDBRANCH  33  34
ENDBRANCH  22  24
ENDBRANCH  17   7
ENDBRANCH  12  17
TORSDOF 6
ENDMDL
MODEL 4
REMARK VINA RESULT:      -6.4     25.622     28.645
REMARK  Name = 40777064
REMARK  7 active torsions:
REMARK  status: ('A' for Active; 'I' for Inactive)
REMARK    1  A    between atoms: N_7  and  C_17
REMARK    2  A    between atoms: C_11  and  C_18
REMARK    3  A    between atoms: C_12  and  C_17
REMARK    4  A    between atoms: C_20  and  C_23
REMARK    5  A    between atoms: C_21  and  C_25
REMARK    6  A    between atoms: C_22  and  C_24
REMARK    7  A    between atoms: C_33  and  C_34
REMARK                            x       y       z     vdW  Elec       q    Type
REMARK                         _______ _______ _______ _____ _____    ______ ____
ROOT
ATOM      6  N   UNL     1     -11.299 -10.314  17.528  0.00  0.00    -0.297 NA
ATOM     10  C   UNL     1     -10.290  -8.484  15.975  0.00  0.00    +0.002 C 
ATOM     11  C   UNL     1     -10.363  -9.846  15.232  0.00  0.00    +0.055 C 
ATOM     12  C   UNL     1     -10.208  -9.593  18.235  0.00  0.00    +0.074 C 
ATOM     13  C   UNL     1      -9.463  -8.650  17.267  0.00  0.00    +0.024 C 
ATOM     14  C   UNL     1     -11.731  -8.132  16.402  0.00  0.00    +0.019 C 
ATOM     15  C   UNL     1     -10.780 -10.921  16.276  0.00  0.00    +0.094 C 
ATOM     16  C   UNL     1     -12.339  -9.322  17.165  0.00  0.00    +0.085 C 
ENDROOT
BRANCH  11  18
ATOM      8  N   UNL     1      -9.004  -9.688  13.205  0.00  0.00    -0.237 NA
ATOM      9  N   UNL     1      -7.021 -11.021  12.881  0.00  0.00    -0.232 NA
ATOM     18  C   UNL     1      -9.160 -10.280  14.407  0.00  0.00    +0.050 A 
ATOM     19  C   UNL     1      -8.301 -11.237  14.908  0.00  0.00    +0.052 A 
ATOM     20  C   UNL     1      -7.239 -11.571  14.094  0.00  0.00    +0.081 A 
ATOM     21  C   UNL     1      -7.929 -10.100  12.505  0.00  0.00    +0.127 A 
ATOM     25  C   UNL     1      -7.722  -9.467  11.170  0.00  0.00    +0.088 C 
BRANCH  20  23
ATOM      1  S   UNL     1      -4.911 -12.835  13.486  0.00  0.00    -0.095 S 
ATOM     23  C   UNL     1      -6.269 -12.556  14.492  0.00  0.00    +0.038 A 
ATOM     26  C   UNL     1      -6.253 -13.355  15.614  0.00  0.00    +0.017 A 
ATOM     29  C   UNL     1      -5.112 -14.207  15.648  0.00  0.00    +0.008 A 
ATOM     30  C   UNL     1      -4.299 -14.027  14.551  0.00  0.00    +0.046 A 
ENDBRANCH  20  23
ENDBRANCH  11  18
BRANCH  12  17
ATOM     17  C   UNL     1      -9.250 -10.546  18.954  0.00  0.00    +0.123 C 
BRANCH  17   7
ATOM      5  O   UNL     1      -6.646 -10.604  20.162  0.00  0.00    -0.270 OA
ATOM      7  N   UNL     1      -7.993 -10.615  18.274  0.00  0.00    -0.310 N 
ATOM     22  C   UNL     1      -6.770 -10.638  18.941  0.00  0.00    +0.244 C 
ATOM     35  H   UNL     1      -8.022 -10.583  17.260  0.00  0.00    +0.149 HD
BRANCH  22  24
ATOM     24  C   UNL     1      -5.554 -10.684  18.088  0.00  0.00    +0.037 A 
ATOM     27  C   UNL     1      -4.464 -11.466  18.469  0.00  0.00    +0.013 A 
ATOM     28  C   UNL     1      -5.504  -9.944  16.907  0.00  0.00    +0.013 A 
ATOM     31  C   UNL     1      -3.322 -11.508  17.669  0.00  0.00    +0.013 A 
ATOM     32  C   UNL     1      -4.361  -9.986  16.107  0.00  0.00    +0.013 A 
ATOM     33  C   UNL     1      -3.271 -10.767  16.488  0.00  0.00    +0.055 A 
BRANCH  33  34
ATOM      2  F   UNL     1      -2.161 -10.036  14.516  0.00  0.00    -0.166 F 
ATOM      3  F   UNL     1      -0.920 -10.380  16.268  0.00  0.00    -0.166 F 
ATOM      4  F   UNL     1      -1.746 -12.065  15.179  0.00  0.00    -0.166 F 
ATOM     34  C   UNL     1      -2.050 -10.812  15.632  0.00  0.00    +0.417 C 
ENDBRANCH  33  34
ENDBRANCH  22  24
ENDBRANCH  17   7
ENDBRANCH  12  17
TORSDOF 6
ENDMDL
MODEL 5
REMARK VINA RESULT:      -6.3     24.644     28.125
REMARK  Name = 40777064
REMARK  7 active torsions:
REMARK  status: ('A' for Active; 'I' for Inactive)
REMARK    1  A    between atoms: N_7  and  C_17
REMARK    2  A    between atoms: C_11  and  C_18
REMARK    3  A    between atoms: C_12  and  C_17
REMARK    4  A    between atoms: C_20  and  C_23
REMARK    5  A    between atoms: C_21  and  C_25
REMARK    6  A    between atoms: C_22  and  C_24
REMARK    7  A    between atoms: C_33  and  C_34
REMARK                            x       y       z     vdW  Elec       q    Type
REMARK                         _______ _______ _______ _____ _____    ______ ____
ROOT
ATOM      6  N   UNL     1     -11.342 -10.117  17.277  0.00  0.00    -0.297 NA
ATOM     10  C   UNL     1     -10.269  -8.317  15.730  0.00  0.00    +0.002 C 
ATOM     11  C   UNL     1     -10.300  -9.697  15.017  0.00  0.00    +0.055 C 
ATOM     12  C   UNL     1     -10.288  -9.373  18.017  0.00  0.00    +0.074 C 
ATOM     13  C   UNL     1      -9.503  -8.448  17.063  0.00  0.00    +0.024 C 
ATOM     14  C   UNL     1     -11.730  -7.964  16.080  0.00  0.00    +0.019 C 
ATOM     15  C   UNL     1     -10.761 -10.750  16.066  0.00  0.00    +0.094 C 
ATOM     16  C   UNL     1     -12.368  -9.140  16.841  0.00  0.00    +0.085 C 
ENDROOT
BRANCH  11  18
ATOM      8  N   UNL     1      -8.412 -11.227  14.739  0.00  0.00    -0.237 NA
ATOM      9  N   UNL     1      -6.819 -10.989  12.946  0.00  0.00    -0.232 NA
ATOM     18  C   UNL     1      -9.057 -10.144  14.260  0.00  0.00    +0.050 A 
ATOM     19  C   UNL     1      -8.650  -9.439  13.146  0.00  0.00    +0.052 A 
ATOM     20  C   UNL     1      -7.514  -9.912  12.523  0.00  0.00    +0.081 A 
ATOM     21  C   UNL     1      -7.317 -11.590  14.044  0.00  0.00    +0.127 A 
ATOM     25  C   UNL     1      -6.577 -12.785  14.542  0.00  0.00    +0.088 C 
BRANCH  20  23
ATOM      1  S   UNL     1      -8.028  -8.919  10.046  0.00  0.00    -0.095 S 
ATOM     23  C   UNL     1      -6.978  -9.272  11.351  0.00  0.00    +0.038 A 
ATOM     26  C   UNL     1      -5.685  -8.874  11.095  0.00  0.00    +0.017 A 
ATOM     29  C   UNL     1      -5.554  -8.272   9.810  0.00  0.00    +0.008 A 
ATOM     30  C   UNL     1      -6.753  -8.233   9.133  0.00  0.00    +0.046 A 
ENDBRANCH  20  23
ENDBRANCH  11  18
BRANCH  12  17
ATOM     17  C   UNL     1      -9.361 -10.303  18.803  0.00  0.00    +0.123 C 
BRANCH  17   7
ATOM      5  O   UNL     1      -6.797 -10.556  20.071  0.00  0.00    -0.270 OA
ATOM      7  N   UNL     1      -8.094 -10.429  18.151  0.00  0.00    -0.310 N 
ATOM     22  C   UNL     1      -6.892 -10.547  18.846  0.00  0.00    +0.244 C 
ATOM     35  H   UNL     1      -8.094 -10.365  17.138  0.00  0.00    +0.149 HD
BRANCH  22  24
ATOM     24  C   UNL     1      -5.659 -10.642  18.023  0.00  0.00    +0.037 A 
ATOM     27  C   UNL     1      -4.565 -11.374  18.485  0.00  0.00    +0.013 A 
ATOM     28  C   UNL     1      -5.597 -10.000  16.786  0.00  0.00    +0.013 A 
ATOM     31  C   UNL     1      -3.408 -11.461  17.712  0.00  0.00    +0.013 A 
ATOM     32  C   UNL     1      -4.439 -10.089  16.012  0.00  0.00    +0.013 A 
ATOM     33  C   UNL     1      -3.345 -10.818  16.475  0.00  0.00    +0.055 A 
BRANCH  33  34
ATOM      2  F   UNL     1      -2.147 -10.107  14.549  0.00  0.00    -0.166 F 
ATOM      3  F   UNL     1      -0.972 -10.560  16.321  0.00  0.00    -0.166 F 
ATOM      4  F   UNL     1      -1.863 -12.170  15.173  0.00  0.00    -0.166 F 
ATOM     34  C   UNL     1      -2.107 -10.913  15.649  0.00  0.00    +0.417 C 
ENDBRANCH  33  34
ENDBRANCH  22  24
ENDBRANCH  17   7
ENDBRANCH  12  17
TORSDOF 6
ENDMDL
MODEL 6
REMARK VINA RESULT:      -6.3     32.488     36.497
REMARK  Name = 40777064
REMARK  7 active torsions:
REMARK  status: ('A' for Active; 'I' for Inactive)
REMARK    1  A    between atoms: N_7  and  C_17
REMARK    2  A    between atoms: C_11  and  C_18
REMARK    3  A    between atoms: C_12  and  C_17
REMARK    4  A    between atoms: C_20  and  C_23
REMARK    5  A    between atoms: C_21  and  C_25
REMARK    6  A    between atoms: C_22  and  C_24
REMARK    7  A    between atoms: C_33  and  C_34
REMARK                            x       y       z     vdW  Elec       q    Type
REMARK                         _______ _______ _______ _____ _____    ______ ____
ROOT
ATOM      6  N   UNL     1     -12.683   9.636  33.933  0.00  0.00    -0.297 NA
ATOM     10  C   UNL     1     -11.385   9.166  31.724  0.00  0.00    +0.002 C 
ATOM     11  C   UNL     1     -12.416  10.310  31.516  0.00  0.00    +0.055 C 
ATOM     12  C   UNL     1     -12.700   8.179  33.634  0.00  0.00    +0.074 C 
ATOM     13  C   UNL     1     -12.117   7.905  32.231  0.00  0.00    +0.024 C 
ATOM     14  C   UNL     1     -10.435   9.622  32.853  0.00  0.00    +0.019 C 
ATOM     15  C   UNL     1     -13.282  10.393  32.805  0.00  0.00    +0.094 C 
ATOM     16  C   UNL     1     -11.268  10.056  34.072  0.00  0.00    +0.085 C 
ENDROOT
BRANCH  11  18
ATOM      8  N   UNL     1     -14.580  10.049  30.408  0.00  0.00    -0.237 NA
ATOM      9  N   UNL     1     -14.831  10.246  28.018  0.00  0.00    -0.232 NA
ATOM     18  C   UNL     1     -13.262  10.293  30.251  0.00  0.00    +0.050 A 
ATOM     19  C   UNL     1     -12.664  10.520  29.029  0.00  0.00    +0.052 A 
ATOM     20  C   UNL     1     -13.505  10.484  27.937  0.00  0.00    +0.081 A 
ATOM     21  C   UNL     1     -15.295  10.040  29.266  0.00  0.00    +0.127 A 
ATOM     25  C   UNL     1     -16.757   9.775  29.398  0.00  0.00    +0.088 C 
BRANCH  20  23
ATOM      1  S   UNL     1     -14.081  10.490  25.281  0.00  0.00    -0.095 S 
ATOM     23  C   UNL     1     -13.014  10.702  26.602  0.00  0.00    +0.038 A 
ATOM     26  C   UNL     1     -11.752  11.075  26.193  0.00  0.00    +0.017 A 
ATOM     29  C   UNL     1     -11.662  11.187  24.775  0.00  0.00    +0.008 A 
ATOM     30  C   UNL     1     -12.857  10.897  24.156  0.00  0.00    +0.046 A 
ENDBRANCH  20  23
ENDBRANCH  11  18
BRANCH  12  17
ATOM     17  C   UNL     1     -14.091   7.565  33.804  0.00  0.00    +0.123 C 
BRANCH  17   7
ATOM      5  O   UNL     1     -14.085   4.992  35.079  0.00  0.00    -0.270 OA
ATOM      7  N   UNL     1     -14.168   6.291  33.158  0.00  0.00    -0.310 N 
ATOM     22  C   UNL     1     -14.159   5.085  33.856  0.00  0.00    +0.244 C 
ATOM     35  H   UNL     1     -14.168   6.293  32.144  0.00  0.00    +0.149 HD
BRANCH  22  24
ATOM     24  C   UNL     1     -14.220   3.847  33.037  0.00  0.00    +0.037 A 
ATOM     27  C   UNL     1     -13.774   3.861  31.715  0.00  0.00    +0.013 A 
ATOM     28  C   UNL     1     -14.722   2.669  33.591  0.00  0.00    +0.013 A 
ATOM     31  C   UNL     1     -13.832   2.700  30.947  0.00  0.00    +0.013 A 
ATOM     32  C   UNL     1     -14.779   1.506  32.822  0.00  0.00    +0.013 A 
ATOM     33  C   UNL     1     -14.335   1.522  31.501  0.00  0.00    +0.055 A 
BRANCH  33  34
ATOM      2  F   UNL     1     -14.889  -0.787  31.373  0.00  0.00    -0.166 F 
ATOM      3  F   UNL     1     -15.189   0.393  29.572  0.00  0.00    -0.166 F 
ATOM      4  F   UNL     1     -13.180  -0.123  30.204  0.00  0.00    -0.166 F 
ATOM     34  C   UNL     1     -14.396   0.279  30.678  0.00  0.00    +0.417 C 
ENDBRANCH  33  34
ENDBRANCH  22  24
ENDBRANCH  17   7
ENDBRANCH  12  17
TORSDOF 6
ENDMDL
MODEL 7
REMARK VINA RESULT:      -6.3     36.333     38.401
REMARK  Name = 40777064
REMARK  7 active torsions:
REMARK  status: ('A' for Active; 'I' for Inactive)
REMARK    1  A    between atoms: N_7  and  C_17
REMARK    2  A    between atoms: C_11  and  C_18
REMARK    3  A    between atoms: C_12  and  C_17
REMARK    4  A    between atoms: C_20  and  C_23
REMARK    5  A    between atoms: C_21  and  C_25
REMARK    6  A    between atoms: C_22  and  C_24
REMARK    7  A    between atoms: C_33  and  C_34
REMARK                            x       y       z     vdW  Elec       q    Type
REMARK                         _______ _______ _______ _____ _____    ______ ____
ROOT
ATOM      6  N   UNL     1     -15.012   9.150  33.936  0.00  0.00    -0.297 NA
ATOM     10  C   UNL     1     -14.924   8.799  31.357  0.00  0.00    +0.002 C 
ATOM     11  C   UNL     1     -16.290   8.322  31.923  0.00  0.00    +0.055 C 
ATOM     12  C   UNL     1     -13.758   8.443  33.561  0.00  0.00    +0.074 C 
ATOM     13  C   UNL     1     -13.783   8.044  32.070  0.00  0.00    +0.024 C 
ATOM     14  C   UNL     1     -14.783  10.291  31.730  0.00  0.00    +0.019 C 
ATOM     15  C   UNL     1     -16.190   8.373  33.475  0.00  0.00    +0.094 C 
ATOM     16  C   UNL     1     -15.021  10.459  33.241  0.00  0.00    +0.085 C 
ENDROOT
BRANCH  11  18
ATOM      8  N   UNL     1     -17.604   6.293  32.294  0.00  0.00    -0.237 NA
ATOM      9  N   UNL     1     -17.885   4.615  30.587  0.00  0.00    -0.232 NA
ATOM     18  C   UNL     1     -16.852   6.999  31.425  0.00  0.00    +0.050 A 
ATOM     19  C   UNL     1     -16.576   6.585  30.138  0.00  0.00    +0.052 A 
ATOM     20  C   UNL     1     -17.124   5.374  29.770  0.00  0.00    +0.081 A 
ATOM     21  C   UNL     1     -18.082   5.128  31.817  0.00  0.00    +0.127 A 
ATOM     25  C   UNL     1     -18.919   4.319  32.749  0.00  0.00    +0.088 C 
BRANCH  20  23
ATOM      1  S   UNL     1     -17.653   5.580  27.112  0.00  0.00    -0.095 S 
ATOM     23  C   UNL     1     -16.915   4.822  28.458  0.00  0.00    +0.038 A 
ATOM     26  C   UNL     1     -16.174   3.721  28.088  0.00  0.00    +0.017 A 
ATOM     29  C   UNL     1     -16.215   3.497  26.681  0.00  0.00    +0.008 A 
ATOM     30  C   UNL     1     -16.984   4.435  26.030  0.00  0.00    +0.046 A 
ENDBRANCH  20  23
ENDBRANCH  11  18
BRANCH  12  17
ATOM     17  C   UNL     1     -13.472   7.244  34.468  0.00  0.00    +0.123 C 
BRANCH  17   7
ATOM      5  O   UNL     1     -15.400   5.190  35.022  0.00  0.00    -0.270 OA
ATOM      7  N   UNL     1     -13.639   6.015  33.756  0.00  0.00    -0.310 N 
ATOM     22  C   UNL     1     -14.605   5.069  34.094  0.00  0.00    +0.244 C 
ATOM     35  H   UNL     1     -12.973   5.823  33.016  0.00  0.00    +0.149 HD
BRANCH  22  24
ATOM     24  C   UNL     1     -14.633   3.831  33.271  0.00  0.00    +0.037 A 
ATOM     27  C   UNL     1     -14.773   2.587  33.886  0.00  0.00    +0.013 A 
ATOM     28  C   UNL     1     -14.519   3.915  31.884  0.00  0.00    +0.013 A 
ATOM     31  C   UNL     1     -14.798   1.427  33.114  0.00  0.00    +0.013 A 
ATOM     32  C   UNL     1     -14.545   2.754  31.111  0.00  0.00    +0.013 A 
ATOM     33  C   UNL     1     -14.683   1.510  31.726  0.00  0.00    +0.055 A 
BRANCH  33  34
ATOM      2  F   UNL     1     -15.160  -0.816  31.598  0.00  0.00    -0.166 F 
ATOM      3  F   UNL     1     -15.519   0.358  29.802  0.00  0.00    -0.166 F 
ATOM      4  F   UNL     1     -13.487  -0.092  30.413  0.00  0.00    -0.166 F 
ATOM     34  C   UNL     1     -14.711   0.268  30.900  0.00  0.00    +0.417 C 
ENDBRANCH  33  34
ENDBRANCH  22  24
ENDBRANCH  17   7
ENDBRANCH  12  17
TORSDOF 6
ENDMDL
MODEL 8
REMARK VINA RESULT:      -6.2     24.343     27.122
REMARK  Name = 40777064
REMARK  7 active torsions:
REMARK  status: ('A' for Active; 'I' for Inactive)
REMARK    1  A    between atoms: N_7  and  C_17
REMARK    2  A    between atoms: C_11  and  C_18
REMARK    3  A    between atoms: C_12  and  C_17
REMARK    4  A    between atoms: C_20  and  C_23
REMARK    5  A    between atoms: C_21  and  C_25
REMARK    6  A    between atoms: C_22  and  C_24
REMARK    7  A    between atoms: C_33  and  C_34
REMARK                            x       y       z     vdW  Elec       q    Type
REMARK                         _______ _______ _______ _____ _____    ______ ____
ROOT
ATOM      6  N   UNL     1      -3.474  -9.922  11.195  0.00  0.00    -0.297 NA
ATOM     10  C   UNL     1      -4.516 -12.297  11.432  0.00  0.00    +0.002 C 
ATOM     11  C   UNL     1      -5.514 -11.215  11.926  0.00  0.00    +0.055 C 
ATOM     12  C   UNL     1      -2.522 -10.827  11.891  0.00  0.00    +0.074 C 
ATOM     13  C   UNL     1      -3.197 -12.175  12.224  0.00  0.00    +0.024 C 
ATOM     14  C   UNL     1      -4.192 -11.965   9.959  0.00  0.00    +0.019 C 
ATOM     15  C   UNL     1      -4.754  -9.858  11.944  0.00  0.00    +0.094 C 
ATOM     16  C   UNL     1      -3.750 -10.495   9.856  0.00  0.00    +0.085 C 
ENDROOT
BRANCH  11  18
ATOM      8  N   UNL     1      -5.990 -12.622  13.868  0.00  0.00    -0.237 NA
ATOM      9  N   UNL     1      -7.593 -11.986  15.553  0.00  0.00    -0.232 NA
ATOM     18  C   UNL     1      -6.269 -11.471  13.223  0.00  0.00    +0.050 A 
ATOM     19  C   UNL     1      -7.183 -10.541  13.672  0.00  0.00    +0.052 A 
ATOM     20  C   UNL     1      -7.821 -10.854  14.854  0.00  0.00    +0.081 A 
ATOM     21  C   UNL     1      -6.678 -12.813  15.011  0.00  0.00    +0.127 A 
ATOM     25  C   UNL     1      -6.397 -14.075  15.754  0.00  0.00    +0.088 C 
BRANCH  20  23
ATOM      1  S   UNL     1      -9.887  -9.147  14.405  0.00  0.00    -0.095 S 
ATOM     23  C   UNL     1      -8.800  -9.975  15.436  0.00  0.00    +0.038 A 
ATOM     26  C   UNL     1      -9.016  -9.674  16.763  0.00  0.00    +0.017 A 
ATOM     29  C   UNL     1     -10.088  -8.752  16.934  0.00  0.00    +0.008 A 
ATOM     30  C   UNL     1     -10.651  -8.383  15.733  0.00  0.00    +0.046 A 
ENDBRANCH  20  23
ENDBRANCH  11  18
BRANCH  12  17
ATOM     17  C   UNL     1      -1.902 -10.178  13.131  0.00  0.00    +0.123 C 
BRANCH  17   7
ATOM      5  O   UNL     1      -1.078 -10.798  15.811  0.00  0.00    -0.270 OA
ATOM      7  N   UNL     1      -2.751 -10.340  14.270  0.00  0.00    -0.310 N 
ATOM     22  C   UNL     1      -2.266 -10.642  15.541  0.00  0.00    +0.244 C 
ATOM     35  H   UNL     1      -3.751 -10.286  14.104  0.00  0.00    +0.149 HD
BRANCH  22  24
ATOM     24  C   UNL     1      -3.281 -10.803  16.614  0.00  0.00    +0.037 A 
ATOM     27  C   UNL     1      -4.503 -10.137  16.526  0.00  0.00    +0.013 A 
ATOM     28  C   UNL     1      -3.010 -11.623  17.710  0.00  0.00    +0.013 A 
ATOM     31  C   UNL     1      -5.454 -10.288  17.534  0.00  0.00    +0.013 A 
ATOM     32  C   UNL     1      -3.962 -11.775  18.719  0.00  0.00    +0.013 A 
ATOM     33  C   UNL     1      -5.183 -11.108  18.631  0.00  0.00    +0.055 A 
BRANCH  33  34
ATOM      2  F   UNL     1      -7.164 -10.302  19.672  0.00  0.00    -0.166 F 
ATOM      3  F   UNL     1      -6.874 -12.457  19.653  0.00  0.00    -0.166 F 
ATOM      4  F   UNL     1      -5.677 -11.217  20.969  0.00  0.00    -0.166 F 
ATOM     34  C   UNL     1      -6.202 -11.270  19.709  0.00  0.00    +0.417 C 
ENDBRANCH  33  34
ENDBRANCH  22  24
ENDBRANCH  17   7
ENDBRANCH  12  17
TORSDOF 6
ENDMDL
MODEL 9
REMARK VINA RESULT:      -6.1     25.064     28.122
REMARK  Name = 40777064
REMARK  7 active torsions:
REMARK  status: ('A' for Active; 'I' for Inactive)
REMARK    1  A    between atoms: N_7  and  C_17
REMARK    2  A    between atoms: C_11  and  C_18
REMARK    3  A    between atoms: C_12  and  C_17
REMARK    4  A    between atoms: C_20  and  C_23
REMARK    5  A    between atoms: C_21  and  C_25
REMARK    6  A    between atoms: C_22  and  C_24
REMARK    7  A    between atoms: C_33  and  C_34
REMARK                            x       y       z     vdW  Elec       q    Type
REMARK                         _______ _______ _______ _____ _____    ______ ____
ROOT
ATOM      6  N   UNL     1      -2.411 -10.538  13.519  0.00  0.00    -0.297 NA
ATOM     10  C   UNL     1      -3.683 -12.758  13.038  0.00  0.00    +0.002 C 
ATOM     11  C   UNL     1      -4.657 -11.549  12.972  0.00  0.00    +0.055 C 
ATOM     12  C   UNL     1      -2.098 -11.541  14.571  0.00  0.00    +0.074 C 
ATOM     13  C   UNL     1      -2.997 -12.787  14.419  0.00  0.00    +0.024 C 
ATOM     14  C   UNL     1      -2.580 -12.500  11.989  0.00  0.00    +0.019 C 
ATOM     15  C   UNL     1      -3.875 -10.298  13.465  0.00  0.00    +0.094 C 
ATOM     16  C   UNL     1      -1.985 -11.099  12.215  0.00  0.00    +0.085 C 
ENDROOT
BRANCH  11  18
ATOM      8  N   UNL     1      -6.604 -12.895  13.588  0.00  0.00    -0.237 NA
ATOM      9  N   UNL     1      -8.455 -11.980  14.833  0.00  0.00    -0.232 NA
ATOM     18  C   UNL     1      -6.015 -11.682  13.645  0.00  0.00    +0.050 A 
ATOM     19  C   UNL     1      -6.575 -10.586  14.268  0.00  0.00    +0.052 A 
ATOM     20  C   UNL     1      -7.808 -10.796  14.850  0.00  0.00    +0.081 A 
ATOM     21  C   UNL     1      -7.804 -12.972  14.194  0.00  0.00    +0.127 A 
ATOM     25  C   UNL     1      -8.486 -14.298  14.154  0.00  0.00    +0.088 C 
BRANCH  20  23
ATOM      1  S   UNL     1      -9.875  -9.032  14.783  0.00  0.00    -0.095 S 
ATOM     23  C   UNL     1      -8.507  -9.739  15.532  0.00  0.00    +0.038 A 
ATOM     26  C   UNL     1      -8.238  -9.172  16.758  0.00  0.00    +0.017 A 
ATOM     29  C   UNL     1      -9.168  -8.143  17.087  0.00  0.00    +0.008 A 
ATOM     30  C   UNL     1     -10.111  -7.964  16.100  0.00  0.00    +0.046 A 
ENDBRANCH  20  23
ENDBRANCH  11  18
BRANCH  12  17
ATOM     17  C   UNL     1      -2.173 -10.951  15.981  0.00  0.00    +0.123 C 
BRANCH  17   7
ATOM      5  O   UNL     1      -4.480  -9.473  16.841  0.00  0.00    -0.270 OA
ATOM      7  N   UNL     1      -3.303 -11.467  16.690  0.00  0.00    -0.310 N 
ATOM     22  C   UNL     1      -4.385 -10.676  17.070  0.00  0.00    +0.244 C 
ATOM     35  H   UNL     1      -3.261 -12.442  16.967  0.00  0.00    +0.149 HD
BRANCH  22  24
ATOM     24  C   UNL     1      -5.469 -11.358  17.824  0.00  0.00    +0.037 A 
ATOM     27  C   UNL     1      -6.012 -12.549  17.343  0.00  0.00    +0.013 A 
ATOM     28  C   UNL     1      -5.943 -10.805  19.014  0.00  0.00    +0.013 A 
ATOM     31  C   UNL     1      -7.029 -13.188  18.051  0.00  0.00    +0.013 A 
ATOM     32  C   UNL     1      -6.961 -11.445  19.722  0.00  0.00    +0.013 A 
ATOM     33  C   UNL     1      -7.504 -12.635  19.241  0.00  0.00    +0.055 A 
BRANCH  33  34
ATOM      2  F   UNL     1      -9.070 -14.421  19.350  0.00  0.00    -0.166 F 
ATOM      3  F   UNL     1      -8.208 -13.758  21.233  0.00  0.00    -0.166 F 
ATOM      4  F   UNL     1      -9.682 -12.527  20.225  0.00  0.00    -0.166 F 
ATOM     34  C   UNL     1      -8.593 -13.319  19.998  0.00  0.00    +0.417 C 
ENDBRANCH  33  34
ENDBRANCH  22  24
ENDBRANCH  17   7
ENDBRANCH  12  17
TORSDOF 6
ENDMDL
MODEL 10
REMARK VINA RESULT:      -6.1     24.158     27.621
REMARK  Name = 40777064
REMARK  7 active torsions:
REMARK  status: ('A' for Active; 'I' for Inactive)
REMARK    1  A    between atoms: N_7  and  C_17
REMARK    2  A    between atoms: C_11  and  C_18
REMARK    3  A    between atoms: C_12  and  C_17
REMARK    4  A    between atoms: C_20  and  C_23
REMARK    5  A    between atoms: C_21  and  C_25
REMARK    6  A    between atoms: C_22  and  C_24
REMARK    7  A    between atoms: C_33  and  C_34
REMARK                            x       y       z     vdW  Elec       q    Type
REMARK                         _______ _______ _______ _____ _____    ______ ____
ROOT
ATOM      6  N   UNL     1      -5.120 -12.129  18.678  0.00  0.00    -0.297 NA
ATOM     10  C   UNL     1      -7.183 -11.016  17.544  0.00  0.00    +0.002 C 
ATOM     11  C   UNL     1      -7.078 -12.510  17.132  0.00  0.00    +0.055 C 
ATOM     12  C   UNL     1      -4.715 -10.858  18.022  0.00  0.00    +0.074 C 
ATOM     13  C   UNL     1      -5.873 -10.290  17.173  0.00  0.00    +0.024 C 
ATOM     14  C   UNL     1      -7.298 -10.985  19.083  0.00  0.00    +0.019 C 
ATOM     15  C   UNL     1      -5.724 -13.046  17.679  0.00  0.00    +0.094 C 
ATOM     16  C   UNL     1      -6.150 -11.808  19.694  0.00  0.00    +0.085 C 
ENDROOT
BRANCH  11  18
ATOM      8  N   UNL     1      -8.570 -13.000  15.257  0.00  0.00    -0.237 NA
ATOM      9  N   UNL     1      -7.737 -13.515  13.055  0.00  0.00    -0.232 NA
ATOM     18  C   UNL     1      -7.292 -12.869  15.669  0.00  0.00    +0.050 A 
ATOM     19  C   UNL     1      -6.199 -13.042  14.845  0.00  0.00    +0.052 A 
ATOM     20  C   UNL     1      -6.485 -13.367  13.535  0.00  0.00    +0.081 A 
ATOM     21  C   UNL     1      -8.718 -13.319  13.957  0.00  0.00    +0.127 A 
ATOM     25  C   UNL     1     -10.117 -13.472  13.464  0.00  0.00    +0.088 C 
BRANCH  20  23
ATOM      1  S   UNL     1      -3.909 -14.121  13.108  0.00  0.00    -0.095 S 
ATOM     23  C   UNL     1      -5.440 -13.579  12.568  0.00  0.00    +0.038 A 
ATOM     26  C   UNL     1      -5.475 -13.406  11.202  0.00  0.00    +0.017 A 
ATOM     29  C   UNL     1      -4.228 -13.723  10.591  0.00  0.00    +0.008 A 
ATOM     30  C   UNL     1      -3.288 -14.126  11.513  0.00  0.00    +0.046 A 
ENDBRANCH  20  23
ENDBRANCH  11  18
BRANCH  12  17
ATOM     17  C   UNL     1      -3.429 -11.007  17.205  0.00  0.00    +0.123 C 
BRANCH  17   7
ATOM      5  O   UNL     1      -1.488 -11.015  15.089  0.00  0.00    -0.270 OA
ATOM      7  N   UNL     1      -3.680 -10.789  15.814  0.00  0.00    -0.310 N 
ATOM     22  C   UNL     1      -2.675 -10.810  14.850  0.00  0.00    +0.244 C 
ATOM     35  H   UNL     1      -4.632 -10.551  15.555  0.00  0.00    +0.149 HD
BRANCH  22  24
ATOM     24  C   UNL     1      -3.096 -10.539  13.451  0.00  0.00    +0.037 A 
ATOM     27  C   UNL     1      -2.171 -10.636  12.411  0.00  0.00    +0.013 A 
ATOM     28  C   UNL     1      -4.418 -10.188  13.177  0.00  0.00    +0.013 A 
ATOM     31  C   UNL     1      -2.566 -10.380  11.099  0.00  0.00    +0.013 A 
ATOM     32  C   UNL     1      -4.814  -9.932  11.864  0.00  0.00    +0.013 A 
ATOM     33  C   UNL     1      -3.889 -10.028  10.826  0.00  0.00    +0.055 A 
BRANCH  33  34
ATOM      2  F   UNL     1      -3.706  -8.650   8.896  0.00  0.00    -0.166 F 
ATOM      3  F   UNL     1      -4.028 -10.774   8.557  0.00  0.00    -0.166 F 
ATOM      4  F   UNL     1      -5.653  -9.537   9.287  0.00  0.00    -0.166 F 
ATOM     34  C   UNL     1      -4.311  -9.755   9.421  0.00  0.00    +0.417 C 
ENDBRANCH  33  34
ENDBRANCH  22  24
ENDBRANCH  17   7
ENDBRANCH  12  17
TORSDOF 6
ENDMDL
