MODEL 1
REMARK VINA RESULT:      -6.2      0.000      0.000
REMARK  Name = 51137087
REMARK  3 active torsions:
REMARK  status: ('A' for Active; 'I' for Inactive)
REMARK    1  A    between atoms: N_3  and  C_9
REMARK    2  A    between atoms: C_5  and  C_10
REMARK    3  A    between atoms: C_9  and  C_11
REMARK                            x       y       z     vdW  Elec       q    Type
REMARK                         _______ _______ _______ _____ _____    ______ ____
ROOT
ATOM      3  N   UNL     1      11.418  10.229  22.154  0.00  0.00    -0.297 NA
ATOM      5  C   UNL     1      13.045   9.620  20.579  0.00  0.00    +0.060 C 
ATOM      6  C   UNL     1      11.703   8.962  20.214  0.00  0.00    +0.027 C 
ATOM      7  C   UNL     1      12.870  10.079  22.033  0.00  0.00    +0.095 C 
ATOM      8  C   UNL     1      10.861   9.058  21.479  0.00  0.00    +0.085 C 
ENDROOT
BRANCH   5  10
ATOM      1  S   UNL     1      14.257   7.593  19.113  0.00  0.00    -0.072 S 
ATOM      4  N   UNL     1      15.338   8.791  21.124  0.00  0.00    -0.244 NA
ATOM     10  C   UNL     1      14.259   8.741  20.380  0.00  0.00    +0.084 A 
ATOM     12  C   UNL     1      15.842   7.095  19.574  0.00  0.00    +0.039 A 
ATOM     13  C   UNL     1      16.257   7.854  20.674  0.00  0.00    +0.078 A 
ATOM     15  C   UNL     1      16.660   6.107  19.004  0.00  0.00    +0.017 A 
ATOM     16  C   UNL     1      17.536   7.610  21.220  0.00  0.00    +0.029 A 
ATOM     19  C   UNL     1      17.921   5.887  19.564  0.00  0.00    +0.001 A 
ATOM     20  C   UNL     1      18.355   6.628  20.658  0.00  0.00    +0.002 A 
ENDBRANCH   5  10
BRANCH   3   9
ATOM      9  C   UNL     1      10.986  10.329  23.540  0.00  0.00    +0.126 C 
BRANCH   9  11
ATOM      2  S   UNL     1      10.751  13.005  22.820  0.00  0.00    -0.100 S 
ATOM     11  C   UNL     1      10.870  11.761  23.991  0.00  0.00    +0.004 A 
ATOM     14  C   UNL     1      10.843  12.256  25.276  0.00  0.00    +0.012 A 
ATOM     17  C   UNL     1      10.723  13.675  25.300  0.00  0.00    +0.008 A 
ATOM     18  C   UNL     1      10.664  14.211  24.032  0.00  0.00    +0.045 A 
ENDBRANCH   9  11
ENDBRANCH   3   9
TORSDOF 3
ENDMDL
MODEL 2
REMARK VINA RESULT:      -6.2     27.334     28.821
REMARK  Name = 51137087
REMARK  3 active torsions:
REMARK  status: ('A' for Active; 'I' for Inactive)
REMARK    1  A    between atoms: N_3  and  C_9
REMARK    2  A    between atoms: C_5  and  C_10
REMARK    3  A    between atoms: C_9  and  C_11
REMARK                            x       y       z     vdW  Elec       q    Type
REMARK                         _______ _______ _______ _____ _____    ______ ____
ROOT
ATOM      3  N   UNL     1      -2.660 -11.400  12.435  0.00  0.00    -0.297 NA
ATOM      5  C   UNL     1      -2.950 -10.616  14.626  0.00  0.00    +0.060 C 
ATOM      6  C   UNL     1      -1.842 -11.684  14.604  0.00  0.00    +0.027 C 
ATOM      7  C   UNL     1      -3.680 -10.785  13.288  0.00  0.00    +0.095 C 
ATOM      8  C   UNL     1      -2.024 -12.412  13.278  0.00  0.00    +0.085 C 
ENDROOT
BRANCH   5  10
ATOM      1  S   UNL     1      -5.448 -10.025  15.691  0.00  0.00    -0.072 S 
ATOM      4  N   UNL     1      -3.561 -11.229  16.970  0.00  0.00    -0.244 NA
ATOM     10  C   UNL     1      -3.877 -10.687  15.818  0.00  0.00    +0.084 A 
ATOM     12  C   UNL     1      -5.766 -10.492  17.320  0.00  0.00    +0.039 A 
ATOM     13  C   UNL     1      -4.634 -11.127  17.843  0.00  0.00    +0.078 A 
ATOM     15  C   UNL     1      -6.932 -10.312  18.080  0.00  0.00    +0.017 A 
ATOM     16  C   UNL     1      -4.674 -11.595  19.174  0.00  0.00    +0.029 A 
ATOM     19  C   UNL     1      -6.945 -10.785  19.396  0.00  0.00    +0.001 A 
ATOM     20  C   UNL     1      -5.832 -11.419  19.937  0.00  0.00    +0.002 A 
ENDBRANCH   5  10
BRANCH   3   9
ATOM      9  C   UNL     1      -3.223 -11.965  11.218  0.00  0.00    +0.126 C 
BRANCH   9  11
ATOM      2  S   UNL     1      -4.861 -11.288   9.075  0.00  0.00    -0.100 S 
ATOM     11  C   UNL     1      -3.699 -10.897  10.270  0.00  0.00    +0.004 A 
ATOM     14  C   UNL     1      -3.322  -9.573  10.211  0.00  0.00    +0.012 A 
ATOM     17  C   UNL     1      -3.997  -8.871   9.171  0.00  0.00    +0.008 A 
ATOM     18  C   UNL     1      -4.862  -9.685   8.474  0.00  0.00    +0.045 A 
ENDBRANCH   9  11
ENDBRANCH   3   9
TORSDOF 3
ENDMDL
MODEL 3
REMARK VINA RESULT:      -6.1     16.752     20.058
REMARK  Name = 51137087
REMARK  3 active torsions:
REMARK  status: ('A' for Active; 'I' for Inactive)
REMARK    1  A    between atoms: N_3  and  C_9
REMARK    2  A    between atoms: C_5  and  C_10
REMARK    3  A    between atoms: C_9  and  C_11
REMARK                            x       y       z     vdW  Elec       q    Type
REMARK                         _______ _______ _______ _____ _____    ______ ____
ROOT
ATOM      3  N   UNL     1      12.026   4.255   1.704  0.00  0.00    -0.297 NA
ATOM      5  C   UNL     1      10.516   5.304   3.159  0.00  0.00    +0.060 C 
ATOM      6  C   UNL     1      11.531   6.337   2.638  0.00  0.00    +0.027 C 
ATOM      7  C   UNL     1      11.143   3.943   2.830  0.00  0.00    +0.095 C 
ATOM      8  C   UNL     1      12.679   5.511   2.075  0.00  0.00    +0.085 C 
ENDROOT
BRANCH   5  10
ATOM      1  S   UNL     1       9.596   6.960   5.193  0.00  0.00    -0.072 S 
ATOM      4  N   UNL     1      10.240   4.483   5.503  0.00  0.00    -0.244 NA
ATOM     10  C   UNL     1      10.154   5.449   4.619  0.00  0.00    +0.084 A 
ATOM     12  C   UNL     1       9.443   6.293   6.775  0.00  0.00    +0.039 A 
ATOM     13  C   UNL     1       9.834   4.950   6.744  0.00  0.00    +0.078 A 
ATOM     15  C   UNL     1       9.007   6.911   7.958  0.00  0.00    +0.017 A 
ATOM     16  C   UNL     1       9.787   4.204   7.942  0.00  0.00    +0.029 A 
ATOM     19  C   UNL     1       8.971   6.149   9.129  0.00  0.00    +0.001 A 
ATOM     20  C   UNL     1       9.354   4.813   9.123  0.00  0.00    +0.002 A 
ENDBRANCH   5  10
BRANCH   3   9
ATOM      9  C   UNL     1      12.982   3.190   1.439  0.00  0.00    +0.126 C 
BRANCH   9  11
ATOM      2  S   UNL     1      13.671   3.951  -1.146  0.00  0.00    -0.100 S 
ATOM     11  C   UNL     1      14.064   3.630   0.489  0.00  0.00    +0.004 A 
ATOM     14  C   UNL     1      15.403   3.828   0.748  0.00  0.00    +0.012 A 
ATOM     17  C   UNL     1      16.115   4.248  -0.413  0.00  0.00    +0.008 A 
ATOM     18  C   UNL     1      15.293   4.355  -1.514  0.00  0.00    +0.045 A 
ENDBRANCH   9  11
ENDBRANCH   3   9
TORSDOF 3
ENDMDL
MODEL 4
REMARK VINA RESULT:      -5.9      3.496      5.604
REMARK  Name = 51137087
REMARK  3 active torsions:
REMARK  status: ('A' for Active; 'I' for Inactive)
REMARK    1  A    between atoms: N_3  and  C_9
REMARK    2  A    between atoms: C_5  and  C_10
REMARK    3  A    between atoms: C_9  and  C_11
REMARK                            x       y       z     vdW  Elec       q    Type
REMARK                         _______ _______ _______ _____ _____    ______ ____
ROOT
ATOM      3  N   UNL     1      15.478   7.795  21.006  0.00  0.00    -0.297 NA
ATOM      5  C   UNL     1      17.680   7.241  20.420  0.00  0.00    +0.060 C 
ATOM      6  C   UNL     1      16.699   6.361  19.626  0.00  0.00    +0.027 C 
ATOM      7  C   UNL     1      16.836   7.839  21.553  0.00  0.00    +0.095 C 
ATOM      8  C   UNL     1      15.373   6.485  20.364  0.00  0.00    +0.085 C 
ENDROOT
BRANCH   5  10
ATOM      1  S   UNL     1      19.735   7.137  22.289  0.00  0.00    -0.072 S 
ATOM      4  N   UNL     1      19.420   5.449  20.366  0.00  0.00    -0.244 NA
ATOM     10  C   UNL     1      18.915   6.526  20.918  0.00  0.00    +0.084 A 
ATOM     12  C   UNL     1      20.884   5.858  22.160  0.00  0.00    +0.039 A 
ATOM     13  C   UNL     1      20.549   5.052  21.067  0.00  0.00    +0.078 A 
ATOM     15  C   UNL     1      21.999   5.586  22.968  0.00  0.00    +0.017 A 
ATOM     16  C   UNL     1      21.363   3.935  20.775  0.00  0.00    +0.029 A 
ATOM     19  C   UNL     1      22.788   4.475  22.656  0.00  0.00    +0.001 A 
ATOM     20  C   UNL     1      22.475   3.659  21.574  0.00  0.00    +0.002 A 
ENDBRANCH   5  10
BRANCH   3   9
ATOM      9  C   UNL     1      14.462   7.995  22.028  0.00  0.00    +0.126 C 
BRANCH   9  11
ATOM      2  S   UNL     1      12.818   9.184  20.126  0.00  0.00    -0.100 S 
ATOM     11  C   UNL     1      13.084   8.112  21.435  0.00  0.00    +0.004 A 
ATOM     14  C   UNL     1      11.932   7.450  21.804  0.00  0.00    +0.012 A 
ATOM     17  C   UNL     1      10.818   7.829  21.000  0.00  0.00    +0.008 A 
ATOM     18  C   UNL     1      11.160   8.766  20.050  0.00  0.00    +0.045 A 
ENDBRANCH   9  11
ENDBRANCH   3   9
TORSDOF 3
ENDMDL
MODEL 5
REMARK VINA RESULT:      -5.8     27.299     29.918
REMARK  Name = 51137087
REMARK  3 active torsions:
REMARK  status: ('A' for Active; 'I' for Inactive)
REMARK    1  A    between atoms: N_3  and  C_9
REMARK    2  A    between atoms: C_5  and  C_10
REMARK    3  A    between atoms: C_9  and  C_11
REMARK                            x       y       z     vdW  Elec       q    Type
REMARK                         _______ _______ _______ _____ _____    ______ ____
ROOT
ATOM      3  N   UNL     1      -4.743 -11.478  17.360  0.00  0.00    -0.297 NA
ATOM      5  C   UNL     1      -6.462 -10.529  18.642  0.00  0.00    +0.060 C 
ATOM      6  C   UNL     1      -5.938 -11.797  19.340  0.00  0.00    +0.027 C 
ATOM      7  C   UNL     1      -5.924 -10.624  17.208  0.00  0.00    +0.095 C 
ATOM      8  C   UNL     1      -5.164 -12.547  18.264  0.00  0.00    +0.085 C 
ENDROOT
BRANCH   5  10
ATOM      1  S   UNL     1      -8.739  -9.453  17.464  0.00  0.00    -0.072 S 
ATOM      4  N   UNL     1      -8.731 -10.830  19.644  0.00  0.00    -0.244 NA
ATOM     10  C   UNL     1      -7.962 -10.347  18.698  0.00  0.00    +0.084 A 
ATOM     12  C   UNL     1     -10.255  -9.720  18.240  0.00  0.00    +0.039 A 
ATOM     13  C   UNL     1     -10.050 -10.481  19.395  0.00  0.00    +0.078 A 
ATOM     15  C   UNL     1     -11.534  -9.289  17.853  0.00  0.00    +0.017 A 
ATOM     16  C   UNL     1     -11.167 -10.819  20.190  0.00  0.00    +0.029 A 
ATOM     19  C   UNL     1     -12.622  -9.637  18.658  0.00  0.00    +0.001 A 
ATOM     20  C   UNL     1     -12.443 -10.393  19.811  0.00  0.00    +0.002 A 
ENDBRANCH   5  10
BRANCH   3   9
ATOM      9  C   UNL     1      -4.260 -11.987  16.085  0.00  0.00    +0.126 C 
BRANCH   9  11
ATOM      2  S   UNL     1      -2.966 -10.821  13.917  0.00  0.00    -0.100 S 
ATOM     11  C   UNL     1      -3.075 -11.208  15.581  0.00  0.00    +0.004 A 
ATOM     14  C   UNL     1      -1.998 -10.729  16.295  0.00  0.00    +0.012 A 
ATOM     17  C   UNL     1      -1.072 -10.035  15.464  0.00  0.00    +0.008 A 
ATOM     18  C   UNL     1      -1.476 -10.011  14.147  0.00  0.00    +0.045 A 
ENDBRANCH   9  11
ENDBRANCH   3   9
TORSDOF 3
ENDMDL
MODEL 6
REMARK VINA RESULT:      -5.7     27.283     29.466
REMARK  Name = 51137087
REMARK  3 active torsions:
REMARK  status: ('A' for Active; 'I' for Inactive)
REMARK    1  A    between atoms: N_3  and  C_9
REMARK    2  A    between atoms: C_5  and  C_10
REMARK    3  A    between atoms: C_9  and  C_11
REMARK                            x       y       z     vdW  Elec       q    Type
REMARK                         _______ _______ _______ _____ _____    ______ ____
ROOT
ATOM      3  N   UNL     1      -4.048 -10.743  14.701  0.00  0.00    -0.297 NA
ATOM      5  C   UNL     1      -5.340  -9.803  16.418  0.00  0.00    +0.060 C 
ATOM      6  C   UNL     1      -4.258 -10.713  17.027  0.00  0.00    +0.027 C 
ATOM      7  C   UNL     1      -5.385 -10.192  14.934  0.00  0.00    +0.095 C 
ATOM      8  C   UNL     1      -3.776 -11.579  15.871  0.00  0.00    +0.085 C 
ENDROOT
BRANCH   5  10
ATOM      1  S   UNL     1      -6.896 -10.934  18.424  0.00  0.00    -0.072 S 
ATOM      4  N   UNL     1      -7.745  -9.198  16.718  0.00  0.00    -0.244 NA
ATOM     10  C   UNL     1      -6.691  -9.885  17.090  0.00  0.00    +0.084 A 
ATOM     12  C   UNL     1      -8.545 -10.447  18.543  0.00  0.00    +0.039 A 
ATOM     13  C   UNL     1      -8.817  -9.508  17.542  0.00  0.00    +0.078 A 
ATOM     15  C   UNL     1      -9.527 -10.864  19.456  0.00  0.00    +0.017 A 
ATOM     16  C   UNL     1     -10.120  -8.970  17.455  0.00  0.00    +0.029 A 
ATOM     19  C   UNL     1     -10.808 -10.316  19.346  0.00  0.00    +0.001 A 
ATOM     20  C   UNL     1     -11.102  -9.381  18.360  0.00  0.00    +0.002 A 
ENDBRANCH   5  10
BRANCH   3   9
ATOM      9  C   UNL     1      -3.965 -11.489  13.455  0.00  0.00    +0.126 C 
BRANCH   9  11
ATOM      2  S   UNL     1      -4.476 -10.076  11.114  0.00  0.00    -0.100 S 
ATOM     11  C   UNL     1      -3.417 -10.649  12.332  0.00  0.00    +0.004 A 
ATOM     14  C   UNL     1      -2.118 -10.244  12.120  0.00  0.00    +0.012 A 
ATOM     17  C   UNL     1      -1.990  -9.453  10.942  0.00  0.00    +0.008 A 
ATOM     18  C   UNL     1      -3.197  -9.284  10.298  0.00  0.00    +0.045 A 
ENDBRANCH   9  11
ENDBRANCH   3   9
TORSDOF 3
ENDMDL
MODEL 7
REMARK VINA RESULT:      -5.6      3.066      8.640
REMARK  Name = 51137087
REMARK  3 active torsions:
REMARK  status: ('A' for Active; 'I' for Inactive)
REMARK    1  A    between atoms: N_3  and  C_9
REMARK    2  A    between atoms: C_5  and  C_10
REMARK    3  A    between atoms: C_9  and  C_11
REMARK                            x       y       z     vdW  Elec       q    Type
REMARK                         _______ _______ _______ _____ _____    ______ ____
ROOT
ATOM      3  N   UNL     1      18.782   7.382  21.357  0.00  0.00    -0.297 NA
ATOM      5  C   UNL     1      16.647   7.991  20.602  0.00  0.00    +0.060 C 
ATOM      6  C   UNL     1      17.422   9.251  21.026  0.00  0.00    +0.027 C 
ATOM      7  C   UNL     1      17.434   6.826  21.214  0.00  0.00    +0.095 C 
ATOM      8  C   UNL     1      18.578   8.735  21.873  0.00  0.00    +0.085 C 
ENDROOT
BRANCH   5  10
ATOM      1  S   UNL     1      14.525   9.352  21.772  0.00  0.00    -0.072 S 
ATOM      4  N   UNL     1      14.366   6.984  20.765  0.00  0.00    -0.244 NA
ATOM     10  C   UNL     1      15.186   7.984  20.988  0.00  0.00    +0.084 A 
ATOM     12  C   UNL     1      12.992   8.565  21.834  0.00  0.00    +0.039 A 
ATOM     13  C   UNL     1      13.104   7.302  21.243  0.00  0.00    +0.078 A 
ATOM     15  C   UNL     1      11.779   9.031  22.365  0.00  0.00    +0.017 A 
ATOM     16  C   UNL     1      11.958   6.479  21.184  0.00  0.00    +0.029 A 
ATOM     19  C   UNL     1      10.661   8.195  22.294  0.00  0.00    +0.001 A 
ATOM     20  C   UNL     1      10.747   6.936  21.710  0.00  0.00    +0.002 A 
ENDBRANCH   5  10
BRANCH   3   9
ATOM      9  C   UNL     1      19.624   6.577  22.228  0.00  0.00    +0.126 C 
BRANCH   9  11
ATOM      2  S   UNL     1      21.134   4.773  20.744  0.00  0.00    -0.100 S 
ATOM     11  C   UNL     1      20.947   6.252  21.588  0.00  0.00    +0.004 A 
ATOM     14  C   UNL     1      22.101   7.004  21.573  0.00  0.00    +0.012 A 
ATOM     17  C   UNL     1      23.152   6.359  20.860  0.00  0.00    +0.008 A 
ATOM     18  C   UNL     1      22.761   5.137  20.357  0.00  0.00    +0.045 A 
ENDBRANCH   9  11
ENDBRANCH   3   9
TORSDOF 3
ENDMDL
MODEL 8
REMARK VINA RESULT:      -5.5     27.633     28.953
REMARK  Name = 51137087
REMARK  3 active torsions:
REMARK  status: ('A' for Active; 'I' for Inactive)
REMARK    1  A    between atoms: N_3  and  C_9
REMARK    2  A    between atoms: C_5  and  C_10
REMARK    3  A    between atoms: C_9  and  C_11
REMARK                            x       y       z     vdW  Elec       q    Type
REMARK                         _______ _______ _______ _____ _____    ______ ____
ROOT
ATOM      3  N   UNL     1      -5.795 -11.022  17.348  0.00  0.00    -0.297 NA
ATOM      5  C   UNL     1      -4.785 -11.411  15.268  0.00  0.00    +0.060 C 
ATOM      6  C   UNL     1      -3.706 -11.054  16.306  0.00  0.00    +0.027 C 
ATOM      7  C   UNL     1      -6.107 -10.981  15.917  0.00  0.00    +0.095 C 
ATOM      8  C   UNL     1      -4.468 -10.420  17.462  0.00  0.00    +0.085 C 
ENDROOT
BRANCH   5  10
ATOM      1  S   UNL     1      -3.066 -11.003  13.122  0.00  0.00    -0.072 S 
ATOM      4  N   UNL     1      -5.484 -10.119  13.247  0.00  0.00    -0.244 NA
ATOM     10  C   UNL     1      -4.576 -10.804  13.899  0.00  0.00    +0.084 A 
ATOM     12  C   UNL     1      -3.649 -10.096  11.777  0.00  0.00    +0.039 A 
ATOM     13  C   UNL     1      -4.969  -9.706  12.027  0.00  0.00    +0.078 A 
ATOM     15  C   UNL     1      -2.987  -9.756  10.586  0.00  0.00    +0.017 A 
ATOM     16  C   UNL     1      -5.647  -8.947  11.048  0.00  0.00    +0.029 A 
ATOM     19  C   UNL     1      -3.682  -9.003   9.635  0.00  0.00    +0.001 A 
ATOM     20  C   UNL     1      -4.995  -8.604   9.861  0.00  0.00    +0.002 A 
ENDBRANCH   5  10
BRANCH   3   9
ATOM      9  C   UNL     1      -6.791 -10.329  18.152  0.00  0.00    +0.126 C 
BRANCH   9  11
ATOM      2  S   UNL     1      -9.343 -10.888  19.106  0.00  0.00    -0.100 S 
ATOM     11  C   UNL     1      -7.693 -11.289  18.880  0.00  0.00    +0.004 A 
ATOM     14  C   UNL     1      -7.379 -12.515  19.425  0.00  0.00    +0.012 A 
ATOM     17  C   UNL     1      -8.508 -13.133  20.036  0.00  0.00    +0.008 A 
ATOM     18  C   UNL     1      -9.642 -12.355  19.936  0.00  0.00    +0.045 A 
ENDBRANCH   9  11
ENDBRANCH   3   9
TORSDOF 3
ENDMDL
MODEL 9
REMARK VINA RESULT:      -5.4      5.376     11.063
REMARK  Name = 51137087
REMARK  3 active torsions:
REMARK  status: ('A' for Active; 'I' for Inactive)
REMARK    1  A    between atoms: N_3  and  C_9
REMARK    2  A    between atoms: C_5  and  C_10
REMARK    3  A    between atoms: C_9  and  C_11
REMARK                            x       y       z     vdW  Elec       q    Type
REMARK                         _______ _______ _______ _____ _____    ______ ____
ROOT
ATOM      3  N   UNL     1      22.130   4.683  21.992  0.00  0.00    -0.297 NA
ATOM      5  C   UNL     1      20.817   6.360  21.012  0.00  0.00    +0.060 C 
ATOM      6  C   UNL     1      21.392   6.870  22.345  0.00  0.00    +0.027 C 
ATOM      7  C   UNL     1      21.009   4.839  21.062  0.00  0.00    +0.095 C 
ATOM      8  C   UNL     1      21.848   5.618  23.081  0.00  0.00    +0.085 C 
ENDROOT
BRANCH   5  10
ATOM      1  S   UNL     1      18.773   8.189  21.462  0.00  0.00    -0.072 S 
ATOM      4  N   UNL     1      18.557   6.091  19.979  0.00  0.00    -0.244 NA
ATOM     10  C   UNL     1      19.386   6.765  20.741  0.00  0.00    +0.084 A 
ATOM     12  C   UNL     1      17.251   7.908  20.701  0.00  0.00    +0.039 A 
ATOM     13  C   UNL     1      17.329   6.734  19.945  0.00  0.00    +0.078 A 
ATOM     15  C   UNL     1      16.075   8.671  20.767  0.00  0.00    +0.017 A 
ATOM     16  C   UNL     1      16.186   6.311  19.232  0.00  0.00    +0.029 A 
ATOM     19  C   UNL     1      14.958   8.230  20.052  0.00  0.00    +0.001 A 
ATOM     20  C   UNL     1      15.011   7.066  19.293  0.00  0.00    +0.002 A 
ENDBRANCH   5  10
BRANCH   3   9
ATOM      9  C   UNL     1      22.274   3.312  22.460  0.00  0.00    +0.126 C 
BRANCH   9  11
ATOM      2  S   UNL     1      24.633   3.606  21.016  0.00  0.00    -0.100 S 
ATOM     11  C   UNL     1      23.570   2.697  22.005  0.00  0.00    +0.004 A 
ATOM     14  C   UNL     1      24.065   1.440  22.276  0.00  0.00    +0.012 A 
ATOM     17  C   UNL     1      25.332   1.221  21.664  0.00  0.00    +0.008 A 
ATOM     18  C   UNL     1      25.758   2.318  20.948  0.00  0.00    +0.045 A 
ENDBRANCH   9  11
ENDBRANCH   3   9
TORSDOF 3
ENDMDL
MODEL 10
REMARK VINA RESULT:      -5.3      4.764      7.981
REMARK  Name = 51137087
REMARK  3 active torsions:
REMARK  status: ('A' for Active; 'I' for Inactive)
REMARK    1  A    between atoms: N_3  and  C_9
REMARK    2  A    between atoms: C_5  and  C_10
REMARK    3  A    between atoms: C_9  and  C_11
REMARK                            x       y       z     vdW  Elec       q    Type
REMARK                         _______ _______ _______ _____ _____    ______ ____
ROOT
ATOM      3  N   UNL     1      18.564   7.730  21.834  0.00  0.00    -0.297 NA
ATOM      5  C   UNL     1      20.241   6.177  22.359  0.00  0.00    +0.060 C 
ATOM      6  C   UNL     1      20.617   7.555  22.932  0.00  0.00    +0.027 C 
ATOM      7  C   UNL     1      19.126   6.469  21.346  0.00  0.00    +0.095 C 
ATOM      8  C   UNL     1      19.723   8.544  22.196  0.00  0.00    +0.085 C 
ENDROOT
BRANCH   5  10
ATOM      1  S   UNL     1      22.502   6.210  20.743  0.00  0.00    -0.072 S 
ATOM      4  N   UNL     1      21.610   4.124  21.969  0.00  0.00    -0.244 NA
ATOM     10  C   UNL     1      21.393   5.401  21.762  0.00  0.00    +0.084 A 
ATOM     12  C   UNL     1      23.375   4.737  20.540  0.00  0.00    +0.039 A 
ATOM     13  C   UNL     1      22.745   3.727  21.276  0.00  0.00    +0.078 A 
ATOM     15  C   UNL     1      24.534   4.492  19.786  0.00  0.00    +0.017 A 
ATOM     16  C   UNL     1      23.296   2.428  21.253  0.00  0.00    +0.029 A 
ATOM     19  C   UNL     1      25.058   3.196  19.781  0.00  0.00    +0.001 A 
ATOM     20  C   UNL     1      24.449   2.177  20.505  0.00  0.00    +0.002 A 
ENDBRANCH   5  10
BRANCH   3   9
ATOM      9  C   UNL     1      17.717   8.379  20.845  0.00  0.00    +0.126 C 
BRANCH   9  11
ATOM      2  S   UNL     1      15.653   6.833  19.801  0.00  0.00    -0.100 S 
ATOM     11  C   UNL     1      16.283   7.933  20.953  0.00  0.00    +0.004 A 
ATOM     14  C   UNL     1      15.342   8.294  21.892  0.00  0.00    +0.012 A 
ATOM     17  C   UNL     1      14.087   7.659  21.663  0.00  0.00    +0.008 A 
ATOM     18  C   UNL     1      14.117   6.838  20.557  0.00  0.00    +0.045 A 
ENDBRANCH   9  11
ENDBRANCH   3   9
TORSDOF 3
ENDMDL
