MODEL 1
REMARK VINA RESULT:      -7.6      0.000      0.000
REMARK  Name = 7682269
REMARK  5 active torsions:
REMARK  status: ('A' for Active; 'I' for Inactive)
REMARK    1  A    between atoms: N_4  and  C_14
REMARK    2  A    between atoms: N_6  and  C_28
REMARK    3  A    between atoms: C_14  and  C_19
REMARK    4  A    between atoms: C_15  and  C_20
REMARK    5  A    between atoms: C_33  and  C_34
REMARK                            x       y       z     vdW  Elec       q    Type
REMARK                         _______ _______ _______ _____ _____    ______ ____
ROOT
ATOM      1  O   UNL     1     -10.308   9.568  19.248  0.00  0.00    -0.268 OA
ATOM      4  N   UNL     1     -14.161  11.304  21.892  0.00  0.00    -0.294 NA
ATOM      5  N   UNL     1     -12.577   9.482  19.821  0.00  0.00    -0.311 N 
ATOM      7  C   UNL     1     -14.152  11.462  19.395  0.00  0.00    +0.024 C 
ATOM      8  C   UNL     1     -15.005   9.432  20.463  0.00  0.00    +0.051 C 
ATOM      9  C   UNL     1     -15.224  10.390  19.295  0.00  0.00    +0.017 C 
ATOM     10  C   UNL     1     -14.263  12.208  20.740  0.00  0.00    +0.090 C 
ATOM     11  C   UNL     1     -15.135  10.208  21.796  0.00  0.00    +0.094 C 
ATOM     12  C   UNL     1     -12.785  10.800  19.205  0.00  0.00    +0.130 C 
ATOM     13  C   UNL     1     -13.643   8.739  20.367  0.00  0.00    +0.034 A 
ATOM     15  C   UNL     1     -13.432   7.469  20.798  0.00  0.00    +0.002 A 
ATOM     16  C   UNL     1     -11.271   8.969  19.728  0.00  0.00    +0.252 A 
ATOM     17  C   UNL     1     -12.097   6.908  20.721  0.00  0.00    +0.015 A 
ATOM     18  C   UNL     1     -11.062   7.594  20.236  0.00  0.00    +0.071 A 
ENDROOT
BRANCH  15  20
ATOM     20  C   UNL     1     -14.525   6.646  21.359  0.00  0.00    -0.016 A 
ATOM     22  C   UNL     1     -14.543   6.354  22.719  0.00  0.00    +0.010 A 
ATOM     23  C   UNL     1     -15.528   6.166  20.522  0.00  0.00    +0.010 A 
ATOM     26  C   UNL     1     -15.574   5.577  23.247  0.00  0.00    +0.024 A 
ATOM     27  C   UNL     1     -16.559   5.389  21.050  0.00  0.00    +0.024 A 
ATOM     28  C   UNL     1     -16.582   5.095  22.413  0.00  0.00    +0.033 A 
BRANCH  28   6
ATOM      3  O   UNL     1     -16.760   2.122  22.858  0.00  0.00    -0.276 OA
ATOM      6  N   UNL     1     -17.614   4.319  22.941  0.00  0.00    -0.286 N 
ATOM     33  C   UNL     1     -17.644   2.930  23.126  0.00  0.00    +0.214 C 
ATOM     34  C   UNL     1     -18.948   2.474  23.730  0.00  0.00    +0.109 C 
ATOM     35  H   UNL     1     -18.444   4.835  23.226  0.00  0.00    +0.155 HD
ENDBRANCH  28   6
ENDBRANCH  15  20
BRANCH   4  14
ATOM     14  C   UNL     1     -14.319  12.036  23.147  0.00  0.00    +0.158 C 
BRANCH  14  19
ATOM      2  O   UNL     1     -13.939  11.244  25.382  0.00  0.00    -0.458 OA
ATOM     19  C   UNL     1     -13.369  11.550  24.204  0.00  0.00    +0.120 A 
ATOM     21  C   UNL     1     -12.029  11.359  24.198  0.00  0.00    +0.054 A 
ATOM     24  C   UNL     1     -11.712  10.884  25.498  0.00  0.00    +0.020 A 
ATOM     25  C   UNL     1     -12.918  10.831  26.186  0.00  0.00    +0.135 A 
ATOM     29  C   UNL     1     -10.538  10.495  26.167  0.00  0.00    +0.011 A 
ATOM     30  C   UNL     1     -13.046  10.413  27.511  0.00  0.00    +0.047 A 
ATOM     31  C   UNL     1     -10.635  10.069  27.500  0.00  0.00    +0.001 A 
ATOM     32  C   UNL     1     -11.867  10.030  28.156  0.00  0.00    +0.004 A 
ENDBRANCH  14  19
ENDBRANCH   4  14
TORSDOF 4
ENDMDL
MODEL 2
REMARK VINA RESULT:      -7.5     25.888     29.208
REMARK  Name = 7682269
REMARK  5 active torsions:
REMARK  status: ('A' for Active; 'I' for Inactive)
REMARK    1  A    between atoms: N_4  and  C_14
REMARK    2  A    between atoms: N_6  and  C_28
REMARK    3  A    between atoms: C_14  and  C_19
REMARK    4  A    between atoms: C_15  and  C_20
REMARK    5  A    between atoms: C_33  and  C_34
REMARK                            x       y       z     vdW  Elec       q    Type
REMARK                         _______ _______ _______ _____ _____    ______ ____
ROOT
ATOM      1  O   UNL     1      14.866  12.199  25.101  0.00  0.00    -0.268 OA
ATOM      4  N   UNL     1      12.397   9.169  22.007  0.00  0.00    -0.294 NA
ATOM      5  N   UNL     1      13.629  11.874  23.140  0.00  0.00    -0.311 N 
ATOM      7  C   UNL     1      11.210  11.022  23.197  0.00  0.00    +0.024 C 
ATOM      8  C   UNL     1      12.293  11.478  21.050  0.00  0.00    +0.051 C 
ATOM      9  C   UNL     1      11.066  11.801  21.900  0.00  0.00    +0.017 C 
ATOM     10  C   UNL     1      11.290   9.509  22.907  0.00  0.00    +0.090 C 
ATOM     11  C   UNL     1      12.337   9.957  20.768  0.00  0.00    +0.094 C 
ATOM     12  C   UNL     1      12.443  11.541  23.941  0.00  0.00    +0.130 C 
ATOM     13  C   UNL     1      13.582  11.943  21.733  0.00  0.00    +0.034 A 
ATOM     15  C   UNL     1      14.661  12.391  21.041  0.00  0.00    +0.002 A 
ATOM     16  C   UNL     1      14.776  12.226  23.874  0.00  0.00    +0.252 A 
ATOM     17  C   UNL     1      15.863  12.759  21.764  0.00  0.00    +0.015 A 
ATOM     18  C   UNL     1      15.948  12.679  23.092  0.00  0.00    +0.071 A 
ENDROOT
BRANCH  15  20
ATOM     20  C   UNL     1      14.649  12.499  19.566  0.00  0.00    -0.016 A 
ATOM     22  C   UNL     1      14.047  13.597  18.959  0.00  0.00    +0.010 A 
ATOM     23  C   UNL     1      15.237  11.502  18.795  0.00  0.00    +0.010 A 
ATOM     26  C   UNL     1      14.035  13.699  17.568  0.00  0.00    +0.024 A 
ATOM     27  C   UNL     1      15.226  11.603  17.404  0.00  0.00    +0.024 A 
ATOM     28  C   UNL     1      14.625  12.702  16.790  0.00  0.00    +0.033 A 
BRANCH  28   6
ATOM      3  O   UNL     1      13.478  10.857  14.705  0.00  0.00    -0.276 OA
ATOM      6  N   UNL     1      14.614  12.804  15.399  0.00  0.00    -0.286 N 
ATOM     33  C   UNL     1      14.064  11.910  14.471  0.00  0.00    +0.214 C 
ATOM     34  C   UNL     1      14.260  12.385  13.053  0.00  0.00    +0.109 C 
ATOM     35  H   UNL     1      15.064  13.635  15.020  0.00  0.00    +0.155 HD
ENDBRANCH  28   6
ENDBRANCH  15  20
BRANCH   4  14
ATOM     14  C   UNL     1      12.414   7.737  21.715  0.00  0.00    +0.158 C 
BRANCH  14  19
ATOM      2  O   UNL     1      14.781   7.371  21.888  0.00  0.00    -0.458 OA
ATOM     19  C   UNL     1      13.707   7.308  21.083  0.00  0.00    +0.120 A 
ATOM     21  C   UNL     1      14.003   6.865  19.839  0.00  0.00    +0.054 A 
ATOM     24  C   UNL     1      15.401   6.619  19.850  0.00  0.00    +0.020 A 
ATOM     25  C   UNL     1      15.832   6.945  21.131  0.00  0.00    +0.135 A 
ATOM     29  C   UNL     1      16.349   6.159  18.920  0.00  0.00    +0.011 A 
ATOM     30  C   UNL     1      17.155   6.845  21.562  0.00  0.00    +0.047 A 
ATOM     31  C   UNL     1      17.687   6.047  19.323  0.00  0.00    +0.001 A 
ATOM     32  C   UNL     1      18.080   6.385  20.620  0.00  0.00    +0.004 A 
ENDBRANCH  14  19
ENDBRANCH   4  14
TORSDOF 4
ENDMDL
MODEL 3
REMARK VINA RESULT:      -7.2     27.246     30.690
REMARK  Name = 7682269
REMARK  5 active torsions:
REMARK  status: ('A' for Active; 'I' for Inactive)
REMARK    1  A    between atoms: N_4  and  C_14
REMARK    2  A    between atoms: N_6  and  C_28
REMARK    3  A    between atoms: C_14  and  C_19
REMARK    4  A    between atoms: C_15  and  C_20
REMARK    5  A    between atoms: C_33  and  C_34
REMARK                            x       y       z     vdW  Elec       q    Type
REMARK                         _______ _______ _______ _____ _____    ______ ____
ROOT
ATOM      1  O   UNL     1      12.891   9.767   6.349  0.00  0.00    -0.268 OA
ATOM      4  N   UNL     1       9.880   5.908   5.403  0.00  0.00    -0.294 NA
ATOM      5  N   UNL     1      10.737   8.857   6.236  0.00  0.00    -0.311 N 
ATOM      7  C   UNL     1      10.031   6.876   7.706  0.00  0.00    +0.024 C 
ATOM      8  C   UNL     1       8.446   7.834   6.107  0.00  0.00    +0.051 C 
ATOM      9  C   UNL     1       8.640   7.472   7.577  0.00  0.00    +0.017 C 
ATOM     10  C   UNL     1      10.161   5.623   6.815  0.00  0.00    +0.090 C 
ATOM     11  C   UNL     1       8.570   6.556   5.243  0.00  0.00    +0.094 C 
ATOM     12  C   UNL     1      11.058   7.955   7.351  0.00  0.00    +0.130 C 
ATOM     13  C   UNL     1       9.453   8.896   5.657  0.00  0.00    +0.034 A 
ATOM     15  C   UNL     1       9.159   9.840   4.726  0.00  0.00    +0.002 A 
ATOM     16  C   UNL     1      11.759   9.749   5.866  0.00  0.00    +0.252 A 
ATOM     17  C   UNL     1      10.190  10.775   4.316  0.00  0.00    +0.015 A 
ATOM     18  C   UNL     1      11.422  10.745   4.825  0.00  0.00    +0.071 A 
ENDROOT
BRANCH  15  20
ATOM     20  C   UNL     1       7.820   9.932   4.107  0.00  0.00    -0.016 A 
ATOM     22  C   UNL     1       7.596   9.363   2.857  0.00  0.00    +0.010 A 
ATOM     23  C   UNL     1       6.792  10.590   4.777  0.00  0.00    +0.010 A 
ATOM     26  C   UNL     1       6.332   9.450   2.273  0.00  0.00    +0.024 A 
ATOM     27  C   UNL     1       5.529  10.677   4.192  0.00  0.00    +0.024 A 
ATOM     28  C   UNL     1       5.298  10.107   2.941  0.00  0.00    +0.033 A 
BRANCH  28   6
ATOM      3  O   UNL     1       4.314  11.801   0.654  0.00  0.00    -0.276 OA
ATOM      6  N   UNL     1       4.034  10.194   2.357  0.00  0.00    -0.286 N 
ATOM     33  C   UNL     1       3.629  11.005   1.289  0.00  0.00    +0.214 C 
ATOM     34  C   UNL     1       2.172  10.803   0.954  0.00  0.00    +0.109 C 
ATOM     35  H   UNL     1       3.325   9.588   2.765  0.00  0.00    +0.155 HD
ENDBRANCH  28   6
ENDBRANCH  15  20
BRANCH   4  14
ATOM     14  C   UNL     1       9.965   4.693   4.597  0.00  0.00    +0.158 C 
BRANCH  14  19
ATOM      2  O   UNL     1      11.375   3.653   2.954  0.00  0.00    -0.458 OA
ATOM     19  C   UNL     1      10.982   4.817   3.499  0.00  0.00    +0.120 A 
ATOM     21  C   UNL     1      11.590   5.892   2.945  0.00  0.00    +0.054 A 
ATOM     24  C   UNL     1      12.454   5.364   1.949  0.00  0.00    +0.020 A 
ATOM     25  C   UNL     1      12.285   3.985   1.995  0.00  0.00    +0.135 A 
ATOM     29  C   UNL     1      13.359   5.899   1.017  0.00  0.00    +0.011 A 
ATOM     30  C   UNL     1      12.959   3.086   1.169  0.00  0.00    +0.047 A 
ATOM     31  C   UNL     1      14.052   5.021   0.173  0.00  0.00    +0.001 A 
ATOM     32  C   UNL     1      13.853   3.640   0.249  0.00  0.00    +0.004 A 
ENDBRANCH  14  19
ENDBRANCH   4  14
TORSDOF 4
ENDMDL
MODEL 4
REMARK VINA RESULT:      -7.0     17.463     21.355
REMARK  Name = 7682269
REMARK  5 active torsions:
REMARK  status: ('A' for Active; 'I' for Inactive)
REMARK    1  A    between atoms: N_4  and  C_14
REMARK    2  A    between atoms: N_6  and  C_28
REMARK    3  A    between atoms: C_14  and  C_19
REMARK    4  A    between atoms: C_15  and  C_20
REMARK    5  A    between atoms: C_33  and  C_34
REMARK                            x       y       z     vdW  Elec       q    Type
REMARK                         _______ _______ _______ _____ _____    ______ ____
ROOT
ATOM      1  O   UNL     1     -10.146 -12.535  20.464  0.00  0.00    -0.268 OA
ATOM      4  N   UNL     1      -7.069 -10.428  17.155  0.00  0.00    -0.294 NA
ATOM      5  N   UNL     1      -9.791 -11.530  18.379  0.00  0.00    -0.311 N 
ATOM      7  C   UNL     1      -8.238 -12.576  16.625  0.00  0.00    +0.024 C 
ATOM      8  C   UNL     1      -9.360 -10.454  16.150  0.00  0.00    +0.051 C 
ATOM      9  C   UNL     1      -9.141 -11.871  15.627  0.00  0.00    +0.017 C 
ATOM     10  C   UNL     1      -6.895 -11.829  16.753  0.00  0.00    +0.090 C 
ATOM     11  C   UNL     1      -7.997  -9.728  16.256  0.00  0.00    +0.094 C 
ATOM     12  C   UNL     1      -8.978 -12.681  17.960  0.00  0.00    +0.130 C 
ATOM     13  C   UNL     1     -10.078 -10.463  17.503  0.00  0.00    +0.034 A 
ATOM     15  C   UNL     1     -10.946  -9.491  17.882  0.00  0.00    +0.002 A 
ATOM     16  C   UNL     1     -10.351 -11.620  19.666  0.00  0.00    +0.252 A 
ATOM     17  C   UNL     1     -11.539  -9.548  19.205  0.00  0.00    +0.015 A 
ATOM     18  C   UNL     1     -11.267 -10.529  20.066  0.00  0.00    +0.071 A 
ENDROOT
BRANCH  15  20
ATOM     20  C   UNL     1     -11.292  -8.365  16.989  0.00  0.00    -0.016 A 
ATOM     22  C   UNL     1     -12.449  -8.425  16.218  0.00  0.00    +0.010 A 
ATOM     23  C   UNL     1     -10.457  -7.254  16.923  0.00  0.00    +0.010 A 
ATOM     26  C   UNL     1     -12.774  -7.363  15.375  0.00  0.00    +0.024 A 
ATOM     27  C   UNL     1     -10.783  -6.191  16.079  0.00  0.00    +0.024 A 
ATOM     28  C   UNL     1     -11.942  -6.246  15.305  0.00  0.00    +0.033 A 
BRANCH  28   6
ATOM      3  O   UNL     1     -12.332  -6.168  12.320  0.00  0.00    -0.276 OA
ATOM      6  N   UNL     1     -12.268  -5.183  14.462  0.00  0.00    -0.286 N 
ATOM     33  C   UNL     1     -12.437  -5.203  13.072  0.00  0.00    +0.214 C 
ATOM     34  C   UNL     1     -12.789  -3.840  12.531  0.00  0.00    +0.109 C 
ATOM     35  H   UNL     1     -12.397  -4.285  14.925  0.00  0.00    +0.155 HD
ENDBRANCH  28   6
ENDBRANCH  15  20
BRANCH   4  14
ATOM     14  C   UNL     1      -5.783  -9.738  17.219  0.00  0.00    +0.158 C 
BRANCH  14  19
ATOM      2  O   UNL     1      -5.044 -10.070  14.958  0.00  0.00    -0.458 OA
ATOM     19  C   UNL     1      -4.787 -10.316  16.255  0.00  0.00    +0.120 A 
ATOM     21  C   UNL     1      -3.664 -11.049  16.442  0.00  0.00    +0.054 A 
ATOM     24  C   UNL     1      -3.154 -11.293  15.139  0.00  0.00    +0.020 A 
ATOM     25  C   UNL     1      -4.037 -10.672  14.264  0.00  0.00    +0.135 A 
ATOM     29  C   UNL     1      -2.045 -11.972  14.605  0.00  0.00    +0.011 A 
ATOM     30  C   UNL     1      -3.895 -10.674  12.877  0.00  0.00    +0.047 A 
ATOM     31  C   UNL     1      -1.875 -11.992  13.214  0.00  0.00    +0.001 A 
ATOM     32  C   UNL     1      -2.785 -11.354  12.368  0.00  0.00    +0.004 A 
ENDBRANCH  14  19
ENDBRANCH   4  14
TORSDOF 4
ENDMDL
MODEL 5
REMARK VINA RESULT:      -6.9      1.695      2.359
REMARK  Name = 7682269
REMARK  5 active torsions:
REMARK  status: ('A' for Active; 'I' for Inactive)
REMARK    1  A    between atoms: N_4  and  C_14
REMARK    2  A    between atoms: N_6  and  C_28
REMARK    3  A    between atoms: C_14  and  C_19
REMARK    4  A    between atoms: C_15  and  C_20
REMARK    5  A    between atoms: C_33  and  C_34
REMARK                            x       y       z     vdW  Elec       q    Type
REMARK                         _______ _______ _______ _____ _____    ______ ____
ROOT
ATOM      1  O   UNL     1     -11.910   8.505  20.072  0.00  0.00    -0.268 OA
ATOM      4  N   UNL     1     -15.597   9.713  23.202  0.00  0.00    -0.294 NA
ATOM      5  N   UNL     1     -14.042   8.093  20.948  0.00  0.00    -0.311 N 
ATOM      7  C   UNL     1     -15.944   9.800  20.725  0.00  0.00    +0.024 C 
ATOM      8  C   UNL     1     -16.327   7.696  21.914  0.00  0.00    +0.051 C 
ATOM      9  C   UNL     1     -16.844   8.577  20.780  0.00  0.00    +0.017 C 
ATOM     10  C   UNL     1     -15.989  10.558  22.068  0.00  0.00    +0.090 C 
ATOM     11  C   UNL     1     -16.396   8.480  23.247  0.00  0.00    +0.094 C 
ATOM     12  C   UNL     1     -14.529   9.347  20.357  0.00  0.00    +0.130 C 
ATOM     13  C   UNL     1     -14.899   7.214  21.640  0.00  0.00    +0.034 A 
ATOM     15  C   UNL     1     -14.440   6.002  22.047  0.00  0.00    +0.002 A 
ATOM     16  C   UNL     1     -12.696   7.781  20.682  0.00  0.00    +0.252 A 
ATOM     17  C   UNL     1     -13.057   5.648  21.794  0.00  0.00    +0.015 A 
ATOM     18  C   UNL     1     -12.214   6.469  21.168  0.00  0.00    +0.071 A 
ENDROOT
BRANCH  15  20
ATOM     20  C   UNL     1     -15.310   5.040  22.757  0.00  0.00    -0.016 A 
ATOM     22  C   UNL     1     -16.478   4.587  22.151  0.00  0.00    +0.010 A 
ATOM     23  C   UNL     1     -14.956   4.596  24.028  0.00  0.00    +0.010 A 
ATOM     26  C   UNL     1     -17.298   3.679  22.821  0.00  0.00    +0.024 A 
ATOM     27  C   UNL     1     -15.777   3.688  24.698  0.00  0.00    +0.024 A 
ATOM     28  C   UNL     1     -16.947   3.229  24.094  0.00  0.00    +0.033 A 
BRANCH  28   6
ATOM      3  O   UNL     1     -16.336   0.500  25.211  0.00  0.00    -0.276 OA
ATOM      6  N   UNL     1     -17.767   2.321  24.764  0.00  0.00    -0.286 N 
ATOM     33  C   UNL     1     -17.429   1.057  25.265  0.00  0.00    +0.214 C 
ATOM     34  C   UNL     1     -18.605   0.385  25.928  0.00  0.00    +0.109 C 
ATOM     35  H   UNL     1     -18.729   2.624  24.903  0.00  0.00    +0.155 HD
ENDBRANCH  28   6
ENDBRANCH  15  20
BRANCH   4  14
ATOM     14  C   UNL     1     -15.697  10.447  24.461  0.00  0.00    +0.158 C 
BRANCH  14  19
ATOM      2  O   UNL     1     -14.513  10.408  26.550  0.00  0.00    -0.458 OA
ATOM     19  C   UNL     1     -14.396  10.455  25.211  0.00  0.00    +0.120 A 
ATOM     21  C   UNL     1     -13.110  10.502  24.793  0.00  0.00    +0.054 A 
ATOM     24  C   UNL     1     -12.329  10.482  25.979  0.00  0.00    +0.020 A 
ATOM     25  C   UNL     1     -13.237  10.424  27.030  0.00  0.00    +0.135 A 
ATOM     29  C   UNL     1     -10.955  10.507  26.278  0.00  0.00    +0.011 A 
ATOM     30  C   UNL     1     -12.875  10.388  28.376  0.00  0.00    +0.047 A 
ATOM     31  C   UNL     1     -10.560  10.473  27.623  0.00  0.00    +0.001 A 
ATOM     32  C   UNL     1     -11.505  10.414  28.650  0.00  0.00    +0.004 A 
ENDBRANCH  14  19
ENDBRANCH   4  14
TORSDOF 4
ENDMDL
MODEL 6
REMARK VINA RESULT:      -6.8     28.762     32.936
REMARK  Name = 7682269
REMARK  5 active torsions:
REMARK  status: ('A' for Active; 'I' for Inactive)
REMARK    1  A    between atoms: N_4  and  C_14
REMARK    2  A    between atoms: N_6  and  C_28
REMARK    3  A    between atoms: C_14  and  C_19
REMARK    4  A    between atoms: C_15  and  C_20
REMARK    5  A    between atoms: C_33  and  C_34
REMARK                            x       y       z     vdW  Elec       q    Type
REMARK                         _______ _______ _______ _____ _____    ______ ____
ROOT
ATOM      1  O   UNL     1      11.218   9.828  -0.325  0.00  0.00    -0.268 OA
ATOM      4  N   UNL     1      12.111   5.171   1.214  0.00  0.00    -0.294 NA
ATOM      5  N   UNL     1      11.804   8.333   1.380  0.00  0.00    -0.311 N 
ATOM      7  C   UNL     1      13.924   6.895   1.241  0.00  0.00    +0.024 C 
ATOM      8  C   UNL     1      12.436   6.692   3.174  0.00  0.00    +0.051 C 
ATOM      9  C   UNL     1      13.881   6.957   2.759  0.00  0.00    +0.017 C 
ATOM     10  C   UNL     1      13.461   5.509   0.749  0.00  0.00    +0.090 C 
ATOM     11  C   UNL     1      12.007   5.292   2.675  0.00  0.00    +0.094 C 
ATOM     12  C   UNL     1      13.063   8.032   0.684  0.00  0.00    +0.130 C 
ATOM     13  C   UNL     1      11.495   7.774   2.636  0.00  0.00    +0.034 A 
ATOM     15  C   UNL     1      10.389   8.187   3.307  0.00  0.00    +0.002 A 
ATOM     16  C   UNL     1      10.987   9.298   0.762  0.00  0.00    +0.252 A 
ATOM     17  C   UNL     1       9.521   9.177   2.699  0.00  0.00    +0.015 A 
ATOM     18  C   UNL     1       9.771   9.704   1.501  0.00  0.00    +0.071 A 
ENDROOT
BRANCH  15  20
ATOM     20  C   UNL     1      10.037   7.643   4.636  0.00  0.00    -0.016 A 
ATOM     22  C   UNL     1       9.050   6.668   4.744  0.00  0.00    +0.010 A 
ATOM     23  C   UNL     1      10.694   8.111   5.770  0.00  0.00    +0.010 A 
ATOM     26  C   UNL     1       8.718   6.155   5.998  0.00  0.00    +0.024 A 
ATOM     27  C   UNL     1      10.362   7.598   7.024  0.00  0.00    +0.024 A 
ATOM     28  C   UNL     1       9.374   6.620   7.138  0.00  0.00    +0.033 A 
BRANCH  28   6
ATOM      3  O   UNL     1      10.168   4.035   8.463  0.00  0.00    -0.276 OA
ATOM      6  N   UNL     1       9.043   6.106   8.392  0.00  0.00    -0.286 N 
ATOM     33  C   UNL     1       9.442   4.890   8.962  0.00  0.00    +0.214 C 
ATOM     34  C   UNL     1       8.866   4.703  10.343  0.00  0.00    +0.109 C 
ATOM     35  H   UNL     1       8.435   6.697   8.957  0.00  0.00    +0.155 HD
ENDBRANCH  28   6
ENDBRANCH  15  20
BRANCH   4  14
ATOM     14  C   UNL     1      11.724   3.834   0.770  0.00  0.00    +0.158 C 
BRANCH  14  19
ATOM      2  O   UNL     1      10.252   4.604  -0.965  0.00  0.00    -0.458 OA
ATOM     19  C   UNL     1      11.305   3.821  -0.672  0.00  0.00    +0.120 A 
ATOM     21  C   UNL     1      11.790   3.161  -1.750  0.00  0.00    +0.054 A 
ATOM     24  C   UNL     1      10.969   3.563  -2.837  0.00  0.00    +0.020 A 
ATOM     25  C   UNL     1      10.041   4.448  -2.303  0.00  0.00    +0.135 A 
ATOM     29  C   UNL     1      10.909   3.274  -4.211  0.00  0.00    +0.011 A 
ATOM     30  C   UNL     1       9.043   5.078  -3.046  0.00  0.00    +0.047 A 
ATOM     31  C   UNL     1       9.916   3.891  -4.985  0.00  0.00    +0.001 A 
ATOM     32  C   UNL     1       9.002   4.777  -4.410  0.00  0.00    +0.004 A 
ENDBRANCH  14  19
ENDBRANCH   4  14
TORSDOF 4
ENDMDL
MODEL 7
REMARK VINA RESULT:      -6.7     31.360     35.469
REMARK  Name = 7682269
REMARK  5 active torsions:
REMARK  status: ('A' for Active; 'I' for Inactive)
REMARK    1  A    between atoms: N_4  and  C_14
REMARK    2  A    between atoms: N_6  and  C_28
REMARK    3  A    between atoms: C_14  and  C_19
REMARK    4  A    between atoms: C_15  and  C_20
REMARK    5  A    between atoms: C_33  and  C_34
REMARK                            x       y       z     vdW  Elec       q    Type
REMARK                         _______ _______ _______ _____ _____    ______ ____
ROOT
ATOM      1  O   UNL     1      12.461   7.717  -2.507  0.00  0.00    -0.268 OA
ATOM      4  N   UNL     1      13.170   4.298   1.051  0.00  0.00    -0.294 NA
ATOM      5  N   UNL     1      13.893   6.580  -1.044  0.00  0.00    -0.311 N 
ATOM      7  C   UNL     1      14.239   4.042  -1.197  0.00  0.00    +0.024 C 
ATOM      8  C   UNL     1      15.392   5.328   0.536  0.00  0.00    +0.051 C 
ATOM      9  C   UNL     1      15.608   4.347  -0.613  0.00  0.00    +0.017 C 
ATOM     10  C   UNL     1      13.322   3.427  -0.121  0.00  0.00    +0.090 C 
ATOM     11  C   UNL     1      14.479   4.677   1.603  0.00  0.00    +0.094 C 
ATOM     12  C   UNL     1      13.664   5.333  -1.787  0.00  0.00    +0.130 C 
ATOM     13  C   UNL     1      14.793   6.647   0.038  0.00  0.00    +0.034 A 
ATOM     15  C   UNL     1      15.081   7.846   0.606  0.00  0.00    +0.002 A 
ATOM     16  C   UNL     1      13.243   7.717  -1.556  0.00  0.00    +0.252 A 
ATOM     17  C   UNL     1      14.426   9.041   0.107  0.00  0.00    +0.015 A 
ATOM     18  C   UNL     1      13.550   9.006  -0.897  0.00  0.00    +0.071 A 
ENDROOT
BRANCH  15  20
ATOM     20  C   UNL     1      16.034   7.966   1.730  0.00  0.00    -0.016 A 
ATOM     22  C   UNL     1      15.586   7.795   3.036  0.00  0.00    +0.010 A 
ATOM     23  C   UNL     1      17.372   8.252   1.474  0.00  0.00    +0.010 A 
ATOM     26  C   UNL     1      16.486   7.909   4.096  0.00  0.00    +0.024 A 
ATOM     27  C   UNL     1      18.271   8.366   2.534  0.00  0.00    +0.024 A 
ATOM     28  C   UNL     1      17.828   8.194   3.846  0.00  0.00    +0.033 A 
BRANCH  28   6
ATOM      3  O   UNL     1      20.517   6.906   4.273  0.00  0.00    -0.276 OA
ATOM      6  N   UNL     1      18.728   8.307   4.906  0.00  0.00    -0.286 N 
ATOM     33  C   UNL     1      19.972   7.680   5.054  0.00  0.00    +0.214 C 
ATOM     34  C   UNL     1      20.642   8.066   6.349  0.00  0.00    +0.109 C 
ATOM     35  H   UNL     1      18.435   8.924   5.660  0.00  0.00    +0.155 HD
ENDBRANCH  28   6
ENDBRANCH  15  20
BRANCH   4  14
ATOM     14  C   UNL     1      12.337   3.665   2.070  0.00  0.00    +0.158 C 
BRANCH  14  19
ATOM      2  O   UNL     1      10.855   4.284   3.856  0.00  0.00    -0.458 OA
ATOM     19  C   UNL     1      11.329   4.620   2.644  0.00  0.00    +0.120 A 
ATOM     21  C   UNL     1      10.798   5.770   2.168  0.00  0.00    +0.054 A 
ATOM     24  C   UNL     1       9.899   6.213   3.174  0.00  0.00    +0.020 A 
ATOM     25  C   UNL     1       9.971   5.266   4.189  0.00  0.00    +0.135 A 
ATOM     29  C   UNL     1       9.033   7.308   3.337  0.00  0.00    +0.011 A 
ATOM     30  C   UNL     1       9.234   5.329   5.372  0.00  0.00    +0.047 A 
ATOM     31  C   UNL     1       8.279   7.399   4.515  0.00  0.00    +0.001 A 
ATOM     32  C   UNL     1       8.381   6.427   5.513  0.00  0.00    +0.004 A 
ENDBRANCH  14  19
ENDBRANCH   4  14
TORSDOF 4
ENDMDL
MODEL 8
REMARK VINA RESULT:      -6.6     31.424     34.067
REMARK  Name = 7682269
REMARK  5 active torsions:
REMARK  status: ('A' for Active; 'I' for Inactive)
REMARK    1  A    between atoms: N_4  and  C_14
REMARK    2  A    between atoms: N_6  and  C_28
REMARK    3  A    between atoms: C_14  and  C_19
REMARK    4  A    between atoms: C_15  and  C_20
REMARK    5  A    between atoms: C_33  and  C_34
REMARK                            x       y       z     vdW  Elec       q    Type
REMARK                         _______ _______ _______ _____ _____    ______ ____
ROOT
ATOM      1  O   UNL     1      18.818  -2.162  29.949  0.00  0.00    -0.268 OA
ATOM      4  N   UNL     1      17.532  -6.198  27.320  0.00  0.00    -0.294 NA
ATOM      5  N   UNL     1      18.032  -4.367  29.873  0.00  0.00    -0.311 N 
ATOM      7  C   UNL     1      19.457  -6.274  28.917  0.00  0.00    +0.024 C 
ATOM      8  C   UNL     1      17.199  -6.733  29.741  0.00  0.00    +0.051 C 
ATOM      9  C   UNL     1      18.663  -7.144  29.877  0.00  0.00    +0.017 C 
ATOM     10  C   UNL     1      18.964  -6.484  27.471  0.00  0.00    +0.090 C 
ATOM     11  C   UNL     1      16.732  -6.967  28.284  0.00  0.00    +0.094 C 
ATOM     12  C   UNL     1      19.338  -4.817  29.370  0.00  0.00    +0.130 C 
ATOM     13  C   UNL     1      16.990  -5.273  30.153  0.00  0.00    +0.034 A 
ATOM     15  C   UNL     1      15.851  -4.832  30.748  0.00  0.00    +0.002 A 
ATOM     16  C   UNL     1      17.934  -2.993  30.159  0.00  0.00    +0.252 A 
ATOM     17  C   UNL     1      15.714  -3.421  31.054  0.00  0.00    +0.015 A 
ATOM     18  C   UNL     1      16.670  -2.535  30.776  0.00  0.00    +0.071 A 
ENDROOT
BRANCH  15  20
ATOM     20  C   UNL     1      14.741  -5.751  31.079  0.00  0.00    -0.016 A 
ATOM     22  C   UNL     1      13.759  -6.018  30.129  0.00  0.00    +0.010 A 
ATOM     23  C   UNL     1      14.683  -6.340  32.338  0.00  0.00    +0.010 A 
ATOM     26  C   UNL     1      12.711  -6.883  30.442  0.00  0.00    +0.024 A 
ATOM     27  C   UNL     1      13.635  -7.206  32.650  0.00  0.00    +0.024 A 
ATOM     28  C   UNL     1      12.649  -7.478  31.702  0.00  0.00    +0.033 A 
BRANCH  28   6
ATOM      3  O   UNL     1      10.018  -6.950  33.068  0.00  0.00    -0.276 OA
ATOM      6  N   UNL     1      11.602  -8.345  32.015  0.00  0.00    -0.286 N 
ATOM     33  C   UNL     1      10.393  -8.044  32.656  0.00  0.00    +0.214 C 
ATOM     34  C   UNL     1       9.521  -9.265  32.807  0.00  0.00    +0.109 C 
ATOM     35  H   UNL     1      11.743  -9.314  31.738  0.00  0.00    +0.155 HD
ENDBRANCH  28   6
ENDBRANCH  15  20
BRANCH   4  14
ATOM     14  C   UNL     1      17.089  -6.453  25.951  0.00  0.00    +0.158 C 
BRANCH  14  19
ATOM      2  O   UNL     1      16.950  -4.066  25.728  0.00  0.00    -0.458 OA
ATOM     19  C   UNL     1      17.187  -5.226  25.091  0.00  0.00    +0.120 A 
ATOM     21  C   UNL     1      17.473  -5.060  23.779  0.00  0.00    +0.054 A 
ATOM     24  C   UNL     1      17.413  -3.659  23.555  0.00  0.00    +0.020 A 
ATOM     25  C   UNL     1      17.089  -3.094  24.783  0.00  0.00    +0.135 A 
ATOM     29  C   UNL     1      17.596  -2.809  22.451  0.00  0.00    +0.011 A 
ATOM     30  C   UNL     1      16.932  -1.724  24.997  0.00  0.00    +0.047 A 
ATOM     31  C   UNL     1      17.445  -1.427  22.634  0.00  0.00    +0.001 A 
ATOM     32  C   UNL     1      17.120  -0.898  23.885  0.00  0.00    +0.004 A 
ENDBRANCH  14  19
ENDBRANCH   4  14
TORSDOF 4
ENDMDL
MODEL 9
REMARK VINA RESULT:      -6.5     32.873     35.347
REMARK  Name = 7682269
REMARK  5 active torsions:
REMARK  status: ('A' for Active; 'I' for Inactive)
REMARK    1  A    between atoms: N_4  and  C_14
REMARK    2  A    between atoms: N_6  and  C_28
REMARK    3  A    between atoms: C_14  and  C_19
REMARK    4  A    between atoms: C_15  and  C_20
REMARK    5  A    between atoms: C_33  and  C_34
REMARK                            x       y       z     vdW  Elec       q    Type
REMARK                         _______ _______ _______ _____ _____    ______ ____
ROOT
ATOM      1  O   UNL     1      19.884  -5.394  21.556  0.00  0.00    -0.268 OA
ATOM      4  N   UNL     1      18.576  -1.844  24.803  0.00  0.00    -0.294 NA
ATOM      5  N   UNL     1      18.369  -4.538  23.123  0.00  0.00    -0.311 N 
ATOM      7  C   UNL     1      17.189  -2.288  22.768  0.00  0.00    +0.024 C 
ATOM      8  C   UNL     1      16.771  -3.577  24.805  0.00  0.00    +0.051 C 
ATOM      9  C   UNL     1      16.090  -2.904  23.617  0.00  0.00    +0.017 C 
ATOM     10  C   UNL     1      17.989  -1.259  23.592  0.00  0.00    +0.090 C 
ATOM     11  C   UNL     1      17.554  -2.517  25.617  0.00  0.00    +0.094 C 
ATOM     12  C   UNL     1      18.072  -3.414  22.224  0.00  0.00    +0.130 C 
ATOM     13  C   UNL     1      17.698  -4.708  24.350  0.00  0.00    +0.034 A 
ATOM     15  C   UNL     1      17.900  -5.833  25.083  0.00  0.00    +0.002 A 
ATOM     16  C   UNL     1      19.282  -5.486  22.626  0.00  0.00    +0.252 A 
ATOM     17  C   UNL     1      18.839  -6.830  24.604  0.00  0.00    +0.015 A 
ATOM     18  C   UNL     1      19.510  -6.686  23.462  0.00  0.00    +0.071 A 
ENDROOT
BRANCH  15  20
ATOM     20  C   UNL     1      17.202  -6.062  26.366  0.00  0.00    -0.016 A 
ATOM     22  C   UNL     1      15.943  -6.655  26.370  0.00  0.00    +0.010 A 
ATOM     23  C   UNL     1      17.807  -5.681  27.560  0.00  0.00    +0.010 A 
ATOM     26  C   UNL     1      15.284  -6.871  27.581  0.00  0.00    +0.024 A 
ATOM     27  C   UNL     1      17.147  -5.897  28.770  0.00  0.00    +0.024 A 
ATOM     28  C   UNL     1      15.886  -6.492  28.781  0.00  0.00    +0.033 A 
BRANCH  28   6
ATOM      3  O   UNL     1      14.811  -4.532  30.798  0.00  0.00    -0.276 OA
ATOM      6  N   UNL     1      15.227  -6.708  29.991  0.00  0.00    -0.286 N 
ATOM     33  C   UNL     1      14.747  -5.753  30.897  0.00  0.00    +0.214 C 
ATOM     34  C   UNL     1      14.090  -6.397  32.092  0.00  0.00    +0.109 C 
ATOM     35  H   UNL     1      15.082  -7.685  30.239  0.00  0.00    +0.155 HD
ENDBRANCH  28   6
ENDBRANCH  15  20
BRANCH   4  14
ATOM     14  C   UNL     1      19.285  -0.833  25.583  0.00  0.00    +0.158 C 
BRANCH  14  19
ATOM      2  O   UNL     1      21.528  -0.045  25.247  0.00  0.00    -0.458 OA
ATOM     19  C   UNL     1      20.765  -1.087  25.619  0.00  0.00    +0.120 A 
ATOM     21  C   UNL     1      21.489  -2.179  25.958  0.00  0.00    +0.054 A 
ATOM     24  C   UNL     1      22.846  -1.798  25.787  0.00  0.00    +0.020 A 
ATOM     25  C   UNL     1      22.816  -0.479  25.349  0.00  0.00    +0.135 A 
ATOM     29  C   UNL     1      24.094  -2.423  25.953  0.00  0.00    +0.011 A 
ATOM     30  C   UNL     1      23.953   0.275  25.061  0.00  0.00    +0.047 A 
ATOM     31  C   UNL     1      25.255  -1.691  25.671  0.00  0.00    +0.001 A 
ATOM     32  C   UNL     1      25.183  -0.366  25.234  0.00  0.00    +0.004 A 
ENDBRANCH  14  19
ENDBRANCH   4  14
TORSDOF 4
ENDMDL
MODEL 10
REMARK VINA RESULT:      -6.5     17.292     21.332
REMARK  Name = 7682269
REMARK  5 active torsions:
REMARK  status: ('A' for Active; 'I' for Inactive)
REMARK    1  A    between atoms: N_4  and  C_14
REMARK    2  A    between atoms: N_6  and  C_28
REMARK    3  A    between atoms: C_14  and  C_19
REMARK    4  A    between atoms: C_15  and  C_20
REMARK    5  A    between atoms: C_33  and  C_34
REMARK                            x       y       z     vdW  Elec       q    Type
REMARK                         _______ _______ _______ _____ _____    ______ ____
ROOT
ATOM      1  O   UNL     1     -10.792 -12.755  20.202  0.00  0.00    -0.268 OA
ATOM      4  N   UNL     1      -9.440 -12.440  15.413  0.00  0.00    -0.294 NA
ATOM      5  N   UNL     1     -11.184 -11.968  18.031  0.00  0.00    -0.311 N 
ATOM      7  C   UNL     1     -11.575 -13.570  16.066  0.00  0.00    +0.024 C 
ATOM      8  C   UNL     1     -11.568 -11.152  15.687  0.00  0.00    +0.051 C 
ATOM      9  C   UNL     1     -12.390 -12.423  15.492  0.00  0.00    +0.017 C 
ATOM     10  C   UNL     1     -10.220 -13.681  15.338  0.00  0.00    +0.090 C 
ATOM     11  C   UNL     1     -10.222 -11.291  14.935  0.00  0.00    +0.094 C 
ATOM     12  C   UNL     1     -11.413 -13.345  17.571  0.00  0.00    +0.130 C 
ATOM     13  C   UNL     1     -11.334 -10.861  17.172  0.00  0.00    +0.034 A 
ATOM     15  C   UNL     1     -11.252  -9.601  17.670  0.00  0.00    +0.002 A 
ATOM     16  C   UNL     1     -10.917 -11.825  19.405  0.00  0.00    +0.252 A 
ATOM     17  C   UNL     1     -10.974  -9.415  19.082  0.00  0.00    +0.015 A 
ATOM     18  C   UNL     1     -10.799 -10.440  19.915  0.00  0.00    +0.071 A 
ENDROOT
BRANCH  15  20
ATOM     20  C   UNL     1     -11.424  -8.411  16.809  0.00  0.00    -0.016 A 
ATOM     22  C   UNL     1     -12.703  -8.003  16.441  0.00  0.00    +0.010 A 
ATOM     23  C   UNL     1     -10.306  -7.708  16.371  0.00  0.00    +0.010 A 
ATOM     26  C   UNL     1     -12.864  -6.881  15.629  0.00  0.00    +0.024 A 
ATOM     27  C   UNL     1     -10.467  -6.586  15.558  0.00  0.00    +0.024 A 
ATOM     28  C   UNL     1     -11.746  -6.172  15.187  0.00  0.00    +0.033 A 
BRANCH  28   6
ATOM      3  O   UNL     1     -12.477  -5.956  12.274  0.00  0.00    -0.276 OA
ATOM      6  N   UNL     1     -11.908  -5.049  14.375  0.00  0.00    -0.286 N 
ATOM     33  C   UNL     1     -12.250  -5.006  13.017  0.00  0.00    +0.214 C 
ATOM     34  C   UNL     1     -12.325  -3.590  12.504  0.00  0.00    +0.109 C 
ATOM     35  H   UNL     1     -11.757  -4.154  14.836  0.00  0.00    +0.155 HD
ENDBRANCH  28   6
ENDBRANCH  15  20
BRANCH   4  14
ATOM     14  C   UNL     1      -8.186 -12.564  14.674  0.00  0.00    +0.158 C 
BRANCH  14  19
ATOM      2  O   UNL     1      -7.078 -12.657  16.803  0.00  0.00    -0.458 OA
ATOM     19  C   UNL     1      -6.995 -12.236  15.528  0.00  0.00    +0.120 A 
ATOM     21  C   UNL     1      -5.838 -11.588  15.259  0.00  0.00    +0.054 A 
ATOM     24  C   UNL     1      -5.110 -11.596  16.478  0.00  0.00    +0.020 A 
ATOM     25  C   UNL     1      -5.915 -12.264  17.395  0.00  0.00    +0.135 A 
ATOM     29  C   UNL     1      -3.862 -11.112  16.908  0.00  0.00    +0.011 A 
ATOM     30  C   UNL     1      -5.564 -12.490  18.725  0.00  0.00    +0.047 A 
ATOM     31  C   UNL     1      -3.482 -11.323  18.240  0.00  0.00    +0.001 A 
ATOM     32  C   UNL     1      -4.319 -12.000  19.130  0.00  0.00    +0.004 A 
ENDBRANCH  14  19
ENDBRANCH   4  14
TORSDOF 4
ENDMDL
