MODEL 1
REMARK VINA RESULT:      -6.9      0.000      0.000
REMARK  Name = 51136649
REMARK  8 active torsions:
REMARK  status: ('A' for Active; 'I' for Inactive)
REMARK    1  A    between atoms: O_2  and  C_17
REMARK    2  A    between atoms: O_4  and  C_25
REMARK    3  A    between atoms: O_4  and  C_31
REMARK    4  A    between atoms: C_7  and  C_12
REMARK    5  A    between atoms: C_8  and  C_13
REMARK    6  A    between atoms: C_12  and  C_14
REMARK    7  A    between atoms: C_13  and  C_17
REMARK    8  A    between atoms: C_15  and  C_21
REMARK                            x       y       z     vdW  Elec       q    Type
REMARK                         _______ _______ _______ _____ _____    ______ ____
ROOT
ATOM      1  O   UNL     1      10.668   8.327  17.121  0.00  0.00    -0.270 OA
ATOM      5  N   UNL     1      12.955   8.819  17.140  0.00  0.00    -0.297 N 
ATOM      7  C   UNL     1      14.820  10.351  17.732  0.00  0.00    +0.016 C 
ATOM      8  C   UNL     1      14.897  10.771  16.242  0.00  0.00    +0.006 C 
ATOM      9  C   UNL     1      13.543  10.591  15.533  0.00  0.00    +0.023 C 
ATOM     10  C   UNL     1      14.238   8.929  17.847  0.00  0.00    +0.112 C 
ATOM     11  C   UNL     1      13.003   9.176  15.723  0.00  0.00    +0.108 C 
ATOM     15  C   UNL     1      11.745   8.416  17.708  0.00  0.00    +0.247 C 
ENDROOT
BRANCH  15  21
ATOM     21  C   UNL     1      11.736   8.065  19.133  0.00  0.00    +0.037 A 
ATOM     26  C   UNL     1      10.872   8.724  20.009  0.00  0.00    +0.013 A 
ATOM     27  C   UNL     1      12.588   7.071  19.612  0.00  0.00    +0.013 A 
ATOM     28  C   UNL     1      10.862   8.389  21.362  0.00  0.00    +0.001 A 
ATOM     29  C   UNL     1      12.579   6.736  20.966  0.00  0.00    +0.001 A 
ATOM     30  C   UNL     1      11.715   7.395  21.842  0.00  0.00    +0.000 A 
ENDBRANCH  15  21
BRANCH   7  12
ATOM     12  C   UNL     1      14.026  11.324  18.612  0.00  0.00    +0.061 C 
BRANCH  12  14
ATOM      6  N   UNL     1      15.559  10.696  20.351  0.00  0.00    -0.287 NA
ATOM     14  C   UNL     1      14.363  11.092  20.065  0.00  0.00    +0.044 C 
ATOM     16  C   UNL     1      13.311  11.321  21.088  0.00  0.00    -0.001 A 
ATOM     18  C   UNL     1      13.516  10.740  22.346  0.00  0.00    -0.033 A 
ATOM     19  C   UNL     1      14.758   9.928  22.570  0.00  0.00    +0.059 C 
ATOM     20  C   UNL     1      15.904  10.529  21.767  0.00  0.00    +0.146 C 
ATOM     22  C   UNL     1      12.156  12.062  20.831  0.00  0.00    +0.013 A 
ATOM     23  C   UNL     1      12.545  10.884  23.341  0.00  0.00    +0.050 A 
ATOM     24  C   UNL     1      11.197  12.212  21.835  0.00  0.00    +0.046 A 
ATOM     25  C   UNL     1      11.390  11.624  23.085  0.00  0.00    +0.120 A 
BRANCH  25   4
ATOM      4  O   UNL     1      10.448  11.769  24.057  0.00  0.00    -0.495 OA
ATOM     31  C   UNL     1      10.881  12.310  25.304  0.00  0.00    +0.277 C 
ENDBRANCH  25   4
ENDBRANCH  12  14
ENDBRANCH   7  12
BRANCH   8  13
ATOM     13  C   UNL     1      15.425  12.191  16.043  0.00  0.00    +0.124 C 
BRANCH  13  17
ATOM      3  O   UNL     1      17.688  12.986  15.605  0.00  0.00    -0.251 OA
ATOM     17  C   UNL     1      16.782  12.193  15.396  0.00  0.00    +0.305 C 
BRANCH  17   2
ATOM      2  O   UNL     1      16.871  11.161  14.517  0.00  0.00    -0.481 OA
ATOM     32  H   UNL     1      16.792  10.292  14.965  0.00  0.00    +0.295 HD
ENDBRANCH  17   2
ENDBRANCH  13  17
ENDBRANCH   8  13
TORSDOF 7
ENDMDL
MODEL 2
REMARK VINA RESULT:      -6.3     26.253     29.299
REMARK  Name = 51136649
REMARK  8 active torsions:
REMARK  status: ('A' for Active; 'I' for Inactive)
REMARK    1  A    between atoms: O_2  and  C_17
REMARK    2  A    between atoms: O_4  and  C_25
REMARK    3  A    between atoms: O_4  and  C_31
REMARK    4  A    between atoms: C_7  and  C_12
REMARK    5  A    between atoms: C_8  and  C_13
REMARK    6  A    between atoms: C_12  and  C_14
REMARK    7  A    between atoms: C_13  and  C_17
REMARK    8  A    between atoms: C_15  and  C_21
REMARK                            x       y       z     vdW  Elec       q    Type
REMARK                         _______ _______ _______ _____ _____    ______ ____
ROOT
ATOM      1  O   UNL     1      -1.059  -9.541  12.713  0.00  0.00    -0.270 OA
ATOM      5  N   UNL     1      -2.180 -11.128  14.016  0.00  0.00    -0.297 N 
ATOM      7  C   UNL     1      -4.192 -11.825  15.297  0.00  0.00    +0.016 C 
ATOM      8  C   UNL     1      -3.416 -11.522  16.605  0.00  0.00    +0.006 C 
ATOM      9  C   UNL     1      -2.326 -10.459  16.382  0.00  0.00    +0.023 C 
ATOM     10  C   UNL     1      -3.202 -12.172  14.169  0.00  0.00    +0.112 C 
ATOM     11  C   UNL     1      -1.408 -10.843  15.224  0.00  0.00    +0.108 C 
ATOM     15  C   UNL     1      -1.911 -10.419  12.844  0.00  0.00    +0.247 C 
ENDROOT
BRANCH  15  21
ATOM     21  C   UNL     1      -2.705 -10.732  11.650  0.00  0.00    +0.037 A 
ATOM     26  C   UNL     1      -2.980  -9.736  10.713  0.00  0.00    +0.013 A 
ATOM     27  C   UNL     1      -3.183 -12.027  11.451  0.00  0.00    +0.013 A 
ATOM     28  C   UNL     1      -3.734 -10.034   9.579  0.00  0.00    +0.001 A 
ATOM     29  C   UNL     1      -3.937 -12.326  10.316  0.00  0.00    +0.001 A 
ATOM     30  C   UNL     1      -4.212 -11.329   9.379  0.00  0.00    +0.000 A 
ENDBRANCH  15  21
BRANCH   7  12
ATOM     12  C   UNL     1      -5.129 -10.695  14.854  0.00  0.00    +0.061 C 
BRANCH  12  14
ATOM      6  N   UNL     1      -6.778 -12.349  14.293  0.00  0.00    -0.287 NA
ATOM     14  C   UNL     1      -6.202 -11.247  13.945  0.00  0.00    +0.044 C 
ATOM     16  C   UNL     1      -6.536 -10.505  12.702  0.00  0.00    -0.001 A 
ATOM     18  C   UNL     1      -7.228 -11.214  11.711  0.00  0.00    -0.033 A 
ATOM     19  C   UNL     1      -7.568 -12.654  11.960  0.00  0.00    +0.059 C 
ATOM     20  C   UNL     1      -7.861 -12.853  13.442  0.00  0.00    +0.146 C 
ATOM     22  C   UNL     1      -6.177  -9.172  12.498  0.00  0.00    +0.013 A 
ATOM     23  C   UNL     1      -7.537 -10.586  10.502  0.00  0.00    +0.050 A 
ATOM     24  C   UNL     1      -6.503  -8.548  11.292  0.00  0.00    +0.046 A 
ATOM     25  C   UNL     1      -7.178  -9.253  10.296  0.00  0.00    +0.120 A 
BRANCH  25   4
ATOM      4  O   UNL     1      -7.486  -8.641   9.120  0.00  0.00    -0.495 OA
ATOM     31  C   UNL     1      -6.997  -9.248   7.925  0.00  0.00    +0.277 C 
ENDBRANCH  25   4
ENDBRANCH  12  14
ENDBRANCH   7  12
BRANCH   8  13
ATOM     13  C   UNL     1      -4.328 -11.124  17.766  0.00  0.00    +0.124 C 
BRANCH  13  17
ATOM      3  O   UNL     1      -3.333 -12.172  19.730  0.00  0.00    -0.251 OA
ATOM     17  C   UNL     1      -4.232 -12.100  18.905  0.00  0.00    +0.305 C 
BRANCH  17   2
ATOM      2  O   UNL     1      -5.314 -12.921  18.896  0.00  0.00    -0.481 OA
ATOM     32  H   UNL     1      -6.153 -12.421  18.995  0.00  0.00    +0.295 HD
ENDBRANCH  17   2
ENDBRANCH  13  17
ENDBRANCH   8  13
TORSDOF 7
ENDMDL
MODEL 3
REMARK VINA RESULT:      -6.1      3.055      6.717
REMARK  Name = 51136649
REMARK  8 active torsions:
REMARK  status: ('A' for Active; 'I' for Inactive)
REMARK    1  A    between atoms: O_2  and  C_17
REMARK    2  A    between atoms: O_4  and  C_25
REMARK    3  A    between atoms: O_4  and  C_31
REMARK    4  A    between atoms: C_7  and  C_12
REMARK    5  A    between atoms: C_8  and  C_13
REMARK    6  A    between atoms: C_12  and  C_14
REMARK    7  A    between atoms: C_13  and  C_17
REMARK    8  A    between atoms: C_15  and  C_21
REMARK                            x       y       z     vdW  Elec       q    Type
REMARK                         _______ _______ _______ _____ _____    ______ ____
ROOT
ATOM      1  O   UNL     1      10.338   8.108  23.047  0.00  0.00    -0.270 OA
ATOM      5  N   UNL     1      11.091  10.296  22.701  0.00  0.00    -0.297 N 
ATOM      7  C   UNL     1      12.945  11.948  22.649  0.00  0.00    +0.016 C 
ATOM      8  C   UNL     1      12.441  12.499  24.008  0.00  0.00    +0.006 C 
ATOM      9  C   UNL     1      11.686  11.424  24.809  0.00  0.00    +0.023 C 
ATOM     10  C   UNL     1      11.779  11.301  21.880  0.00  0.00    +0.112 C 
ATOM     11  C   UNL     1      10.573  10.793  23.975  0.00  0.00    +0.108 C 
ATOM     15  C   UNL     1      10.910   8.953  22.361  0.00  0.00    +0.247 C 
ENDROOT
BRANCH  15  21
ATOM     21  C   UNL     1      11.442   8.490  21.074  0.00  0.00    +0.037 A 
ATOM     26  C   UNL     1      11.437   9.343  19.970  0.00  0.00    +0.013 A 
ATOM     27  C   UNL     1      11.953   7.199  20.956  0.00  0.00    +0.013 A 
ATOM     28  C   UNL     1      11.944   8.903  18.747  0.00  0.00    +0.001 A 
ATOM     29  C   UNL     1      12.461   6.759  19.733  0.00  0.00    +0.001 A 
ATOM     30  C   UNL     1      12.456   7.611  18.628  0.00  0.00    +0.000 A 
ENDBRANCH  15  21
BRANCH   7  12
ATOM     12  C   UNL     1      14.114  10.963  22.773  0.00  0.00    +0.061 C 
BRANCH  12  14
ATOM      6  N   UNL     1      14.981  11.873  20.727  0.00  0.00    -0.287 NA
ATOM     14  C   UNL     1      14.798  10.809  21.436  0.00  0.00    +0.044 C 
ATOM     16  C   UNL     1      15.218   9.453  21.000  0.00  0.00    -0.001 A 
ATOM     18  C   UNL     1      15.483   9.283  19.635  0.00  0.00    -0.033 A 
ATOM     19  C   UNL     1      15.315  10.457  18.716  0.00  0.00    +0.059 C 
ATOM     20  C   UNL     1      15.699  11.733  19.456  0.00  0.00    +0.146 C 
ATOM     22  C   UNL     1      15.336   8.378  21.883  0.00  0.00    +0.013 A 
ATOM     23  C   UNL     1      15.844   8.021  19.153  0.00  0.00    +0.050 A 
ATOM     24  C   UNL     1      15.711   7.125  21.395  0.00  0.00    +0.046 A 
ATOM     25  C   UNL     1      15.962   6.946  20.035  0.00  0.00    +0.120 A 
BRANCH  25   4
ATOM      4  O   UNL     1      16.320   5.720  19.566  0.00  0.00    -0.495 OA
ATOM     31  C   UNL     1      17.599   5.612  18.944  0.00  0.00    +0.277 C 
ENDBRANCH  25   4
ENDBRANCH  12  14
ENDBRANCH   7  12
BRANCH   8  13
ATOM     13  C   UNL     1      13.551  13.121  24.855  0.00  0.00    +0.124 C 
BRANCH  13  17
ATOM      3  O   UNL     1      12.246  14.500  26.384  0.00  0.00    -0.251 OA
ATOM     17  C   UNL     1      13.036  13.589  26.188  0.00  0.00    +0.305 C 
BRANCH  17   2
ATOM      2  O   UNL     1      13.585  12.839  27.178  0.00  0.00    -0.481 OA
ATOM     32  H   UNL     1      14.544  13.017  27.283  0.00  0.00    +0.295 HD
ENDBRANCH  17   2
ENDBRANCH  13  17
ENDBRANCH   8  13
TORSDOF 7
ENDMDL
MODEL 4
REMARK VINA RESULT:      -5.9     26.154     29.246
REMARK  Name = 51136649
REMARK  8 active torsions:
REMARK  status: ('A' for Active; 'I' for Inactive)
REMARK    1  A    between atoms: O_2  and  C_17
REMARK    2  A    between atoms: O_4  and  C_25
REMARK    3  A    between atoms: O_4  and  C_31
REMARK    4  A    between atoms: C_7  and  C_12
REMARK    5  A    between atoms: C_8  and  C_13
REMARK    6  A    between atoms: C_12  and  C_14
REMARK    7  A    between atoms: C_13  and  C_17
REMARK    8  A    between atoms: C_15  and  C_21
REMARK                            x       y       z     vdW  Elec       q    Type
REMARK                         _______ _______ _______ _____ _____    ______ ____
ROOT
ATOM      1  O   UNL     1      -8.220 -11.543  18.226  0.00  0.00    -0.270 OA
ATOM      5  N   UNL     1      -6.470 -10.383  17.196  0.00  0.00    -0.297 N 
ATOM      7  C   UNL     1      -4.742 -10.235  15.416  0.00  0.00    +0.016 C 
ATOM      8  C   UNL     1      -3.673 -10.599  16.478  0.00  0.00    +0.006 C 
ATOM      9  C   UNL     1      -4.277 -11.418  17.631  0.00  0.00    +0.023 C 
ATOM     10  C   UNL     1      -5.948  -9.560  16.096  0.00  0.00    +0.112 C 
ATOM     11  C   UNL     1      -5.493 -10.715  18.231  0.00  0.00    +0.108 C 
ATOM     15  C   UNL     1      -7.781 -10.851  17.310  0.00  0.00    +0.247 C 
ENDROOT
BRANCH  15  21
ATOM     21  C   UNL     1      -8.734 -10.496  16.252  0.00  0.00    +0.037 A 
ATOM     26  C   UNL     1      -9.173 -11.470  15.354  0.00  0.00    +0.013 A 
ATOM     27  C   UNL     1      -9.203  -9.188  16.146  0.00  0.00    +0.013 A 
ATOM     28  C   UNL     1     -10.080 -11.134  14.350  0.00  0.00    +0.001 A 
ATOM     29  C   UNL     1     -10.110  -8.851  15.141  0.00  0.00    +0.001 A 
ATOM     30  C   UNL     1     -10.549  -9.824  14.243  0.00  0.00    +0.000 A 
ENDBRANCH  15  21
BRANCH   7  12
ATOM     12  C   UNL     1      -5.207 -11.424  14.567  0.00  0.00    +0.061 C 
BRANCH  12  14
ATOM      6  N   UNL     1      -3.684 -11.685  12.728  0.00  0.00    -0.287 NA
ATOM     14  C   UNL     1      -4.817 -11.207  13.125  0.00  0.00    +0.044 C 
ATOM     16  C   UNL     1      -5.744 -10.457  12.239  0.00  0.00    -0.001 A 
ATOM     18  C   UNL     1      -5.205  -9.942  11.053  0.00  0.00    -0.033 A 
ATOM     19  C   UNL     1      -3.749 -10.167  10.766  0.00  0.00    +0.059 C 
ATOM     20  C   UNL     1      -3.333 -11.527  11.313  0.00  0.00    +0.146 C 
ATOM     22  C   UNL     1      -7.087 -10.246  12.556  0.00  0.00    +0.013 A 
ATOM     23  C   UNL     1      -6.014  -9.192  10.195  0.00  0.00    +0.050 A 
ATOM     24  C   UNL     1      -7.891  -9.507  11.686  0.00  0.00    +0.046 A 
ATOM     25  C   UNL     1      -7.356  -8.980  10.511  0.00  0.00    +0.120 A 
BRANCH  25   4
ATOM      4  O   UNL     1      -8.145  -8.255   9.671  0.00  0.00    -0.495 OA
ATOM     31  C   UNL     1      -7.530  -7.730   8.496  0.00  0.00    +0.277 C 
ENDBRANCH  25   4
ENDBRANCH  12  14
ENDBRANCH   7  12
BRANCH   8  13
ATOM     13  C   UNL     1      -2.458 -11.315  15.887  0.00  0.00    +0.124 C 
BRANCH  13  17
ATOM      3  O   UNL     1      -0.425  -9.977  16.019  0.00  0.00    -0.251 OA
ATOM     17  C   UNL     1      -1.419 -10.341  15.408  0.00  0.00    +0.305 C 
BRANCH  17   2
ATOM      2  O   UNL     1      -1.742  -9.902  14.164  0.00  0.00    -0.481 OA
ATOM     32  H   UNL     1      -2.237 -10.579  13.655  0.00  0.00    +0.295 HD
ENDBRANCH  17   2
ENDBRANCH  13  17
ENDBRANCH   8  13
TORSDOF 7
ENDMDL
MODEL 5
REMARK VINA RESULT:      -5.9     26.779     29.738
REMARK  Name = 51136649
REMARK  8 active torsions:
REMARK  status: ('A' for Active; 'I' for Inactive)
REMARK    1  A    between atoms: O_2  and  C_17
REMARK    2  A    between atoms: O_4  and  C_25
REMARK    3  A    between atoms: O_4  and  C_31
REMARK    4  A    between atoms: C_7  and  C_12
REMARK    5  A    between atoms: C_8  and  C_13
REMARK    6  A    between atoms: C_12  and  C_14
REMARK    7  A    between atoms: C_13  and  C_17
REMARK    8  A    between atoms: C_15  and  C_21
REMARK                            x       y       z     vdW  Elec       q    Type
REMARK                         _______ _______ _______ _____ _____    ______ ____
ROOT
ATOM      1  O   UNL     1      -1.514  -9.890  13.956  0.00  0.00    -0.270 OA
ATOM      5  N   UNL     1      -3.027 -11.309  15.038  0.00  0.00    -0.297 N 
ATOM      7  C   UNL     1      -5.348 -11.833  15.755  0.00  0.00    +0.016 C 
ATOM      8  C   UNL     1      -4.960 -11.400  17.192  0.00  0.00    +0.006 C 
ATOM      9  C   UNL     1      -3.805 -10.384  17.185  0.00  0.00    +0.023 C 
ATOM     10  C   UNL     1      -4.097 -12.315  14.997  0.00  0.00    +0.112 C 
ATOM     11  C   UNL     1      -2.616 -10.905  16.381  0.00  0.00    +0.108 C 
ATOM     15  C   UNL     1      -2.407 -10.736  13.926  0.00  0.00    +0.247 C 
ENDROOT
BRANCH  15  21
ATOM     21  C   UNL     1      -2.845 -11.166  12.594  0.00  0.00    +0.037 A 
ATOM     26  C   UNL     1      -3.110 -12.514  12.347  0.00  0.00    +0.013 A 
ATOM     27  C   UNL     1      -2.999 -10.228  11.574  0.00  0.00    +0.013 A 
ATOM     28  C   UNL     1      -3.528 -12.922  11.081  0.00  0.00    +0.001 A 
ATOM     29  C   UNL     1      -3.417 -10.636  10.307  0.00  0.00    +0.001 A 
ATOM     30  C   UNL     1      -3.682 -11.984  10.061  0.00  0.00    +0.000 A 
ENDBRANCH  15  21
BRANCH   7  12
ATOM     12  C   UNL     1      -6.071 -10.745  14.952  0.00  0.00    +0.061 C 
BRANCH  12  14
ATOM      6  N   UNL     1      -7.380 -12.502  13.969  0.00  0.00    -0.287 NA
ATOM     14  C   UNL     1      -6.793 -11.367  13.780  0.00  0.00    +0.044 C 
ATOM     16  C   UNL     1      -6.788 -10.654  12.477  0.00  0.00    -0.001 A 
ATOM     18  C   UNL     1      -7.114 -11.410  11.344  0.00  0.00    -0.033 A 
ATOM     19  C   UNL     1      -7.426 -12.867  11.515  0.00  0.00    +0.059 C 
ATOM     20  C   UNL     1      -8.132 -13.077  12.848  0.00  0.00    +0.146 C 
ATOM     22  C   UNL     1      -6.465  -9.301  12.357  0.00  0.00    +0.013 A 
ATOM     23  C   UNL     1      -7.089 -10.808  10.083  0.00  0.00    +0.050 A 
ATOM     24  C   UNL     1      -6.457  -8.705  11.095  0.00  0.00    +0.046 A 
ATOM     25  C   UNL     1      -6.765  -9.456   9.961  0.00  0.00    +0.120 A 
BRANCH  25   4
ATOM      4  O   UNL     1      -6.748  -8.870   8.733  0.00  0.00    -0.495 OA
ATOM     31  C   UNL     1      -6.640  -9.734   7.603  0.00  0.00    +0.277 C 
ENDBRANCH  25   4
ENDBRANCH  12  14
ENDBRANCH   7  12
BRANCH   8  13
ATOM     13  C   UNL     1      -6.143 -10.866  17.999  0.00  0.00    +0.124 C 
BRANCH  13  17
ATOM      3  O   UNL     1      -6.217 -11.164  20.418  0.00  0.00    -0.251 OA
ATOM     17  C   UNL     1      -6.321 -11.619  19.288  0.00  0.00    +0.305 C 
BRANCH  17   2
ATOM      2  O   UNL     1      -6.622 -12.916  19.022  0.00  0.00    -0.481 OA
ATOM     32  H   UNL     1      -7.534 -13.016  18.673  0.00  0.00    +0.295 HD
ENDBRANCH  17   2
ENDBRANCH  13  17
ENDBRANCH   8  13
TORSDOF 7
ENDMDL
MODEL 6
REMARK VINA RESULT:      -5.8      3.703      5.011
REMARK  Name = 51136649
REMARK  8 active torsions:
REMARK  status: ('A' for Active; 'I' for Inactive)
REMARK    1  A    between atoms: O_2  and  C_17
REMARK    2  A    between atoms: O_4  and  C_25
REMARK    3  A    between atoms: O_4  and  C_31
REMARK    4  A    between atoms: C_7  and  C_12
REMARK    5  A    between atoms: C_8  and  C_13
REMARK    6  A    between atoms: C_12  and  C_14
REMARK    7  A    between atoms: C_13  and  C_17
REMARK    8  A    between atoms: C_15  and  C_21
REMARK                            x       y       z     vdW  Elec       q    Type
REMARK                         _______ _______ _______ _____ _____    ______ ____
ROOT
ATOM      1  O   UNL     1      15.724   6.116  17.655  0.00  0.00    -0.270 OA
ATOM      5  N   UNL     1      16.325   6.545  19.874  0.00  0.00    -0.297 N 
ATOM      7  C   UNL     1      17.168   8.112  21.609  0.00  0.00    +0.016 C 
ATOM      8  C   UNL     1      18.540   7.393  21.537  0.00  0.00    +0.006 C 
ATOM      9  C   UNL     1      18.764   6.741  20.162  0.00  0.00    +0.023 C 
ATOM     10  C   UNL     1      16.046   7.146  21.186  0.00  0.00    +0.112 C 
ATOM     11  C   UNL     1      17.597   5.831  19.785  0.00  0.00    +0.108 C 
ATOM     15  C   UNL     1      15.493   6.613  18.756  0.00  0.00    +0.247 C 
ENDROOT
BRANCH  15  21
ATOM     21  C   UNL     1      14.223   7.338  18.883  0.00  0.00    +0.037 A 
ATOM     26  C   UNL     1      13.220   6.847  19.719  0.00  0.00    +0.013 A 
ATOM     27  C   UNL     1      14.021   8.520  18.171  0.00  0.00    +0.013 A 
ATOM     28  C   UNL     1      12.014   7.537  19.842  0.00  0.00    +0.001 A 
ATOM     29  C   UNL     1      12.814   9.210  18.293  0.00  0.00    +0.001 A 
ATOM     30  C   UNL     1      11.811   8.718  19.129  0.00  0.00    +0.000 A 
ENDBRANCH  15  21
BRANCH   7  12
ATOM     12  C   UNL     1      17.099   9.403  20.784  0.00  0.00    +0.061 C 
BRANCH  12  14
ATOM      6  N   UNL     1      17.814  11.307  22.061  0.00  0.00    -0.287 NA
ATOM     14  C   UNL     1      16.815  10.576  21.692  0.00  0.00    +0.044 C 
ATOM     16  C   UNL     1      15.414  10.828  22.118  0.00  0.00    -0.001 A 
ATOM     18  C   UNL     1      15.234  11.653  23.235  0.00  0.00    -0.033 A 
ATOM     19  C   UNL     1      16.446  12.206  23.926  0.00  0.00    +0.059 C 
ATOM     20  C   UNL     1      17.531  12.481  22.893  0.00  0.00    +0.146 C 
ATOM     22  C   UNL     1      14.314  10.272  21.463  0.00  0.00    +0.013 A 
ATOM     23  C   UNL     1      13.943  11.897  23.712  0.00  0.00    +0.050 A 
ATOM     24  C   UNL     1      13.027  10.533  21.937  0.00  0.00    +0.046 A 
ATOM     25  C   UNL     1      12.842  11.341  23.059  0.00  0.00    +0.120 A 
BRANCH  25   4
ATOM      4  O   UNL     1      11.585  11.586  23.520  0.00  0.00    -0.495 OA
ATOM     31  C   UNL     1      11.371  11.453  24.924  0.00  0.00    +0.277 C 
ENDBRANCH  25   4
ENDBRANCH  12  14
ENDBRANCH   7  12
BRANCH   8  13
ATOM     13  C   UNL     1      19.715   8.301  21.901  0.00  0.00    +0.124 C 
BRANCH  13  17
ATOM      3  O   UNL     1      20.318   7.472  24.113  0.00  0.00    -0.251 OA
ATOM     17  C   UNL     1      19.920   8.372  23.388  0.00  0.00    +0.305 C 
BRANCH  17   2
ATOM      2  O   UNL     1      19.592   9.612  23.836  0.00  0.00    -0.481 OA
ATOM     32  H   UNL     1      19.897   9.761  24.756  0.00  0.00    +0.295 HD
ENDBRANCH  17   2
ENDBRANCH  13  17
ENDBRANCH   8  13
TORSDOF 7
ENDMDL
MODEL 7
REMARK VINA RESULT:      -5.7     12.792     16.451
REMARK  Name = 51136649
REMARK  8 active torsions:
REMARK  status: ('A' for Active; 'I' for Inactive)
REMARK    1  A    between atoms: O_2  and  C_17
REMARK    2  A    between atoms: O_4  and  C_25
REMARK    3  A    between atoms: O_4  and  C_31
REMARK    4  A    between atoms: C_7  and  C_12
REMARK    5  A    between atoms: C_8  and  C_13
REMARK    6  A    between atoms: C_12  and  C_14
REMARK    7  A    between atoms: C_13  and  C_17
REMARK    8  A    between atoms: C_15  and  C_21
REMARK                            x       y       z     vdW  Elec       q    Type
REMARK                         _______ _______ _______ _____ _____    ______ ____
ROOT
ATOM      1  O   UNL     1      11.139  10.513   1.349  0.00  0.00    -0.270 OA
ATOM      5  N   UNL     1      11.269   8.178   1.321  0.00  0.00    -0.297 N 
ATOM      7  C   UNL     1      11.937   6.049   2.414  0.00  0.00    +0.016 C 
ATOM      8  C   UNL     1      13.146   5.976   1.446  0.00  0.00    +0.006 C 
ATOM      9  C   UNL     1      13.571   7.374   0.966  0.00  0.00    +0.023 C 
ATOM     10  C   UNL     1      10.798   6.861   1.771  0.00  0.00    +0.112 C 
ATOM     11  C   UNL     1      12.387   8.141   0.380  0.00  0.00    +0.108 C 
ATOM     15  C   UNL     1      10.744   9.409   1.719  0.00  0.00    +0.247 C 
ENDROOT
BRANCH  15  21
ATOM     21  C   UNL     1       9.622   9.407   2.665  0.00  0.00    +0.037 A 
ATOM     26  C   UNL     1       9.566  10.359   3.683  0.00  0.00    +0.013 A 
ATOM     27  C   UNL     1       8.611   8.455   2.544  0.00  0.00    +0.013 A 
ATOM     28  C   UNL     1       8.498  10.358   4.581  0.00  0.00    +0.001 A 
ATOM     29  C   UNL     1       7.543   8.453   3.442  0.00  0.00    +0.001 A 
ATOM     30  C   UNL     1       7.486   9.405   4.461  0.00  0.00    +0.000 A 
ENDBRANCH  15  21
BRANCH   7  12
ATOM     12  C   UNL     1      12.282   6.616   3.796  0.00  0.00    +0.061 C 
BRANCH  12  14
ATOM      6  N   UNL     1      10.686   5.063   4.695  0.00  0.00    -0.287 NA
ATOM     14  C   UNL     1      11.205   6.242   4.787  0.00  0.00    +0.044 C 
ATOM     16  C   UNL     1      10.794   7.240   5.807  0.00  0.00    -0.001 A 
ATOM     18  C   UNL     1       9.563   7.024   6.441  0.00  0.00    -0.033 A 
ATOM     19  C   UNL     1       8.749   5.827   6.044  0.00  0.00    +0.059 C 
ATOM     20  C   UNL     1       9.683   4.677   5.694  0.00  0.00    +0.146 C 
ATOM     22  C   UNL     1      11.569   8.356   6.128  0.00  0.00    +0.013 A 
ATOM     23  C   UNL     1       9.099   7.947   7.381  0.00  0.00    +0.050 A 
ATOM     24  C   UNL     1      11.104   9.265   7.080  0.00  0.00    +0.046 A 
ATOM     25  C   UNL     1       9.872   9.064   7.703  0.00  0.00    +0.120 A 
BRANCH  25   4
ATOM      4  O   UNL     1       9.423   9.958   8.624  0.00  0.00    -0.495 OA
ATOM     31  C   UNL     1       9.418  11.333   8.244  0.00  0.00    +0.277 C 
ENDBRANCH  25   4
ENDBRANCH  12  14
ENDBRANCH   7  12
BRANCH   8  13
ATOM     13  C   UNL     1      14.340   5.221   2.029  0.00  0.00    +0.124 C 
BRANCH  13  17
ATOM      3  O   UNL     1      13.352   3.164   1.169  0.00  0.00    -0.251 OA
ATOM     17  C   UNL     1      14.275   3.752   1.713  0.00  0.00    +0.305 C 
BRANCH  17   2
ATOM      2  O   UNL     1      15.418   3.145   2.126  0.00  0.00    -0.481 OA
ATOM     32  H   UNL     1      15.265   2.208   2.373  0.00  0.00    +0.295 HD
ENDBRANCH  17   2
ENDBRANCH  13  17
ENDBRANCH   8  13
TORSDOF 7
ENDMDL
MODEL 8
REMARK VINA RESULT:      -5.7     25.041     28.126
REMARK  Name = 51136649
REMARK  8 active torsions:
REMARK  status: ('A' for Active; 'I' for Inactive)
REMARK    1  A    between atoms: O_2  and  C_17
REMARK    2  A    between atoms: O_4  and  C_25
REMARK    3  A    between atoms: O_4  and  C_31
REMARK    4  A    between atoms: C_7  and  C_12
REMARK    5  A    between atoms: C_8  and  C_13
REMARK    6  A    between atoms: C_12  and  C_14
REMARK    7  A    between atoms: C_13  and  C_17
REMARK    8  A    between atoms: C_15  and  C_21
REMARK                            x       y       z     vdW  Elec       q    Type
REMARK                         _______ _______ _______ _____ _____    ______ ____
ROOT
ATOM      1  O   UNL     1     -12.427  10.566  22.049  0.00  0.00    -0.270 OA
ATOM      5  N   UNL     1     -13.143   8.592  21.018  0.00  0.00    -0.297 N 
ATOM      7  C   UNL     1     -14.579   7.434  19.353  0.00  0.00    +0.016 C 
ATOM      8  C   UNL     1     -15.495   6.978  20.518  0.00  0.00    +0.006 C 
ATOM      9  C   UNL     1     -15.417   7.946  21.711  0.00  0.00    +0.023 C 
ATOM     10  C   UNL     1     -13.149   7.672  19.873  0.00  0.00    +0.112 C 
ATOM     11  C   UNL     1     -13.971   8.172  22.147  0.00  0.00    +0.108 C 
ATOM     15  C   UNL     1     -12.431   9.791  21.094  0.00  0.00    +0.247 C 
ENDROOT
BRANCH  15  21
ATOM     21  C   UNL     1     -11.610  10.180  19.942  0.00  0.00    +0.037 A 
ATOM     26  C   UNL     1     -11.853  11.388  19.288  0.00  0.00    +0.013 A 
ATOM     27  C   UNL     1     -10.586   9.342  19.502  0.00  0.00    +0.013 A 
ATOM     28  C   UNL     1     -11.071  11.758  18.194  0.00  0.00    +0.001 A 
ATOM     29  C   UNL     1      -9.804   9.712  18.407  0.00  0.00    +0.001 A 
ATOM     30  C   UNL     1     -10.046  10.921  17.753  0.00  0.00    +0.000 A 
ENDBRANCH  15  21
BRANCH   7  12
ATOM     12  C   UNL     1     -15.089   8.675  18.611  0.00  0.00    +0.061 C 
BRANCH  12  14
ATOM      6  N   UNL     1     -16.579   7.994  16.855  0.00  0.00    -0.287 NA
ATOM     14  C   UNL     1     -15.372   8.329  17.169  0.00  0.00    +0.044 C 
ATOM     16  C   UNL     1     -14.257   8.383  16.189  0.00  0.00    -0.001 A 
ATOM     18  C   UNL     1     -14.445   7.700  14.980  0.00  0.00    -0.033 A 
ATOM     19  C   UNL     1     -15.733   6.961  14.764  0.00  0.00    +0.059 C 
ATOM     20  C   UNL     1     -16.867   7.716  15.444  0.00  0.00    +0.146 C 
ATOM     22  C   UNL     1     -13.063   9.061  16.440  0.00  0.00    +0.013 A 
ATOM     23  C   UNL     1     -13.419   7.679  14.032  0.00  0.00    +0.050 A 
ATOM     24  C   UNL     1     -12.048   9.046  15.481  0.00  0.00    +0.046 A 
ATOM     25  C   UNL     1     -12.224   8.355  14.282  0.00  0.00    +0.120 A 
BRANCH  25   4
ATOM      4  O   UNL     1     -11.228   8.339  13.355  0.00  0.00    -0.495 OA
ATOM     31  C   UNL     1     -10.283   7.274  13.436  0.00  0.00    +0.277 C 
ENDBRANCH  25   4
ENDBRANCH  12  14
ENDBRANCH   7  12
BRANCH   8  13
ATOM     13  C   UNL     1     -16.947   6.762  20.093  0.00  0.00    +0.124 C 
BRANCH  13  17
ATOM      3  O   UNL     1     -17.209   4.340  20.183  0.00  0.00    -0.251 OA
ATOM     17  C   UNL     1     -17.165   5.380  19.543  0.00  0.00    +0.305 C 
BRANCH  17   2
ATOM      2  O   UNL     1     -17.310   5.443  18.194  0.00  0.00    -0.481 OA
ATOM     32  H   UNL     1     -18.041   4.869  17.878  0.00  0.00    +0.295 HD
ENDBRANCH  17   2
ENDBRANCH  13  17
ENDBRANCH   8  13
TORSDOF 7
ENDMDL
MODEL 9
REMARK VINA RESULT:      -5.6     27.511     29.920
REMARK  Name = 51136649
REMARK  8 active torsions:
REMARK  status: ('A' for Active; 'I' for Inactive)
REMARK    1  A    between atoms: O_2  and  C_17
REMARK    2  A    between atoms: O_4  and  C_25
REMARK    3  A    between atoms: O_4  and  C_31
REMARK    4  A    between atoms: C_7  and  C_12
REMARK    5  A    between atoms: C_8  and  C_13
REMARK    6  A    between atoms: C_12  and  C_14
REMARK    7  A    between atoms: C_13  and  C_17
REMARK    8  A    between atoms: C_15  and  C_21
REMARK                            x       y       z     vdW  Elec       q    Type
REMARK                         _______ _______ _______ _____ _____    ______ ____
ROOT
ATOM      1  O   UNL     1      -2.137 -10.763  16.473  0.00  0.00    -0.270 OA
ATOM      5  N   UNL     1      -4.218 -11.739  16.908  0.00  0.00    -0.297 N 
ATOM      7  C   UNL     1      -6.694 -11.564  17.019  0.00  0.00    +0.016 C 
ATOM      8  C   UNL     1      -6.580 -11.480  18.563  0.00  0.00    +0.006 C 
ATOM      9  C   UNL     1      -5.221 -10.909  19.000  0.00  0.00    +0.023 C 
ATOM     10  C   UNL     1      -5.484 -12.323  16.444  0.00  0.00    +0.112 C 
ATOM     11  C   UNL     1      -4.067 -11.678  18.361  0.00  0.00    +0.108 C 
ATOM     15  C   UNL     1      -3.196 -11.256  16.088  0.00  0.00    +0.247 C 
ENDROOT
BRANCH  15  21
ATOM     21  C   UNL     1      -3.383 -11.334  14.635  0.00  0.00    +0.037 A 
ATOM     26  C   UNL     1      -4.220 -10.424  13.989  0.00  0.00    +0.013 A 
ATOM     27  C   UNL     1      -2.723 -12.318  13.899  0.00  0.00    +0.013 A 
ATOM     28  C   UNL     1      -4.396 -10.497  12.607  0.00  0.00    +0.001 A 
ATOM     29  C   UNL     1      -2.900 -12.391  12.517  0.00  0.00    +0.001 A 
ATOM     30  C   UNL     1      -3.736 -11.481  11.871  0.00  0.00    +0.000 A 
ENDBRANCH  15  21
BRANCH   7  12
ATOM     12  C   UNL     1      -6.843 -10.201  16.333  0.00  0.00    +0.061 C 
BRANCH  12  14
ATOM      6  N   UNL     1      -8.131 -11.087  14.510  0.00  0.00    -0.287 NA
ATOM     14  C   UNL     1      -8.068 -10.203  15.449  0.00  0.00    +0.044 C 
ATOM     16  C   UNL     1      -9.130  -9.194  15.696  0.00  0.00    -0.001 A 
ATOM     18  C   UNL     1     -10.039  -8.967  14.655  0.00  0.00    -0.033 A 
ATOM     19  C   UNL     1      -9.876  -9.735  13.376  0.00  0.00    +0.059 C 
ATOM     20  C   UNL     1      -9.347 -11.129  13.690  0.00  0.00    +0.146 C 
ATOM     22  C   UNL     1      -9.230  -8.480  16.891  0.00  0.00    +0.013 A 
ATOM     23  C   UNL     1     -11.037  -8.001  14.808  0.00  0.00    +0.050 A 
ATOM     24  C   UNL     1     -10.240  -7.527  17.041  0.00  0.00    +0.046 A 
ATOM     25  C   UNL     1     -11.139  -7.286  16.002  0.00  0.00    +0.120 A 
BRANCH  25   4
ATOM      4  O   UNL     1     -12.116  -6.351  16.152  0.00  0.00    -0.495 OA
ATOM     31  C   UNL     1     -12.725  -5.852  14.963  0.00  0.00    +0.277 C 
ENDBRANCH  25   4
ENDBRANCH  12  14
ENDBRANCH   7  12
BRANCH   8  13
ATOM     13  C   UNL     1      -7.725 -10.701  19.210  0.00  0.00    +0.124 C 
BRANCH  13  17
ATOM      3  O   UNL     1      -8.916 -12.815  19.453  0.00  0.00    -0.251 OA
ATOM     17  C   UNL     1      -8.830 -11.614  19.663  0.00  0.00    +0.305 C 
BRANCH  17   2
ATOM      2  O   UNL     1      -9.753 -10.903  20.362  0.00  0.00    -0.481 OA
ATOM     32  H   UNL     1      -9.633 -11.002  21.331  0.00  0.00    +0.295 HD
ENDBRANCH  17   2
ENDBRANCH  13  17
ENDBRANCH   8  13
TORSDOF 7
ENDMDL
MODEL 10
REMARK VINA RESULT:      -5.6      2.902      5.453
REMARK  Name = 51136649
REMARK  8 active torsions:
REMARK  status: ('A' for Active; 'I' for Inactive)
REMARK    1  A    between atoms: O_2  and  C_17
REMARK    2  A    between atoms: O_4  and  C_25
REMARK    3  A    between atoms: O_4  and  C_31
REMARK    4  A    between atoms: C_7  and  C_12
REMARK    5  A    between atoms: C_8  and  C_13
REMARK    6  A    between atoms: C_12  and  C_14
REMARK    7  A    between atoms: C_13  and  C_17
REMARK    8  A    between atoms: C_15  and  C_21
REMARK                            x       y       z     vdW  Elec       q    Type
REMARK                         _______ _______ _______ _____ _____    ______ ____
ROOT
ATOM      1  O   UNL     1      11.493  10.806  23.952  0.00  0.00    -0.270 OA
ATOM      5  N   UNL     1      11.646  11.595  21.756  0.00  0.00    -0.297 N 
ATOM      7  C   UNL     1      13.009  12.080  19.735  0.00  0.00    +0.016 C 
ATOM      8  C   UNL     1      12.959  13.584  20.110  0.00  0.00    +0.006 C 
ATOM      9  C   UNL     1      12.771  13.783  21.624  0.00  0.00    +0.023 C 
ATOM     10  C   UNL     1      11.779  11.355  20.312  0.00  0.00    +0.112 C 
ATOM     11  C   UNL     1      11.563  13.004  22.138  0.00  0.00    +0.108 C 
ATOM     15  C   UNL     1      11.600  10.609  22.743  0.00  0.00    +0.247 C 
ENDROOT
BRANCH  15  21
ATOM     21  C   UNL     1      11.686   9.206  22.322  0.00  0.00    +0.037 A 
ATOM     26  C   UNL     1      12.931   8.626  22.077  0.00  0.00    +0.013 A 
ATOM     27  C   UNL     1      10.523   8.452  22.168  0.00  0.00    +0.013 A 
ATOM     28  C   UNL     1      13.013   7.292  21.678  0.00  0.00    +0.001 A 
ATOM     29  C   UNL     1      10.605   7.118  21.768  0.00  0.00    +0.001 A 
ATOM     30  C   UNL     1      11.850   6.538  21.524  0.00  0.00    +0.000 A 
ENDBRANCH  15  21
BRANCH   7  12
ATOM     12  C   UNL     1      14.298  11.373  20.171  0.00  0.00    +0.061 C 
BRANCH  12  14
ATOM      6  N   UNL     1      13.907  10.099  18.173  0.00  0.00    -0.287 NA
ATOM     14  C   UNL     1      14.542  10.167  19.296  0.00  0.00    +0.044 C 
ATOM     16  C   UNL     1      15.488   9.123  19.765  0.00  0.00    -0.001 A 
ATOM     18  C   UNL     1      15.402   7.869  19.146  0.00  0.00    -0.033 A 
ATOM     19  C   UNL     1      14.370   7.663  18.077  0.00  0.00    +0.059 C 
ATOM     20  C   UNL     1      14.189   8.959  17.296  0.00  0.00    +0.146 C 
ATOM     22  C   UNL     1      16.417   9.347  20.783  0.00  0.00    +0.013 A 
ATOM     23  C   UNL     1      16.237   6.831  19.569  0.00  0.00    +0.050 A 
ATOM     24  C   UNL     1      17.256   8.308  21.190  0.00  0.00    +0.046 A 
ATOM     25  C   UNL     1      17.165   7.053  20.587  0.00  0.00    +0.120 A 
BRANCH  25   4
ATOM      4  O   UNL     1      17.982   6.044  20.993  0.00  0.00    -0.495 OA
ATOM     31  C   UNL     1      19.170   5.826  20.234  0.00  0.00    +0.277 C 
ENDBRANCH  25   4
ENDBRANCH  12  14
ENDBRANCH   7  12
BRANCH   8  13
ATOM     13  C   UNL     1      14.172  14.369  19.610  0.00  0.00    +0.124 C 
BRANCH  13  17
ATOM      3  O   UNL     1      15.147  14.397  17.376  0.00  0.00    -0.251 OA
ATOM     17  C   UNL     1      14.175  14.489  18.112  0.00  0.00    +0.305 C 
BRANCH  17   2
ATOM      2  O   UNL     1      12.913  14.720  17.668  0.00  0.00    -0.481 OA
ATOM     32  H   UNL     1      12.324  15.034  18.388  0.00  0.00    +0.295 HD
ENDBRANCH  17   2
ENDBRANCH  13  17
ENDBRANCH   8  13
TORSDOF 7
ENDMDL
