MODEL 1
REMARK VINA RESULT:      -7.3      0.000      0.000
REMARK  Name = 51137363
REMARK  5 active torsions:
REMARK  status: ('A' for Active; 'I' for Inactive)
REMARK    1  A    between atoms: N_3  and  C_11
REMARK    2  A    between atoms: C_7  and  C_12
REMARK    3  A    between atoms: C_11  and  C_13
REMARK    4  A    between atoms: C_14  and  C_15
REMARK    5  A    between atoms: C_15  and  C_18
REMARK                            x       y       z     vdW  Elec       q    Type
REMARK                         _______ _______ _______ _____ _____    ______ ____
ROOT
ATOM      2  O   UNL     1      11.940   9.286  20.852  0.00  0.00    -0.424 OA
ATOM      4  N   UNL     1      10.692   7.619  21.669  0.00  0.00    -0.112 NA
ATOM      5  N   UNL     1      10.381   8.770  22.371  0.00  0.00    -0.112 NA
ATOM     12  C   UNL     1      11.605   7.967  20.793  0.00  0.00    +0.222 A 
ATOM     14  C   UNL     1      11.133   9.715  21.860  0.00  0.00    +0.222 A 
ENDROOT
BRANCH  12   7
ATOM      3  N   UNL     1      14.649   7.280  19.331  0.00  0.00    -0.297 NA
ATOM      7  C   UNL     1      12.316   7.127  19.756  0.00  0.00    +0.092 C 
ATOM      8  C   UNL     1      12.597   7.899  18.458  0.00  0.00    +0.029 C 
ATOM      9  C   UNL     1      13.689   6.587  20.196  0.00  0.00    +0.097 C 
ATOM     10  C   UNL     1      13.982   7.433  18.041  0.00  0.00    +0.085 C 
BRANCH   3  11
ATOM     11  C   UNL     1      15.917   6.574  19.225  0.00  0.00    +0.122 C 
BRANCH  11  13
ATOM      1  F   UNL     1      18.413   5.329  19.721  0.00  0.00    -0.205 F 
ATOM     13  C   UNL     1      16.968   7.169  20.124  0.00  0.00    +0.002 A 
ATOM     16  C   UNL     1      18.176   6.503  20.324  0.00  0.00    +0.128 A 
ATOM     17  C   UNL     1      16.732   8.390  20.755  0.00  0.00    +0.008 A 
ATOM     22  C   UNL     1      19.149   7.056  21.156  0.00  0.00    +0.038 A 
ATOM     23  C   UNL     1      17.704   8.944  21.589  0.00  0.00    +0.000 A 
ATOM     24  C   UNL     1      18.913   8.278  21.789  0.00  0.00    +0.003 A 
ENDBRANCH  11  13
ENDBRANCH   3  11
ENDBRANCH  12   7
BRANCH  14  15
ATOM     15  C   UNL     1      11.219  11.138  22.216  0.00  0.00    +0.135 C 
BRANCH  15  18
ATOM      6  N   UNL     1      12.249  11.764  25.712  0.00  0.00    -0.360 N 
ATOM     18  C   UNL     1      11.909  11.423  23.546  0.00  0.00    -0.013 A 
ATOM     19  C   UNL     1      13.296  11.665  23.746  0.00  0.00    +0.003 A 
ATOM     20  C   UNL     1      13.483  11.876  25.114  0.00  0.00    +0.047 A 
ATOM     21  C   UNL     1      11.290  11.490  24.773  0.00  0.00    +0.087 A 
ATOM     25  C   UNL     1      14.416  11.724  22.892  0.00  0.00    +0.010 A 
ATOM     26  C   UNL     1      14.738  12.145  25.672  0.00  0.00    +0.026 A 
ATOM     27  C   UNL     1      15.676  11.992  23.436  0.00  0.00    +0.001 A 
ATOM     28  C   UNL     1      15.832  12.200  24.806  0.00  0.00    +0.002 A 
ATOM     29  H   UNL     1      12.075  11.870  26.703  0.00  0.00    +0.165 HD
ENDBRANCH  15  18
ENDBRANCH  14  15
TORSDOF 5
ENDMDL
MODEL 2
REMARK VINA RESULT:      -7.2      2.582      6.845
REMARK  Name = 51137363
REMARK  5 active torsions:
REMARK  status: ('A' for Active; 'I' for Inactive)
REMARK    1  A    between atoms: N_3  and  C_11
REMARK    2  A    between atoms: C_7  and  C_12
REMARK    3  A    between atoms: C_11  and  C_13
REMARK    4  A    between atoms: C_14  and  C_15
REMARK    5  A    between atoms: C_15  and  C_18
REMARK                            x       y       z     vdW  Elec       q    Type
REMARK                         _______ _______ _______ _____ _____    ______ ____
ROOT
ATOM      2  O   UNL     1      13.905   6.864  20.051  0.00  0.00    -0.424 OA
ATOM      4  N   UNL     1      13.375   8.120  18.278  0.00  0.00    -0.112 NA
ATOM      5  N   UNL     1      14.686   7.704  18.131  0.00  0.00    -0.112 NA
ATOM     12  C   UNL     1      12.960   7.606  19.412  0.00  0.00    +0.222 A 
ATOM     14  C   UNL     1      14.951   6.974  19.188  0.00  0.00    +0.222 A 
ENDROOT
BRANCH  12   7
ATOM      3  N   UNL     1      11.238   9.028  22.037  0.00  0.00    -0.297 NA
ATOM      7  C   UNL     1      11.611   7.723  20.086  0.00  0.00    +0.092 C 
ATOM      8  C   UNL     1      11.494   6.837  21.336  0.00  0.00    +0.029 C 
ATOM      9  C   UNL     1      11.256   9.140  20.574  0.00  0.00    +0.097 C 
ATOM     10  C   UNL     1      10.722   7.693  22.327  0.00  0.00    +0.085 C 
BRANCH   3  11
ATOM     11  C   UNL     1      10.454  10.080  22.667  0.00  0.00    +0.122 C 
BRANCH  11  13
ATOM      1  F   UNL     1      11.299  12.308  21.135  0.00  0.00    -0.205 F 
ATOM     13  C   UNL     1      11.326  11.176  23.221  0.00  0.00    +0.002 A 
ATOM     16  C   UNL     1      11.706  12.245  22.410  0.00  0.00    +0.128 A 
ATOM     17  C   UNL     1      11.754  11.120  24.547  0.00  0.00    +0.008 A 
ATOM     22  C   UNL     1      12.513  13.258  22.925  0.00  0.00    +0.038 A 
ATOM     23  C   UNL     1      12.563  12.133  25.063  0.00  0.00    +0.000 A 
ATOM     24  C   UNL     1      12.942  13.203  24.252  0.00  0.00    +0.003 A 
ENDBRANCH  11  13
ENDBRANCH   3  11
ENDBRANCH  12   7
BRANCH  14  15
ATOM     15  C   UNL     1      16.190   6.276  19.556  0.00  0.00    +0.135 C 
BRANCH  15  18
ATOM      6  N   UNL     1      17.791   8.510  22.030  0.00  0.00    -0.360 N 
ATOM     18  C   UNL     1      17.083   7.032  20.533  0.00  0.00    -0.013 A 
ATOM     19  C   UNL     1      18.443   6.743  20.836  0.00  0.00    +0.003 A 
ATOM     20  C   UNL     1      18.862   7.685  21.778  0.00  0.00    +0.047 A 
ATOM     21  C   UNL     1      16.710   8.124  21.283  0.00  0.00    +0.087 A 
ATOM     25  C   UNL     1      19.360   5.766  20.399  0.00  0.00    +0.010 A 
ATOM     26  C   UNL     1      20.159   7.699  22.306  0.00  0.00    +0.026 A 
ATOM     27  C   UNL     1      20.659   5.768  20.918  0.00  0.00    +0.001 A 
ATOM     28  C   UNL     1      21.050   6.722  21.857  0.00  0.00    +0.002 A 
ATOM     29  H   UNL     1      17.800   9.290  22.675  0.00  0.00    +0.165 HD
ENDBRANCH  15  18
ENDBRANCH  14  15
TORSDOF 5
ENDMDL
MODEL 3
REMARK VINA RESULT:      -7.1      3.817      5.610
REMARK  Name = 51137363
REMARK  5 active torsions:
REMARK  status: ('A' for Active; 'I' for Inactive)
REMARK    1  A    between atoms: N_3  and  C_11
REMARK    2  A    between atoms: C_7  and  C_12
REMARK    3  A    between atoms: C_11  and  C_13
REMARK    4  A    between atoms: C_14  and  C_15
REMARK    5  A    between atoms: C_15  and  C_18
REMARK                            x       y       z     vdW  Elec       q    Type
REMARK                         _______ _______ _______ _____ _____    ______ ____
ROOT
ATOM      2  O   UNL     1      13.434   9.151  18.809  0.00  0.00    -0.424 OA
ATOM      4  N   UNL     1      12.530   9.381  16.775  0.00  0.00    -0.112 NA
ATOM      5  N   UNL     1      12.308   8.083  17.197  0.00  0.00    -0.112 NA
ATOM     12  C   UNL     1      13.189   9.967  17.747  0.00  0.00    +0.222 A 
ATOM     14  C   UNL     1      12.852   7.994  18.388  0.00  0.00    +0.222 A 
ENDROOT
BRANCH  12   7
ATOM      3  N   UNL     1      15.614  11.998  19.115  0.00  0.00    -0.297 NA
ATOM      7  C   UNL     1      13.701  11.387  17.845  0.00  0.00    +0.092 C 
ATOM      8  C   UNL     1      13.301  12.072  19.161  0.00  0.00    +0.029 C 
ATOM      9  C   UNL     1      15.233  11.525  17.780  0.00  0.00    +0.097 C 
ATOM     10  C   UNL     1      14.531  12.876  19.549  0.00  0.00    +0.085 C 
BRANCH   3  11
ATOM     11  C   UNL     1      16.910  12.661  19.124  0.00  0.00    +0.122 C 
BRANCH  11  13
ATOM      1  F   UNL     1      19.687  13.177  18.916  0.00  0.00    -0.205 F 
ATOM     13  C   UNL     1      17.953  11.847  19.841  0.00  0.00    +0.002 A 
ATOM     16  C   UNL     1      19.304  12.155  19.695  0.00  0.00    +0.128 A 
ATOM     17  C   UNL     1      17.564  10.783  20.654  0.00  0.00    +0.008 A 
ATOM     22  C   UNL     1      20.269  11.399  20.361  0.00  0.00    +0.038 A 
ATOM     23  C   UNL     1      18.528  10.025  21.320  0.00  0.00    +0.000 A 
ATOM     24  C   UNL     1      19.881  10.334  21.175  0.00  0.00    +0.003 A 
ENDBRANCH  11  13
ENDBRANCH   3  11
ENDBRANCH  12   7
BRANCH  14  15
ATOM     15  C   UNL     1      12.915   6.849  19.305  0.00  0.00    +0.135 C 
BRANCH  15  18
ATOM      6  N   UNL     1      15.150   7.201  22.230  0.00  0.00    -0.360 N 
ATOM     18  C   UNL     1      14.044   6.912  20.328  0.00  0.00    -0.013 A 
ATOM     19  C   UNL     1      15.416   6.613  20.095  0.00  0.00    +0.003 A 
ATOM     20  C   UNL     1      16.087   6.803  21.305  0.00  0.00    +0.047 A 
ATOM     21  C   UNL     1      13.912   7.270  21.650  0.00  0.00    +0.087 A 
ATOM     25  C   UNL     1      16.152   6.198  18.968  0.00  0.00    +0.010 A 
ATOM     26  C   UNL     1      17.465   6.598  21.444  0.00  0.00    +0.026 A 
ATOM     27  C   UNL     1      17.530   5.989  19.092  0.00  0.00    +0.001 A 
ATOM     28  C   UNL     1      18.175   6.187  20.312  0.00  0.00    +0.002 A 
ATOM     29  H   UNL     1      15.348   7.413  23.199  0.00  0.00    +0.165 HD
ENDBRANCH  15  18
ENDBRANCH  14  15
TORSDOF 5
ENDMDL
MODEL 4
REMARK VINA RESULT:      -7.1     27.680     30.684
REMARK  Name = 51137363
REMARK  5 active torsions:
REMARK  status: ('A' for Active; 'I' for Inactive)
REMARK    1  A    between atoms: N_3  and  C_11
REMARK    2  A    between atoms: C_7  and  C_12
REMARK    3  A    between atoms: C_11  and  C_13
REMARK    4  A    between atoms: C_14  and  C_15
REMARK    5  A    between atoms: C_15  and  C_18
REMARK                            x       y       z     vdW  Elec       q    Type
REMARK                         _______ _______ _______ _____ _____    ______ ____
ROOT
ATOM      2  O   UNL     1     -16.363   4.951  24.197  0.00  0.00    -0.424 OA
ATOM      4  N   UNL     1     -16.109   3.116  22.944  0.00  0.00    -0.112 NA
ATOM      5  N   UNL     1     -15.359   4.129  22.375  0.00  0.00    -0.112 NA
ATOM     12  C   UNL     1     -16.677   3.640  24.004  0.00  0.00    +0.222 A 
ATOM     14  C   UNL     1     -15.537   5.180  23.140  0.00  0.00    +0.222 A 
ENDROOT
BRANCH  12   7
ATOM      3  N   UNL     1     -16.903   2.302  27.171  0.00  0.00    -0.297 NA
ATOM      7  C   UNL     1     -17.607   3.005  25.014  0.00  0.00    +0.092 C 
ATOM      8  C   UNL     1     -17.454   1.477  25.080  0.00  0.00    +0.029 C 
ATOM      9  C   UNL     1     -17.407   3.483  26.463  0.00  0.00    +0.097 C 
ATOM     10  C   UNL     1     -17.573   1.157  26.561  0.00  0.00    +0.085 C 
BRANCH   3  11
ATOM     11  C   UNL     1     -17.121   2.377  28.609  0.00  0.00    +0.122 C 
BRANCH  11  13
ATOM      1  F   UNL     1     -14.842   3.939  29.233  0.00  0.00    -0.205 F 
ATOM     13  C   UNL     1     -15.945   1.844  29.384  0.00  0.00    +0.002 A 
ATOM     16  C   UNL     1     -14.855   2.668  29.656  0.00  0.00    +0.128 A 
ATOM     17  C   UNL     1     -15.950   0.522  29.830  0.00  0.00    +0.008 A 
ATOM     22  C   UNL     1     -13.767   2.172  30.374  0.00  0.00    +0.038 A 
ATOM     23  C   UNL     1     -14.862   0.025  30.548  0.00  0.00    +0.000 A 
ATOM     24  C   UNL     1     -13.771   0.849  30.821  0.00  0.00    +0.003 A 
ENDBRANCH  11  13
ENDBRANCH   3  11
ENDBRANCH  12   7
BRANCH  14  15
ATOM     15  C   UNL     1     -14.980   6.534  23.016  0.00  0.00    +0.135 C 
BRANCH  15  18
ATOM      6  N   UNL     1     -15.463   7.892  19.610  0.00  0.00    -0.360 N 
ATOM     18  C   UNL     1     -14.894   7.060  21.587  0.00  0.00    -0.013 A 
ATOM     19  C   UNL     1     -13.716   7.180  20.799  0.00  0.00    +0.003 A 
ATOM     20  C   UNL     1     -14.101   7.705  19.563  0.00  0.00    +0.047 A 
ATOM     21  C   UNL     1     -15.952   7.505  20.829  0.00  0.00    +0.087 A 
ATOM     25  C   UNL     1     -12.354   6.893  21.018  0.00  0.00    +0.010 A 
ATOM     26  C   UNL     1     -13.189   7.957  18.532  0.00  0.00    +0.026 A 
ATOM     27  C   UNL     1     -11.430   7.140  19.997  0.00  0.00    +0.001 A 
ATOM     28  C   UNL     1     -11.844   7.664  18.773  0.00  0.00    +0.002 A 
ATOM     29  H   UNL     1     -16.023   8.262  18.853  0.00  0.00    +0.165 HD
ENDBRANCH  15  18
ENDBRANCH  14  15
TORSDOF 5
ENDMDL
MODEL 5
REMARK VINA RESULT:      -7.0     26.515     29.594
REMARK  Name = 51137363
REMARK  5 active torsions:
REMARK  status: ('A' for Active; 'I' for Inactive)
REMARK    1  A    between atoms: N_3  and  C_11
REMARK    2  A    between atoms: C_7  and  C_12
REMARK    3  A    between atoms: C_11  and  C_13
REMARK    4  A    between atoms: C_14  and  C_15
REMARK    5  A    between atoms: C_15  and  C_18
REMARK                            x       y       z     vdW  Elec       q    Type
REMARK                         _______ _______ _______ _____ _____    ______ ____
ROOT
ATOM      2  O   UNL     1      -2.570 -10.185  11.885  0.00  0.00    -0.424 OA
ATOM      4  N   UNL     1      -3.285 -12.297  11.703  0.00  0.00    -0.112 NA
ATOM      5  N   UNL     1      -3.639 -11.625  10.547  0.00  0.00    -0.112 NA
ATOM     12  C   UNL     1      -2.664 -11.418  12.454  0.00  0.00    +0.222 A 
ATOM     14  C   UNL     1      -3.202 -10.397  10.698  0.00  0.00    +0.222 A 
ENDROOT
BRANCH  12   7
ATOM      3  N   UNL     1      -3.134 -10.888  15.826  0.00  0.00    -0.297 NA
ATOM      7  C   UNL     1      -2.054 -11.585  13.828  0.00  0.00    +0.092 C 
ATOM      8  C   UNL     1      -1.442 -10.283  14.367  0.00  0.00    +0.029 C 
ATOM      9  C   UNL     1      -3.041 -12.037  14.920  0.00  0.00    +0.097 C 
ATOM     10  C   UNL     1      -1.803 -10.287  15.844  0.00  0.00    +0.085 C 
BRANCH   3  11
ATOM     11  C   UNL     1      -3.597 -11.261  17.155  0.00  0.00    +0.122 C 
BRANCH  11  13
ATOM      1  F   UNL     1      -4.912 -11.621  19.638  0.00  0.00    -0.205 F 
ATOM     13  C   UNL     1      -4.972 -10.721  17.443  0.00  0.00    +0.002 A 
ATOM     16  C   UNL     1      -5.562 -10.935  18.688  0.00  0.00    +0.128 A 
ATOM     17  C   UNL     1      -5.656 -10.004  16.461  0.00  0.00    +0.008 A 
ATOM     22  C   UNL     1      -6.836 -10.433  18.952  0.00  0.00    +0.038 A 
ATOM     23  C   UNL     1      -6.931  -9.503  16.724  0.00  0.00    +0.000 A 
ATOM     24  C   UNL     1      -7.521  -9.717  17.970  0.00  0.00    +0.003 A 
ENDBRANCH  11  13
ENDBRANCH   3  11
ENDBRANCH  12   7
BRANCH  14  15
ATOM     15  C   UNL     1      -3.296  -9.251   9.784  0.00  0.00    +0.135 C 
BRANCH  15  18
ATOM      6  N   UNL     1      -6.711  -8.290   8.741  0.00  0.00    -0.360 N 
ATOM     18  C   UNL     1      -4.667  -9.053   9.147  0.00  0.00    -0.013 A 
ATOM     19  C   UNL     1      -5.183  -9.744   8.016  0.00  0.00    +0.003 A 
ATOM     20  C   UNL     1      -6.467  -9.247   7.782  0.00  0.00    +0.047 A 
ATOM     21  C   UNL     1      -5.629  -8.165   9.571  0.00  0.00    +0.087 A 
ATOM     25  C   UNL     1      -4.680 -10.749   7.166  0.00  0.00    +0.010 A 
ATOM     26  C   UNL     1      -7.276  -9.706   6.737  0.00  0.00    +0.026 A 
ATOM     27  C   UNL     1      -5.478 -11.218   6.116  0.00  0.00    +0.001 A 
ATOM     28  C   UNL     1      -6.757 -10.703   5.907  0.00  0.00    +0.002 A 
ATOM     29  H   UNL     1      -7.566  -7.756   8.821  0.00  0.00    +0.165 HD
ENDBRANCH  15  18
ENDBRANCH  14  15
TORSDOF 5
ENDMDL
MODEL 6
REMARK VINA RESULT:      -7.0     27.175     28.912
REMARK  Name = 51137363
REMARK  5 active torsions:
REMARK  status: ('A' for Active; 'I' for Inactive)
REMARK    1  A    between atoms: N_3  and  C_11
REMARK    2  A    between atoms: C_7  and  C_12
REMARK    3  A    between atoms: C_11  and  C_13
REMARK    4  A    between atoms: C_14  and  C_15
REMARK    5  A    between atoms: C_15  and  C_18
REMARK                            x       y       z     vdW  Elec       q    Type
REMARK                         _______ _______ _______ _____ _____    ______ ____
ROOT
ATOM      2  O   UNL     1      -3.246 -11.499  15.052  0.00  0.00    -0.424 OA
ATOM      4  N   UNL     1      -1.230 -10.530  15.106  0.00  0.00    -0.112 NA
ATOM      5  N   UNL     1      -1.754 -10.497  16.385  0.00  0.00    -0.112 NA
ATOM     12  C   UNL     1      -2.134 -11.124  14.362  0.00  0.00    +0.222 A 
ATOM     14  C   UNL     1      -2.930 -11.073  16.306  0.00  0.00    +0.222 A 
ENDROOT
BRANCH  12   7
ATOM      3  N   UNL     1      -3.213 -10.114  11.249  0.00  0.00    -0.297 NA
ATOM      7  C   UNL     1      -2.109 -11.440  12.883  0.00  0.00    +0.092 C 
ATOM      8  C   UNL     1      -3.401 -12.115  12.399  0.00  0.00    +0.029 C 
ATOM      9  C   UNL     1      -1.938 -10.215  11.966  0.00  0.00    +0.097 C 
ATOM     10  C   UNL     1      -3.659 -11.489  11.038  0.00  0.00    +0.085 C 
BRANCH   3  11
ATOM     11  C   UNL     1      -3.098  -9.367  10.006  0.00  0.00    +0.122 C 
BRANCH  11  13
ATOM      1  F   UNL     1      -5.213  -7.790  11.037  0.00  0.00    -0.205 F 
ATOM     13  C   UNL     1      -4.427  -9.220   9.313  0.00  0.00    +0.002 A 
ATOM     16  C   UNL     1      -5.426  -8.427   9.877  0.00  0.00    +0.128 A 
ATOM     17  C   UNL     1      -4.657  -9.878   8.106  0.00  0.00    +0.008 A 
ATOM     22  C   UNL     1      -6.656  -8.292   9.234  0.00  0.00    +0.038 A 
ATOM     23  C   UNL     1      -5.888  -9.744   7.462  0.00  0.00    +0.000 A 
ATOM     24  C   UNL     1      -6.887  -8.951   8.026  0.00  0.00    +0.003 A 
ENDBRANCH  11  13
ENDBRANCH   3  11
ENDBRANCH  12   7
BRANCH  14  15
ATOM     15  C   UNL     1      -3.926 -11.317  17.358  0.00  0.00    +0.135 C 
BRANCH  15  18
ATOM      6  N   UNL     1      -6.816  -9.238  16.359  0.00  0.00    -0.360 N 
ATOM     18  C   UNL     1      -5.256 -10.600  17.157  0.00  0.00    -0.013 A 
ATOM     19  C   UNL     1      -6.453 -10.811  17.897  0.00  0.00    +0.003 A 
ATOM     20  C   UNL     1      -7.416  -9.944  17.376  0.00  0.00    +0.047 A 
ATOM     21  C   UNL     1      -5.510  -9.627  16.218  0.00  0.00    +0.087 A 
ATOM     25  C   UNL     1      -6.811 -11.660  18.964  0.00  0.00    +0.010 A 
ATOM     26  C   UNL     1      -8.723  -9.883  17.871  0.00  0.00    +0.026 A 
ATOM     27  C   UNL     1      -8.115 -11.610  19.469  0.00  0.00    +0.001 A 
ATOM     28  C   UNL     1      -9.055 -10.733  18.929  0.00  0.00    +0.002 A 
ATOM     29  H   UNL     1      -7.273  -8.533  15.796  0.00  0.00    +0.165 HD
ENDBRANCH  15  18
ENDBRANCH  14  15
TORSDOF 5
ENDMDL
MODEL 7
REMARK VINA RESULT:      -7.0     27.938     30.762
REMARK  Name = 51137363
REMARK  5 active torsions:
REMARK  status: ('A' for Active; 'I' for Inactive)
REMARK    1  A    between atoms: N_3  and  C_11
REMARK    2  A    between atoms: C_7  and  C_12
REMARK    3  A    between atoms: C_11  and  C_13
REMARK    4  A    between atoms: C_14  and  C_15
REMARK    5  A    between atoms: C_15  and  C_18
REMARK                            x       y       z     vdW  Elec       q    Type
REMARK                         _______ _______ _______ _____ _____    ______ ____
ROOT
ATOM      2  O   UNL     1     -17.285   2.521  26.797  0.00  0.00    -0.424 OA
ATOM      4  N   UNL     1     -16.449   1.453  25.018  0.00  0.00    -0.112 NA
ATOM      5  N   UNL     1     -16.231   0.663  26.133  0.00  0.00    -0.112 NA
ATOM     12  C   UNL     1     -17.066   2.526  25.453  0.00  0.00    +0.222 A 
ATOM     14  C   UNL     1     -16.735   1.326  27.146  0.00  0.00    +0.222 A 
ENDROOT
BRANCH  12   7
ATOM      3  N   UNL     1     -16.253   4.845  23.037  0.00  0.00    -0.297 NA
ATOM      7  C   UNL     1     -17.555   3.734  24.685  0.00  0.00    +0.092 C 
ATOM      8  C   UNL     1     -16.979   5.052  25.225  0.00  0.00    +0.029 C 
ATOM      9  C   UNL     1     -17.198   3.733  23.188  0.00  0.00    +0.097 C 
ATOM     10  C   UNL     1     -16.695   5.872  23.976  0.00  0.00    +0.085 C 
BRANCH   3  11
ATOM     11  C   UNL     1     -16.180   5.334  21.668  0.00  0.00    +0.122 C 
BRANCH  11  13
ATOM      1  F   UNL     1     -15.808   7.566  19.964  0.00  0.00    -0.205 F 
ATOM     13  C   UNL     1     -14.825   5.908  21.348  0.00  0.00    +0.002 A 
ATOM     16  C   UNL     1     -14.714   7.009  20.501  0.00  0.00    +0.128 A 
ATOM     17  C   UNL     1     -13.680   5.336  21.903  0.00  0.00    +0.008 A 
ATOM     22  C   UNL     1     -13.458   7.539  20.207  0.00  0.00    +0.038 A 
ATOM     23  C   UNL     1     -12.423   5.865  21.609  0.00  0.00    +0.000 A 
ATOM     24  C   UNL     1     -12.312   6.967  20.761  0.00  0.00    +0.003 A 
ENDBRANCH  11  13
ENDBRANCH   3  11
ENDBRANCH  12   7
BRANCH  14  15
ATOM     15  C   UNL     1     -16.788   0.964  28.569  0.00  0.00    +0.135 C 
BRANCH  15  18
ATOM      6  N   UNL     1     -13.439   0.858  30.133  0.00  0.00    -0.360 N 
ATOM     18  C   UNL     1     -15.484   1.173  29.330  0.00  0.00    -0.013 A 
ATOM     19  C   UNL     1     -15.157   2.281  30.161  0.00  0.00    +0.003 A 
ATOM     20  C   UNL     1     -13.868   2.058  30.652  0.00  0.00    +0.047 A 
ATOM     21  C   UNL     1     -14.408   0.315  29.333  0.00  0.00    +0.087 A 
ATOM     25  C   UNL     1     -15.835   3.456  30.543  0.00  0.00    +0.010 A 
ATOM     26  C   UNL     1     -13.222   2.955  31.510  0.00  0.00    +0.026 A 
ATOM     27  C   UNL     1     -15.201   4.362  31.400  0.00  0.00    +0.001 A 
ATOM     28  C   UNL     1     -13.914   4.113  31.876  0.00  0.00    +0.002 A 
ATOM     29  H   UNL     1     -12.537   0.438  30.317  0.00  0.00    +0.165 HD
ENDBRANCH  15  18
ENDBRANCH  14  15
TORSDOF 5
ENDMDL
MODEL 8
REMARK VINA RESULT:      -6.9      4.898      6.850
REMARK  Name = 51137363
REMARK  5 active torsions:
REMARK  status: ('A' for Active; 'I' for Inactive)
REMARK    1  A    between atoms: N_3  and  C_11
REMARK    2  A    between atoms: C_7  and  C_12
REMARK    3  A    between atoms: C_11  and  C_13
REMARK    4  A    between atoms: C_14  and  C_15
REMARK    5  A    between atoms: C_15  and  C_18
REMARK                            x       y       z     vdW  Elec       q    Type
REMARK                         _______ _______ _______ _____ _____    ______ ____
ROOT
ATOM      2  O   UNL     1      14.133   9.716  17.371  0.00  0.00    -0.424 OA
ATOM      4  N   UNL     1      13.973   8.483  15.512  0.00  0.00    -0.112 NA
ATOM      5  N   UNL     1      13.767   7.650  16.597  0.00  0.00    -0.112 NA
ATOM     12  C   UNL     1      14.183   9.679  16.011  0.00  0.00    +0.222 A 
ATOM     14  C   UNL     1      13.869   8.413  17.659  0.00  0.00    +0.222 A 
ENDROOT
BRANCH  12   7
ATOM      3  N   UNL     1      16.598  12.029  15.293  0.00  0.00    -0.297 NA
ATOM      7  C   UNL     1      14.464  10.984  15.301  0.00  0.00    +0.092 C 
ATOM      8  C   UNL     1      14.500  12.184  16.259  0.00  0.00    +0.029 C 
ATOM      9  C   UNL     1      15.811  11.035  14.557  0.00  0.00    +0.097 C 
ATOM     10  C   UNL     1      15.642  13.041  15.738  0.00  0.00    +0.085 C 
BRANCH   3  11
ATOM     11  C   UNL     1      17.676  12.592  14.493  0.00  0.00    +0.122 C 
BRANCH  11  13
ATOM      1  F   UNL     1      18.728  13.464  16.975  0.00  0.00    -0.205 F 
ATOM     13  C   UNL     1      19.030  12.176  15.004  0.00  0.00    +0.002 A 
ATOM     16  C   UNL     1      19.486  12.643  16.236  0.00  0.00    +0.128 A 
ATOM     17  C   UNL     1      19.826  11.322  14.243  0.00  0.00    +0.008 A 
ATOM     22  C   UNL     1      20.741  12.257  16.707  0.00  0.00    +0.038 A 
ATOM     23  C   UNL     1      21.082  10.935  14.713  0.00  0.00    +0.000 A 
ATOM     24  C   UNL     1      21.539  11.401  15.946  0.00  0.00    +0.003 A 
ENDBRANCH  11  13
ENDBRANCH   3  11
ENDBRANCH  12   7
BRANCH  14  15
ATOM     15  C   UNL     1      13.737   8.061  19.079  0.00  0.00    +0.135 C 
BRANCH  15  18
ATOM      6  N   UNL     1      16.520   8.974  21.337  0.00  0.00    -0.360 N 
ATOM     18  C   UNL     1      15.017   8.209  19.894  0.00  0.00    -0.013 A 
ATOM     19  C   UNL     1      16.164   7.369  19.830  0.00  0.00    +0.003 A 
ATOM     20  C   UNL     1      17.092   7.871  20.745  0.00  0.00    +0.047 A 
ATOM     21  C   UNL     1      15.266   9.187  20.830  0.00  0.00    +0.087 A 
ATOM     25  C   UNL     1      16.503   6.226  19.079  0.00  0.00    +0.010 A 
ATOM     26  C   UNL     1      18.347   7.286  20.947  0.00  0.00    +0.026 A 
ATOM     27  C   UNL     1      17.754   5.630  19.270  0.00  0.00    +0.001 A 
ATOM     28  C   UNL     1      18.661   6.154  20.190  0.00  0.00    +0.002 A 
ATOM     29  H   UNL     1      16.963   9.546  22.045  0.00  0.00    +0.165 HD
ENDBRANCH  15  18
ENDBRANCH  14  15
TORSDOF 5
ENDMDL
MODEL 9
REMARK VINA RESULT:      -6.8      6.278      9.007
REMARK  Name = 51137363
REMARK  5 active torsions:
REMARK  status: ('A' for Active; 'I' for Inactive)
REMARK    1  A    between atoms: N_3  and  C_11
REMARK    2  A    between atoms: C_7  and  C_12
REMARK    3  A    between atoms: C_11  and  C_13
REMARK    4  A    between atoms: C_14  and  C_15
REMARK    5  A    between atoms: C_15  and  C_18
REMARK                            x       y       z     vdW  Elec       q    Type
REMARK                         _______ _______ _______ _____ _____    ______ ____
ROOT
ATOM      2  O   UNL     1      14.617  10.333  16.728  0.00  0.00    -0.424 OA
ATOM      4  N   UNL     1      13.252   9.438  15.198  0.00  0.00    -0.112 NA
ATOM      5  N   UNL     1      13.278   8.594  16.294  0.00  0.00    -0.112 NA
ATOM     12  C   UNL     1      14.047  10.439  15.496  0.00  0.00    +0.222 A 
ATOM     14  C   UNL     1      14.087   9.157  17.161  0.00  0.00    +0.222 A 
ENDROOT
BRANCH  12   7
ATOM      3  N   UNL     1      13.622  12.023  12.465  0.00  0.00    -0.297 NA
ATOM      7  C   UNL     1      14.406  11.660  14.679  0.00  0.00    +0.092 C 
ATOM      8  C   UNL     1      15.507  11.379  13.645  0.00  0.00    +0.029 C 
ATOM      9  C   UNL     1      13.243  12.253  13.863  0.00  0.00    +0.097 C 
ATOM     10  C   UNL     1      15.075  12.168  12.420  0.00  0.00    +0.085 C 
BRANCH   3  11
ATOM     11  C   UNL     1      12.942  12.923  11.546  0.00  0.00    +0.122 C 
BRANCH  11  13
ATOM      1  F   UNL     1      10.301  12.903  12.571  0.00  0.00    -0.205 F 
ATOM     13  C   UNL     1      11.793  12.246  10.846  0.00  0.00    +0.002 A 
ATOM     16  C   UNL     1      10.517  12.275  11.407  0.00  0.00    +0.128 A 
ATOM     17  C   UNL     1      12.007  11.592   9.633  0.00  0.00    +0.008 A 
ATOM     22  C   UNL     1       9.454  11.648  10.756  0.00  0.00    +0.038 A 
ATOM     23  C   UNL     1      10.945  10.964   8.982  0.00  0.00    +0.000 A 
ATOM     24  C   UNL     1       9.668  10.992   9.543  0.00  0.00    +0.003 A 
ENDBRANCH  11  13
ENDBRANCH   3  11
ENDBRANCH  12   7
BRANCH  14  15
ATOM     15  C   UNL     1      14.485   8.704  18.500  0.00  0.00    +0.135 C 
BRANCH  15  18
ATOM      6  N   UNL     1      11.952   6.542  20.108  0.00  0.00    -0.360 N 
ATOM     18  C   UNL     1      13.372   8.051  19.311  0.00  0.00    -0.013 A 
ATOM     19  C   UNL     1      12.557   8.681  20.292  0.00  0.00    +0.003 A 
ATOM     20  C   UNL     1      11.675   7.713  20.776  0.00  0.00    +0.047 A 
ATOM     21  C   UNL     1      12.976   6.736  19.219  0.00  0.00    +0.087 A 
ATOM     25  C   UNL     1      12.484   9.987  20.817  0.00  0.00    +0.010 A 
ATOM     26  C   UNL     1      10.720   7.986  21.763  0.00  0.00    +0.026 A 
ATOM     27  C   UNL     1      11.535  10.275  21.803  0.00  0.00    +0.001 A 
ATOM     28  C   UNL     1      10.667   9.288  22.268  0.00  0.00    +0.002 A 
ATOM     29  H   UNL     1      11.469   5.665  20.252  0.00  0.00    +0.165 HD
ENDBRANCH  15  18
ENDBRANCH  14  15
TORSDOF 5
ENDMDL
MODEL 10
REMARK VINA RESULT:      -6.8     26.807     29.819
REMARK  Name = 51137363
REMARK  5 active torsions:
REMARK  status: ('A' for Active; 'I' for Inactive)
REMARK    1  A    between atoms: N_3  and  C_11
REMARK    2  A    between atoms: C_7  and  C_12
REMARK    3  A    between atoms: C_11  and  C_13
REMARK    4  A    between atoms: C_14  and  C_15
REMARK    5  A    between atoms: C_15  and  C_18
REMARK                            x       y       z     vdW  Elec       q    Type
REMARK                         _______ _______ _______ _____ _____    ______ ____
ROOT
ATOM      2  O   UNL     1     -15.819   5.277  22.636  0.00  0.00    -0.424 OA
ATOM      4  N   UNL     1     -14.152   4.404  23.846  0.00  0.00    -0.112 NA
ATOM      5  N   UNL     1     -13.594   5.130  22.809  0.00  0.00    -0.112 NA
ATOM     12  C   UNL     1     -15.452   4.518  23.705  0.00  0.00    +0.222 A 
ATOM     14  C   UNL     1     -14.603   5.621  22.130  0.00  0.00    +0.222 A 
ENDROOT
BRANCH  12   7
ATOM      3  N   UNL     1     -16.256   3.179  26.776  0.00  0.00    -0.297 NA
ATOM      7  C   UNL     1     -16.567   3.938  24.546  0.00  0.00    +0.092 C 
ATOM      8  C   UNL     1     -16.523   2.403  24.612  0.00  0.00    +0.029 C 
ATOM      9  C   UNL     1     -16.568   4.394  26.017  0.00  0.00    +0.097 C 
ATOM     10  C   UNL     1     -16.893   2.083  26.050  0.00  0.00    +0.085 C 
BRANCH   3  11
ATOM     11  C   UNL     1     -16.693   3.259  28.163  0.00  0.00    +0.122 C 
BRANCH  11  13
ATOM      1  F   UNL     1     -17.044   0.562  28.953  0.00  0.00    -0.205 F 
ATOM     13  C   UNL     1     -15.747   2.545  29.091  0.00  0.00    +0.002 A 
ATOM     16  C   UNL     1     -15.980   1.215  29.440  0.00  0.00    +0.128 A 
ATOM     17  C   UNL     1     -14.636   3.216  29.602  0.00  0.00    +0.008 A 
ATOM     22  C   UNL     1     -15.102   0.555  30.300  0.00  0.00    +0.038 A 
ATOM     23  C   UNL     1     -13.758   2.557  30.463  0.00  0.00    +0.000 A 
ATOM     24  C   UNL     1     -13.990   1.226  30.812  0.00  0.00    +0.003 A 
ENDBRANCH  11  13
ENDBRANCH   3  11
ENDBRANCH  12   7
BRANCH  14  15
ATOM     15  C   UNL     1     -14.601   6.470  20.932  0.00  0.00    +0.135 C 
BRANCH  15  18
ATOM      6  N   UNL     1     -12.831   9.621  21.717  0.00  0.00    -0.360 N 
ATOM     18  C   UNL     1     -13.709   7.703  21.026  0.00  0.00    -0.013 A 
ATOM     19  C   UNL     1     -12.632   8.038  20.158  0.00  0.00    +0.003 A 
ATOM     20  C   UNL     1     -12.098   9.246  20.615  0.00  0.00    +0.047 A 
ATOM     21  C   UNL     1     -13.807   8.696  21.974  0.00  0.00    +0.087 A 
ATOM     25  C   UNL     1     -12.057   7.428  19.026  0.00  0.00    +0.010 A 
ATOM     26  C   UNL     1     -11.015   9.876  19.991  0.00  0.00    +0.026 A 
ATOM     27  C   UNL     1     -10.974   8.046  18.392  0.00  0.00    +0.001 A 
ATOM     28  C   UNL     1     -10.462   9.252  18.870  0.00  0.00    +0.002 A 
ATOM     29  H   UNL     1     -12.672  10.460  22.259  0.00  0.00    +0.165 HD
ENDBRANCH  15  18
ENDBRANCH  14  15
TORSDOF 5
ENDMDL
