MODEL 1
REMARK VINA RESULT:      -6.7      0.000      0.000
REMARK  Name = 38026862
REMARK  13 active torsions:
REMARK  status: ('A' for Active; 'I' for Inactive)
REMARK    1  A    between atoms: S_1  and  N_7
REMARK    2  A    between atoms: S_1  and  C_27
REMARK    3  A    between atoms: O_6  and  C_34
REMARK    4  A    between atoms: O_6  and  C_35
REMARK    5  A    between atoms: N_7  and  C_17
REMARK    6  A    between atoms: C_10  and  C_14
REMARK    7  A    between atoms: C_11  and  C_17
REMARK    8  A    between atoms: C_13  and  C_18
REMARK    9  A    between atoms: C_14  and  C_19
REMARK   10  A    between atoms: C_14  and  C_20
REMARK   11  A    between atoms: C_15  and  C_21
REMARK   12  A    between atoms: C_18  and  C_22
REMARK   13  A    between atoms: C_28  and  C_31
REMARK                            x       y       z     vdW  Elec       q    Type
REMARK                         _______ _______ _______ _____ _____    ______ ____
ROOT
ATOM     10  C   UNL     1      -9.032 -10.170  15.714  0.00  0.00    +0.000 C 
ATOM     11  C   UNL     1      -8.747  -9.477  17.069  0.00  0.00    +0.030 C 
ATOM     12  C   UNL     1      -9.199  -9.124  14.601  0.00  0.00    +0.012 C 
ATOM     13  C   UNL     1     -10.345  -8.137  14.895  0.00  0.00    +0.023 C 
ATOM     15  C   UNL     1     -10.283  -7.611  16.315  0.00  0.00    -0.073 C 
ATOM     16  C   UNL     1      -9.553  -8.215  17.270  0.00  0.00    -0.023 C 
ATOM     21  C   UNL     1     -11.045  -6.347  16.602  0.00  0.00    +0.039 C 
ENDROOT
BRANCH  10  14
ATOM     14  C   UNL     1      -7.924 -11.158  15.336  0.00  0.00    -0.013 C 
ATOM     19  C   UNL     1      -8.508 -12.548  15.102  0.00  0.00    +0.007 C 
ATOM     20  C   UNL     1      -7.177 -10.671  14.098  0.00  0.00    +0.007 C 
ENDBRANCH  10  14
BRANCH  11  17
ATOM     17  C   UNL     1      -8.993 -10.432  18.242  0.00  0.00    +0.113 C 
BRANCH  17   7
ATOM      7  N   UNL     1      -7.894 -10.296  19.212  0.00  0.00    -0.189 NA
ATOM     36  H   UNL     1      -7.496  -9.354  19.316  0.00  0.00    +0.148 HD
BRANCH   7   1
ATOM      1  S   UNL     1      -6.871 -11.617  19.540  0.00  0.00    +0.058 S 
ATOM      3  O   UNL     1      -7.635 -12.847  19.455  0.00  0.00    -0.153 OA
ATOM      4  O   UNL     1      -6.084 -11.327  20.723  0.00  0.00    -0.153 OA
BRANCH   1  27
ATOM     27  C   UNL     1      -5.766 -11.567  18.161  0.00  0.00    +0.105 A 
ATOM     29  C   UNL     1      -5.206 -10.354  17.761  0.00  0.00    +0.032 A 
ATOM     30  C   UNL     1      -5.456 -12.739  17.472  0.00  0.00    +0.032 A 
ATOM     32  C   UNL     1      -4.336 -10.313  16.670  0.00  0.00    +0.047 A 
ATOM     33  C   UNL     1      -4.586 -12.698  16.381  0.00  0.00    +0.047 A 
ATOM     34  C   UNL     1      -4.026 -11.485  15.982  0.00  0.00    +0.120 A 
BRANCH  34   6
ATOM      6  O   UNL     1      -3.178 -11.445  14.918  0.00  0.00    -0.495 OA
ATOM     35  C   UNL     1      -1.782 -11.378  15.203  0.00  0.00    +0.277 C 
ENDBRANCH  34   6
ENDBRANCH   1  27
ENDBRANCH   7   1
ENDBRANCH  17   7
ENDBRANCH  11  17
BRANCH  13  18
ATOM     18  C   UNL     1     -11.709  -8.772  14.604  0.00  0.00    +0.103 C 
BRANCH  18  22
ATOM      2  O   UNL     1     -11.734  -9.222  12.278  0.00  0.00    -0.276 OA
ATOM      5  O   UNL     1     -14.847  -2.842  13.110  0.00  0.00    -0.276 OA
ATOM      8  N   UNL     1     -12.922  -7.356  12.985  0.00  0.00    -0.298 N 
ATOM      9  N   UNL     1     -13.605  -4.670  12.396  0.00  0.00    -0.299 N 
ATOM     22  C   UNL     1     -12.118  -8.478  13.184  0.00  0.00    +0.216 C 
ATOM     23  C   UNL     1     -13.360  -7.000  11.634  0.00  0.00    +0.126 C 
ATOM     24  C   UNL     1     -13.457  -6.494  14.047  0.00  0.00    +0.126 C 
ATOM     25  C   UNL     1     -13.069  -5.532  11.334  0.00  0.00    +0.126 C 
ATOM     26  C   UNL     1     -13.166  -5.026  13.748  0.00  0.00    +0.126 C 
ATOM     28  C   UNL     1     -14.410  -3.549  12.199  0.00  0.00    +0.213 C 
ATOM     31  C   UNL     1     -14.753  -3.209  10.772  0.00  0.00    +0.109 C 
ENDBRANCH  18  22
ENDBRANCH  13  18
TORSDOF 8
ENDMDL
MODEL 2
REMARK VINA RESULT:      -6.6     26.160     29.231
REMARK  Name = 38026862
REMARK  13 active torsions:
REMARK  status: ('A' for Active; 'I' for Inactive)
REMARK    1  A    between atoms: S_1  and  N_7
REMARK    2  A    between atoms: S_1  and  C_27
REMARK    3  A    between atoms: O_6  and  C_34
REMARK    4  A    between atoms: O_6  and  C_35
REMARK    5  A    between atoms: N_7  and  C_17
REMARK    6  A    between atoms: C_10  and  C_14
REMARK    7  A    between atoms: C_11  and  C_17
REMARK    8  A    between atoms: C_13  and  C_18
REMARK    9  A    between atoms: C_14  and  C_19
REMARK   10  A    between atoms: C_14  and  C_20
REMARK   11  A    between atoms: C_15  and  C_21
REMARK   12  A    between atoms: C_18  and  C_22
REMARK   13  A    between atoms: C_28  and  C_31
REMARK                            x       y       z     vdW  Elec       q    Type
REMARK                         _______ _______ _______ _____ _____    ______ ____
ROOT
ATOM     10  C   UNL     1       9.405   9.208   2.739  0.00  0.00    +0.000 C 
ATOM     11  C   UNL     1       8.295   9.450   3.790  0.00  0.00    +0.030 C 
ATOM     12  C   UNL     1       9.278   7.799   2.138  0.00  0.00    +0.012 C 
ATOM     13  C   UNL     1       9.374   6.697   3.211  0.00  0.00    +0.023 C 
ATOM     15  C   UNL     1       8.501   7.004   4.411  0.00  0.00    -0.073 C 
ATOM     16  C   UNL     1       8.016   8.237   4.646  0.00  0.00    -0.023 C 
ATOM     21  C   UNL     1       8.158   5.849   5.311  0.00  0.00    +0.039 C 
ENDROOT
BRANCH  10  14
ATOM     14  C   UNL     1       9.367  10.254   1.620  0.00  0.00    -0.013 C 
ATOM     19  C   UNL     1      10.424   9.942   0.564  0.00  0.00    +0.007 C 
ATOM     20  C   UNL     1       7.978  10.312   0.993  0.00  0.00    +0.007 C 
ENDBRANCH  10  14
BRANCH  11  17
ATOM     17  C   UNL     1       8.636  10.642   4.691  0.00  0.00    +0.113 C 
BRANCH  17   7
ATOM      7  N   UNL     1      10.002  10.477   5.212  0.00  0.00    -0.189 NA
ATOM     36  H   UNL     1      10.634   9.892   4.651  0.00  0.00    +0.148 HD
BRANCH   7   1
ATOM      1  S   UNL     1      10.296  10.557   6.888  0.00  0.00    +0.058 S 
ATOM      3  O   UNL     1       9.154  11.163   7.546  0.00  0.00    -0.153 OA
ATOM      4  O   UNL     1      11.630  11.080   7.112  0.00  0.00    -0.153 OA
BRANCH   1  27
ATOM     27  C   UNL     1      10.332   8.845   7.329  0.00  0.00    +0.105 A 
ATOM     29  C   UNL     1      11.409   8.048   6.940  0.00  0.00    +0.032 A 
ATOM     30  C   UNL     1       9.284   8.291   8.062  0.00  0.00    +0.032 A 
ATOM     32  C   UNL     1      11.437   6.697   7.285  0.00  0.00    +0.047 A 
ATOM     33  C   UNL     1       9.311   6.939   8.407  0.00  0.00    +0.047 A 
ATOM     34  C   UNL     1      10.388   6.143   8.019  0.00  0.00    +0.120 A 
BRANCH  34   6
ATOM      6  O   UNL     1      10.415   4.825   8.355  0.00  0.00    -0.495 OA
ATOM     35  C   UNL     1       9.421   4.366   9.270  0.00  0.00    +0.277 C 
ENDBRANCH  34   6
ENDBRANCH   1  27
ENDBRANCH   7   1
ENDBRANCH  17   7
ENDBRANCH  11  17
BRANCH  13  18
ATOM     18  C   UNL     1      10.828   6.465   3.636  0.00  0.00    +0.103 C 
BRANCH  18  22
ATOM      2  O   UNL     1      10.826   4.099   3.514  0.00  0.00    -0.276 OA
ATOM      5  O   UNL     1      16.376   6.293  -0.417  0.00  0.00    -0.276 OA
ATOM      8  N   UNL     1      12.319   5.206   2.123  0.00  0.00    -0.298 N 
ATOM      9  N   UNL     1      14.929   5.184   1.022  0.00  0.00    -0.299 N 
ATOM     22  C   UNL     1      11.317   5.148   3.091  0.00  0.00    +0.216 C 
ATOM     23  C   UNL     1      12.850   3.970   1.545  0.00  0.00    +0.126 C 
ATOM     24  C   UNL     1      12.872   6.437   1.544  0.00  0.00    +0.126 C 
ATOM     25  C   UNL     1      14.376   3.953   1.601  0.00  0.00    +0.126 C 
ATOM     26  C   UNL     1      14.397   6.421   1.601  0.00  0.00    +0.126 C 
ATOM     28  C   UNL     1      15.929   5.244   0.053  0.00  0.00    +0.213 C 
ATOM     31  C   UNL     1      16.475   3.926  -0.434  0.00  0.00    +0.109 C 
ENDBRANCH  18  22
ENDBRANCH  13  18
TORSDOF 8
ENDMDL
MODEL 3
REMARK VINA RESULT:      -6.5     25.839     29.011
REMARK  Name = 38026862
REMARK  13 active torsions:
REMARK  status: ('A' for Active; 'I' for Inactive)
REMARK    1  A    between atoms: S_1  and  N_7
REMARK    2  A    between atoms: S_1  and  C_27
REMARK    3  A    between atoms: O_6  and  C_34
REMARK    4  A    between atoms: O_6  and  C_35
REMARK    5  A    between atoms: N_7  and  C_17
REMARK    6  A    between atoms: C_10  and  C_14
REMARK    7  A    between atoms: C_11  and  C_17
REMARK    8  A    between atoms: C_13  and  C_18
REMARK    9  A    between atoms: C_14  and  C_19
REMARK   10  A    between atoms: C_14  and  C_20
REMARK   11  A    between atoms: C_15  and  C_21
REMARK   12  A    between atoms: C_18  and  C_22
REMARK   13  A    between atoms: C_28  and  C_31
REMARK                            x       y       z     vdW  Elec       q    Type
REMARK                         _______ _______ _______ _____ _____    ______ ____
ROOT
ATOM     10  C   UNL     1      12.920   7.585   5.045  0.00  0.00    +0.000 C 
ATOM     11  C   UNL     1      12.226   8.899   4.611  0.00  0.00    +0.030 C 
ATOM     12  C   UNL     1      13.919   7.126   3.973  0.00  0.00    +0.012 C 
ATOM     13  C   UNL     1      13.244   6.894   2.607  0.00  0.00    +0.023 C 
ATOM     15  C   UNL     1      12.326   8.039   2.232  0.00  0.00    -0.073 C 
ATOM     16  C   UNL     1      11.892   8.934   3.139  0.00  0.00    -0.023 C 
ATOM     21  C   UNL     1      11.954   8.161   0.780  0.00  0.00    +0.039 C 
ENDROOT
BRANCH  10  14
ATOM     14  C   UNL     1      13.636   7.737   6.391  0.00  0.00    -0.013 C 
ATOM     19  C   UNL     1      13.236   6.609   7.337  0.00  0.00    +0.007 C 
ATOM     20  C   UNL     1      15.147   7.762   6.189  0.00  0.00    +0.007 C 
ENDBRANCH  10  14
BRANCH  11  17
ATOM     17  C   UNL     1      10.954   9.151   5.429  0.00  0.00    +0.113 C 
BRANCH  17   7
ATOM      7  N   UNL     1       9.831   9.396   4.509  0.00  0.00    -0.189 NA
ATOM     36  H   UNL     1       9.665  10.376   4.248  0.00  0.00    +0.148 HD
BRANCH   7   1
ATOM      1  S   UNL     1       8.490   8.347   4.494  0.00  0.00    +0.058 S 
ATOM      3  O   UNL     1       8.445   7.646   3.224  0.00  0.00    -0.153 OA
ATOM      4  O   UNL     1       7.323   9.060   4.976  0.00  0.00    -0.153 OA
BRANCH   1  27
ATOM     27  C   UNL     1       8.933   7.179   5.745  0.00  0.00    +0.105 A 
ATOM     29  C   UNL     1       8.634   7.442   7.081  0.00  0.00    +0.032 A 
ATOM     30  C   UNL     1       9.583   5.996   5.396  0.00  0.00    +0.032 A 
ATOM     32  C   UNL     1       8.986   6.522   8.069  0.00  0.00    +0.047 A 
ATOM     33  C   UNL     1       9.935   5.075   6.384  0.00  0.00    +0.047 A 
ATOM     34  C   UNL     1       9.636   5.339   7.720  0.00  0.00    +0.120 A 
BRANCH  34   6
ATOM      6  O   UNL     1       9.979   4.442   8.684  0.00  0.00    -0.495 OA
ATOM     35  C   UNL     1       9.432   4.645   9.986  0.00  0.00    +0.277 C 
ENDBRANCH  34   6
ENDBRANCH   1  27
ENDBRANCH   7   1
ENDBRANCH  17   7
ENDBRANCH  11  17
BRANCH  13  18
ATOM     18  C   UNL     1      12.492   5.558   2.584  0.00  0.00    +0.103 C 
BRANCH  18  22
ATOM      2  O   UNL     1      14.311   4.311   1.716  0.00  0.00    -0.276 OA
ATOM      5  O   UNL     1       9.116   3.933  -3.179  0.00  0.00    -0.276 OA
ATOM      8  N   UNL     1      12.314   4.188   0.537  0.00  0.00    -0.298 N 
ATOM      9  N   UNL     1      11.130   4.109  -2.036  0.00  0.00    -0.299 N 
ATOM     22  C   UNL     1      13.127   4.630   1.579  0.00  0.00    +0.216 C 
ATOM     23  C   UNL     1      12.856   3.286  -0.482  0.00  0.00    +0.126 C 
ATOM     24  C   UNL     1      10.884   4.489   0.387  0.00  0.00    +0.126 C 
ATOM     25  C   UNL     1      12.560   3.808  -1.886  0.00  0.00    +0.126 C 
ATOM     26  C   UNL     1      10.588   5.011  -1.016  0.00  0.00    +0.126 C 
ATOM     28  C   UNL     1      10.316   3.665  -3.076  0.00  0.00    +0.213 C 
ATOM     31  C   UNL     1      10.971   2.803  -4.124  0.00  0.00    +0.109 C 
ENDBRANCH  18  22
ENDBRANCH  13  18
TORSDOF 8
ENDMDL
MODEL 4
REMARK VINA RESULT:      -6.5     26.176     29.122
REMARK  Name = 38026862
REMARK  13 active torsions:
REMARK  status: ('A' for Active; 'I' for Inactive)
REMARK    1  A    between atoms: S_1  and  N_7
REMARK    2  A    between atoms: S_1  and  C_27
REMARK    3  A    between atoms: O_6  and  C_34
REMARK    4  A    between atoms: O_6  and  C_35
REMARK    5  A    between atoms: N_7  and  C_17
REMARK    6  A    between atoms: C_10  and  C_14
REMARK    7  A    between atoms: C_11  and  C_17
REMARK    8  A    between atoms: C_13  and  C_18
REMARK    9  A    between atoms: C_14  and  C_19
REMARK   10  A    between atoms: C_14  and  C_20
REMARK   11  A    between atoms: C_15  and  C_21
REMARK   12  A    between atoms: C_18  and  C_22
REMARK   13  A    between atoms: C_28  and  C_31
REMARK                            x       y       z     vdW  Elec       q    Type
REMARK                         _______ _______ _______ _____ _____    ______ ____
ROOT
ATOM     10  C   UNL     1       8.934   8.524   4.814  0.00  0.00    +0.000 C 
ATOM     11  C   UNL     1       8.595   9.173   6.178  0.00  0.00    +0.030 C 
ATOM     12  C   UNL     1       8.457   7.064   4.781  0.00  0.00    +0.012 C 
ATOM     13  C   UNL     1       9.098   6.216   5.897  0.00  0.00    +0.023 C 
ATOM     15  C   UNL     1       9.040   6.917   7.239  0.00  0.00    -0.073 C 
ATOM     16  C   UNL     1       8.800   8.237   7.346  0.00  0.00    -0.023 C 
ATOM     21  C   UNL     1       9.218   6.058   8.460  0.00  0.00    +0.039 C 
ENDROOT
BRANCH  10  14
ATOM     14  C   UNL     1       8.315   9.299   3.646  0.00  0.00    -0.013 C 
ATOM     19  C   UNL     1       8.514   8.539   2.338  0.00  0.00    +0.007 C 
ATOM     20  C   UNL     1       6.833   9.552   3.902  0.00  0.00    +0.007 C 
ENDBRANCH  10  14
BRANCH  11  17
ATOM     17  C   UNL     1       9.409  10.452   6.401  0.00  0.00    +0.113 C 
BRANCH  17   7
ATOM      7  N   UNL     1      10.072  10.379   7.713  0.00  0.00    -0.189 NA
ATOM     36  H   UNL     1       9.457  10.245   8.524  0.00  0.00    +0.148 HD
BRANCH   7   1
ATOM      1  S   UNL     1      11.544  11.194   7.976  0.00  0.00    +0.058 S 
ATOM      3  O   UNL     1      11.805  11.263   9.401  0.00  0.00    -0.153 OA
ATOM      4  O   UNL     1      11.571  12.399   7.169  0.00  0.00    -0.153 OA
BRANCH   1  27
ATOM     27  C   UNL     1      12.709  10.070   7.263  0.00  0.00    +0.105 A 
ATOM     29  C   UNL     1      13.910  10.550   6.740  0.00  0.00    +0.032 A 
ATOM     30  C   UNL     1      12.427   8.706   7.222  0.00  0.00    +0.032 A 
ATOM     32  C   UNL     1      14.828   9.665   6.175  0.00  0.00    +0.047 A 
ATOM     33  C   UNL     1      13.345   7.820   6.656  0.00  0.00    +0.047 A 
ATOM     34  C   UNL     1      14.545   8.300   6.134  0.00  0.00    +0.120 A 
BRANCH  34   6
ATOM      6  O   UNL     1      15.441   7.437   5.582  0.00  0.00    -0.495 OA
ATOM     35  C   UNL     1      16.097   7.856   4.387  0.00  0.00    +0.277 C 
ENDBRANCH  34   6
ENDBRANCH   1  27
ENDBRANCH   7   1
ENDBRANCH  17   7
ENDBRANCH  11  17
BRANCH  13  18
ATOM     18  C   UNL     1      10.538   5.832   5.540  0.00  0.00    +0.103 C 
BRANCH  18  22
ATOM      2  O   UNL     1      10.043   3.581   4.987  0.00  0.00    -0.276 OA
ATOM      5  O   UNL     1      14.093   6.101  -0.336  0.00  0.00    -0.276 OA
ATOM      8  N   UNL     1      11.110   4.840   3.353  0.00  0.00    -0.298 N 
ATOM      9  N   UNL     1      13.086   4.825   1.323  0.00  0.00    -0.299 N 
ATOM     22  C   UNL     1      10.537   4.647   4.609  0.00  0.00    +0.216 C 
ATOM     23  C   UNL     1      11.150   3.737   2.390  0.00  0.00    +0.126 C 
ATOM     24  C   UNL     1      11.637   6.113   2.845  0.00  0.00    +0.126 C 
ATOM     25  C   UNL     1      12.559   3.551   1.831  0.00  0.00    +0.126 C 
ATOM     26  C   UNL     1      13.045   5.928   2.287  0.00  0.00    +0.126 C 
ATOM     28  C   UNL     1      13.657   5.019   0.067  0.00  0.00    +0.213 C 
ATOM     31  C   UNL     1      13.728   3.814  -0.835  0.00  0.00    +0.109 C 
ENDBRANCH  18  22
ENDBRANCH  13  18
TORSDOF 8
ENDMDL
MODEL 5
REMARK VINA RESULT:      -6.3      5.214      7.386
REMARK  Name = 38026862
REMARK  13 active torsions:
REMARK  status: ('A' for Active; 'I' for Inactive)
REMARK    1  A    between atoms: S_1  and  N_7
REMARK    2  A    between atoms: S_1  and  C_27
REMARK    3  A    between atoms: O_6  and  C_34
REMARK    4  A    between atoms: O_6  and  C_35
REMARK    5  A    between atoms: N_7  and  C_17
REMARK    6  A    between atoms: C_10  and  C_14
REMARK    7  A    between atoms: C_11  and  C_17
REMARK    8  A    between atoms: C_13  and  C_18
REMARK    9  A    between atoms: C_14  and  C_19
REMARK   10  A    between atoms: C_14  and  C_20
REMARK   11  A    between atoms: C_15  and  C_21
REMARK   12  A    between atoms: C_18  and  C_22
REMARK   13  A    between atoms: C_28  and  C_31
REMARK                            x       y       z     vdW  Elec       q    Type
REMARK                         _______ _______ _______ _____ _____    ______ ____
ROOT
ATOM     10  C   UNL     1      -5.867 -11.342  14.864  0.00  0.00    +0.000 C 
ATOM     11  C   UNL     1      -4.532 -11.797  15.504  0.00  0.00    +0.030 C 
ATOM     12  C   UNL     1      -6.382 -10.066  15.547  0.00  0.00    +0.012 C 
ATOM     13  C   UNL     1      -6.607 -10.263  17.058  0.00  0.00    +0.023 C 
ATOM     15  C   UNL     1      -5.431 -10.955  17.716  0.00  0.00    -0.073 C 
ATOM     16  C   UNL     1      -4.506 -11.625  17.004  0.00  0.00    -0.023 C 
ATOM     21  C   UNL     1      -5.316 -10.822  19.210  0.00  0.00    +0.039 C 
ENDROOT
BRANCH  10  14
ATOM     14  C   UNL     1      -5.724 -11.104  13.358  0.00  0.00    -0.013 C 
ATOM     19  C   UNL     1      -6.696 -11.990  12.584  0.00  0.00    +0.007 C 
ATOM     20  C   UNL     1      -5.954  -9.633  13.028  0.00  0.00    +0.007 C 
ENDBRANCH  10  14
BRANCH  11  17
ATOM     17  C   UNL     1      -4.218 -13.255  15.152  0.00  0.00    +0.113 C 
BRANCH  17   7
ATOM      7  N   UNL     1      -2.773 -13.390  14.904  0.00  0.00    -0.189 NA
ATOM     36  H   UNL     1      -2.162 -12.747  15.424  0.00  0.00    +0.148 HD
BRANCH   7   1
ATOM      1  S   UNL     1      -2.210 -13.954  13.399  0.00  0.00    +0.058 S 
ATOM      3  O   UNL     1      -3.048 -15.053  12.957  0.00  0.00    -0.153 OA
ATOM      4  O   UNL     1      -0.770 -14.112  13.459  0.00  0.00    -0.153 OA
BRANCH   1  27
ATOM     27  C   UNL     1      -2.534 -12.568  12.351  0.00  0.00    +0.105 A 
ATOM     29  C   UNL     1      -2.012 -11.315  12.673  0.00  0.00    +0.032 A 
ATOM     30  C   UNL     1      -3.312 -12.726  11.205  0.00  0.00    +0.032 A 
ATOM     32  C   UNL     1      -2.270 -10.220  11.847  0.00  0.00    +0.047 A 
ATOM     33  C   UNL     1      -3.569 -11.631  10.379  0.00  0.00    +0.047 A 
ATOM     34  C   UNL     1      -3.047 -10.378  10.701  0.00  0.00    +0.120 A 
BRANCH  34   6
ATOM      6  O   UNL     1      -3.298  -9.310   9.896  0.00  0.00    -0.495 OA
ATOM     35  C   UNL     1      -4.563  -9.275   9.238  0.00  0.00    +0.277 C 
ENDBRANCH  34   6
ENDBRANCH   1  27
ENDBRANCH   7   1
ENDBRANCH  17   7
ENDBRANCH  11  17
BRANCH  13  18
ATOM     18  C   UNL     1      -7.911 -11.021  17.328  0.00  0.00    +0.103 C 
BRANCH  18  22
ATOM      2  O   UNL     1      -8.829  -8.845  17.522  0.00  0.00    -0.276 OA
ATOM      5  O   UNL     1     -13.267 -13.204  21.043  0.00  0.00    -0.276 OA
ATOM      8  N   UNL     1     -10.142 -10.597  18.297  0.00  0.00    -0.298 N 
ATOM      9  N   UNL     1     -11.925 -11.448  20.328  0.00  0.00    -0.299 N 
ATOM     22  C   UNL     1      -8.996 -10.051  17.720  0.00  0.00    +0.216 C 
ATOM     23  C   UNL     1     -11.242  -9.721  18.708  0.00  0.00    +0.126 C 
ATOM     24  C   UNL     1     -10.403 -12.030  18.478  0.00  0.00    +0.126 C 
ATOM     25  C   UNL     1     -11.664 -10.013  20.146  0.00  0.00    +0.126 C 
ATOM     26  C   UNL     1     -10.825 -12.323  19.916  0.00  0.00    +0.126 C 
ATOM     28  C   UNL     1     -13.071 -11.994  20.902  0.00  0.00    +0.213 C 
ATOM     31  C   UNL     1     -14.122 -11.019  21.368  0.00  0.00    +0.109 C 
ENDBRANCH  18  22
ENDBRANCH  13  18
TORSDOF 8
ENDMDL
MODEL 6
REMARK VINA RESULT:      -6.2      3.658      6.274
REMARK  Name = 38026862
REMARK  13 active torsions:
REMARK  status: ('A' for Active; 'I' for Inactive)
REMARK    1  A    between atoms: S_1  and  N_7
REMARK    2  A    between atoms: S_1  and  C_27
REMARK    3  A    between atoms: O_6  and  C_34
REMARK    4  A    between atoms: O_6  and  C_35
REMARK    5  A    between atoms: N_7  and  C_17
REMARK    6  A    between atoms: C_10  and  C_14
REMARK    7  A    between atoms: C_11  and  C_17
REMARK    8  A    between atoms: C_13  and  C_18
REMARK    9  A    between atoms: C_14  and  C_19
REMARK   10  A    between atoms: C_14  and  C_20
REMARK   11  A    between atoms: C_15  and  C_21
REMARK   12  A    between atoms: C_18  and  C_22
REMARK   13  A    between atoms: C_28  and  C_31
REMARK                            x       y       z     vdW  Elec       q    Type
REMARK                         _______ _______ _______ _____ _____    ______ ____
ROOT
ATOM     10  C   UNL     1      -4.125 -11.796  12.311  0.00  0.00    +0.000 C 
ATOM     11  C   UNL     1      -3.054 -11.067  11.464  0.00  0.00    +0.030 C 
ATOM     12  C   UNL     1      -5.481 -11.786  11.588  0.00  0.00    +0.012 C 
ATOM     13  C   UNL     1      -5.977 -10.356  11.299  0.00  0.00    +0.023 C 
ATOM     15  C   UNL     1      -4.884  -9.491  10.703  0.00  0.00    -0.073 C 
ATOM     16  C   UNL     1      -3.585  -9.832  10.775  0.00  0.00    -0.023 C 
ATOM     21  C   UNL     1      -5.323  -8.247   9.982  0.00  0.00    +0.039 C 
ENDROOT
BRANCH  10  14
ATOM     14  C   UNL     1      -3.716 -13.238  12.627  0.00  0.00    -0.013 C 
ATOM     19  C   UNL     1      -4.331 -13.689  13.948  0.00  0.00    +0.007 C 
ATOM     20  C   UNL     1      -4.132 -14.169  11.492  0.00  0.00    +0.007 C 
ENDBRANCH  10  14
BRANCH  11  17
ATOM     17  C   UNL     1      -1.835 -10.693  12.314  0.00  0.00    +0.113 C 
BRANCH  17   7
ATOM      7  N   UNL     1      -2.295 -10.184  13.617  0.00  0.00    -0.189 NA
ATOM     36  H   UNL     1      -2.610  -9.206  13.635  0.00  0.00    +0.148 HD
BRANCH   7   1
ATOM      1  S   UNL     1      -1.660 -10.827  15.060  0.00  0.00    +0.058 S 
ATOM      3  O   UNL     1      -0.708  -9.889  15.624  0.00  0.00    -0.153 OA
ATOM      4  O   UNL     1      -1.279 -12.209  14.838  0.00  0.00    -0.153 OA
BRANCH   1  27
ATOM     27  C   UNL     1      -3.087 -10.847  16.103  0.00  0.00    +0.105 A 
ATOM     29  C   UNL     1      -4.287 -10.297  15.653  0.00  0.00    +0.032 A 
ATOM     30  C   UNL     1      -3.013 -11.411  17.376  0.00  0.00    +0.032 A 
ATOM     32  C   UNL     1      -5.413 -10.310  16.476  0.00  0.00    +0.047 A 
ATOM     33  C   UNL     1      -4.139 -11.424  18.200  0.00  0.00    +0.047 A 
ATOM     34  C   UNL     1      -5.339 -10.873  17.750  0.00  0.00    +0.120 A 
BRANCH  34   6
ATOM      6  O   UNL     1      -6.437 -10.886  18.553  0.00  0.00    -0.495 OA
ATOM     35  C   UNL     1      -6.654 -12.056  19.339  0.00  0.00    +0.277 C 
ENDBRANCH  34   6
ENDBRANCH   1  27
ENDBRANCH   7   1
ENDBRANCH  17   7
ENDBRANCH  11  17
BRANCH  13  18
ATOM     18  C   UNL     1      -6.562  -9.710  12.560  0.00  0.00    +0.103 C 
BRANCH  18  22
ATOM      2  O   UNL     1      -8.523  -9.307  11.293  0.00  0.00    -0.276 OA
ATOM      5  O   UNL     1     -10.547  -9.340  18.148  0.00  0.00    -0.276 OA
ATOM      8  N   UNL     1      -8.816  -9.678  13.567  0.00  0.00    -0.298 N 
ATOM      9  N   UNL     1     -10.247  -8.904  15.887  0.00  0.00    -0.299 N 
ATOM     22  C   UNL     1      -8.052  -9.547  12.408  0.00  0.00    +0.216 C 
ATOM     23  C   UNL     1     -10.272  -9.531  13.503  0.00  0.00    +0.126 C 
ATOM     24  C   UNL     1      -8.296 -10.036  14.892  0.00  0.00    +0.126 C 
ATOM     25  C   UNL     1     -10.767  -8.546  14.560  0.00  0.00    +0.126 C 
ATOM     26  C   UNL     1      -8.790  -9.051  15.949  0.00  0.00    +0.126 C 
ATOM     28  C   UNL     1     -11.009  -9.038  17.045  0.00  0.00    +0.213 C 
ATOM     31  C   UNL     1     -12.491  -8.796  16.908  0.00  0.00    +0.109 C 
ENDBRANCH  18  22
ENDBRANCH  13  18
TORSDOF 8
ENDMDL
MODEL 7
REMARK VINA RESULT:      -6.2      5.522      7.119
REMARK  Name = 38026862
REMARK  13 active torsions:
REMARK  status: ('A' for Active; 'I' for Inactive)
REMARK    1  A    between atoms: S_1  and  N_7
REMARK    2  A    between atoms: S_1  and  C_27
REMARK    3  A    between atoms: O_6  and  C_34
REMARK    4  A    between atoms: O_6  and  C_35
REMARK    5  A    between atoms: N_7  and  C_17
REMARK    6  A    between atoms: C_10  and  C_14
REMARK    7  A    between atoms: C_11  and  C_17
REMARK    8  A    between atoms: C_13  and  C_18
REMARK    9  A    between atoms: C_14  and  C_19
REMARK   10  A    between atoms: C_14  and  C_20
REMARK   11  A    between atoms: C_15  and  C_21
REMARK   12  A    between atoms: C_18  and  C_22
REMARK   13  A    between atoms: C_28  and  C_31
REMARK                            x       y       z     vdW  Elec       q    Type
REMARK                         _______ _______ _______ _____ _____    ______ ____
ROOT
ATOM     10  C   UNL     1      -3.041 -12.657  13.042  0.00  0.00    +0.000 C 
ATOM     11  C   UNL     1      -2.041 -11.492  13.240  0.00  0.00    +0.030 C 
ATOM     12  C   UNL     1      -3.230 -12.955  11.547  0.00  0.00    +0.012 C 
ATOM     13  C   UNL     1      -3.748 -11.730  10.769  0.00  0.00    +0.023 C 
ATOM     15  C   UNL     1      -2.975 -10.474  11.117  0.00  0.00    -0.073 C 
ATOM     16  C   UNL     1      -2.206 -10.391  12.218  0.00  0.00    -0.023 C 
ATOM     21  C   UNL     1      -3.068  -9.330  10.146  0.00  0.00    +0.039 C 
ENDROOT
BRANCH  10  14
ATOM     14  C   UNL     1      -2.587 -13.926  13.771  0.00  0.00    -0.013 C 
ATOM     19  C   UNL     1      -3.490 -15.101  13.405  0.00  0.00    +0.007 C 
ATOM     20  C   UNL     1      -1.133 -14.239  13.437  0.00  0.00    +0.007 C 
ENDBRANCH  10  14
BRANCH  11  17
ATOM     17  C   UNL     1      -2.150 -10.901  14.649  0.00  0.00    +0.113 C 
BRANCH  17   7
ATOM      7  N   UNL     1      -3.509 -10.369  14.844  0.00  0.00    -0.189 NA
ATOM     36  H   UNL     1      -3.718  -9.477  14.378  0.00  0.00    +0.148 HD
BRANCH   7   1
ATOM      1  S   UNL     1      -4.374 -10.726  16.267  0.00  0.00    +0.058 S 
ATOM      3  O   UNL     1      -5.290  -9.639  16.556  0.00  0.00    -0.153 OA
ATOM      4  O   UNL     1      -3.447 -11.189  17.283  0.00  0.00    -0.153 OA
BRANCH   1  27
ATOM     27  C   UNL     1      -5.330 -12.126  15.765  0.00  0.00    +0.105 A 
ATOM     29  C   UNL     1      -6.155 -12.040  14.644  0.00  0.00    +0.032 A 
ATOM     30  C   UNL     1      -5.261 -13.314  16.491  0.00  0.00    +0.032 A 
ATOM     32  C   UNL     1      -6.912 -13.144  14.249  0.00  0.00    +0.047 A 
ATOM     33  C   UNL     1      -6.018 -14.418  16.096  0.00  0.00    +0.047 A 
ATOM     34  C   UNL     1      -6.842 -14.332  14.975  0.00  0.00    +0.120 A 
BRANCH  34   6
ATOM      6  O   UNL     1      -7.581 -15.409  14.590  0.00  0.00    -0.495 OA
ATOM     35  C   UNL     1      -6.875 -16.513  14.027  0.00  0.00    +0.277 C 
ENDBRANCH  34   6
ENDBRANCH   1  27
ENDBRANCH   7   1
ENDBRANCH  17   7
ENDBRANCH  11  17
BRANCH  13  18
ATOM     18  C   UNL     1      -5.251 -11.528  10.994  0.00  0.00    +0.103 C 
BRANCH  18  22
ATOM      2  O   UNL     1      -5.896 -12.732   9.058  0.00  0.00    -0.276 OA
ATOM      5  O   UNL     1      -8.282  -6.057   8.144  0.00  0.00    -0.276 OA
ATOM      8  N   UNL     1      -6.743 -10.581   9.270  0.00  0.00    -0.298 N 
ATOM      9  N   UNL     1      -7.381  -8.184   7.900  0.00  0.00    -0.299 N 
ATOM     22  C   UNL     1      -5.989 -11.676   9.688  0.00  0.00    +0.216 C 
ATOM     23  C   UNL     1      -7.488 -10.644   8.010  0.00  0.00    +0.126 C 
ATOM     24  C   UNL     1      -6.935  -9.339  10.031  0.00  0.00    +0.126 C 
ATOM     25  C   UNL     1      -7.189  -9.426   7.139  0.00  0.00    +0.126 C 
ATOM     26  C   UNL     1      -6.636  -8.122   9.160  0.00  0.00    +0.126 C 
ATOM     28  C   UNL     1      -8.137  -7.090   7.484  0.00  0.00    +0.213 C 
ATOM     31  C   UNL     1      -8.810  -7.207   6.141  0.00  0.00    +0.109 C 
ENDBRANCH  18  22
ENDBRANCH  13  18
TORSDOF 8
ENDMDL
MODEL 8
REMARK VINA RESULT:      -6.0      5.449      7.253
REMARK  Name = 38026862
REMARK  13 active torsions:
REMARK  status: ('A' for Active; 'I' for Inactive)
REMARK    1  A    between atoms: S_1  and  N_7
REMARK    2  A    between atoms: S_1  and  C_27
REMARK    3  A    between atoms: O_6  and  C_34
REMARK    4  A    between atoms: O_6  and  C_35
REMARK    5  A    between atoms: N_7  and  C_17
REMARK    6  A    between atoms: C_10  and  C_14
REMARK    7  A    between atoms: C_11  and  C_17
REMARK    8  A    between atoms: C_13  and  C_18
REMARK    9  A    between atoms: C_14  and  C_19
REMARK   10  A    between atoms: C_14  and  C_20
REMARK   11  A    between atoms: C_15  and  C_21
REMARK   12  A    between atoms: C_18  and  C_22
REMARK   13  A    between atoms: C_28  and  C_31
REMARK                            x       y       z     vdW  Elec       q    Type
REMARK                         _______ _______ _______ _____ _____    ______ ____
ROOT
ATOM     10  C   UNL     1      -3.349 -13.807  12.290  0.00  0.00    +0.000 C 
ATOM     11  C   UNL     1      -2.169 -12.931  12.778  0.00  0.00    +0.030 C 
ATOM     12  C   UNL     1      -3.650 -13.527  10.810  0.00  0.00    +0.012 C 
ATOM     13  C   UNL     1      -4.003 -12.049  10.557  0.00  0.00    +0.023 C 
ATOM     15  C   UNL     1      -3.026 -11.112  11.238  0.00  0.00    -0.073 C 
ATOM     16  C   UNL     1      -2.204 -11.528  12.220  0.00  0.00    -0.023 C 
ATOM     21  C   UNL     1      -2.981  -9.696  10.734  0.00  0.00    +0.039 C 
ENDROOT
BRANCH  10  14
ATOM     14  C   UNL     1      -3.069 -15.300  12.489  0.00  0.00    -0.013 C 
ATOM     19  C   UNL     1      -4.187 -15.948  13.301  0.00  0.00    +0.007 C 
ATOM     20  C   UNL     1      -2.908 -15.995  11.141  0.00  0.00    +0.007 C 
ENDBRANCH  10  14
BRANCH  11  17
ATOM     17  C   UNL     1      -2.120 -12.870  14.308  0.00  0.00    +0.113 C 
BRANCH  17   7
ATOM      7  N   UNL     1      -3.468 -12.578  14.822  0.00  0.00    -0.189 NA
ATOM     36  H   UNL     1      -4.236 -13.130  14.419  0.00  0.00    +0.148 HD
BRANCH   7   1
ATOM      1  S   UNL     1      -3.846 -11.023  15.403  0.00  0.00    +0.058 S 
ATOM      3  O   UNL     1      -4.672 -10.335  14.429  0.00  0.00    -0.153 OA
ATOM      4  O   UNL     1      -2.638 -10.397  15.908  0.00  0.00    -0.153 OA
BRANCH   1  27
ATOM     27  C   UNL     1      -4.856 -11.398  16.805  0.00  0.00    +0.105 A 
ATOM     29  C   UNL     1      -4.881 -10.532  17.898  0.00  0.00    +0.032 A 
ATOM     30  C   UNL     1      -5.626 -12.560  16.819  0.00  0.00    +0.032 A 
ATOM     32  C   UNL     1      -5.675 -10.829  19.005  0.00  0.00    +0.047 A 
ATOM     33  C   UNL     1      -6.421 -12.857  17.927  0.00  0.00    +0.047 A 
ATOM     34  C   UNL     1      -6.445 -11.991  19.019  0.00  0.00    +0.120 A 
BRANCH  34   6
ATOM      6  O   UNL     1      -7.220 -12.281  20.100  0.00  0.00    -0.495 OA
ATOM     35  C   UNL     1      -8.382 -13.077  19.872  0.00  0.00    +0.277 C 
ENDBRANCH  34   6
ENDBRANCH   1  27
ENDBRANCH   7   1
ENDBRANCH  17   7
ENDBRANCH  11  17
BRANCH  13  18
ATOM     18  C   UNL     1      -5.444 -11.744  10.984  0.00  0.00    +0.103 C 
BRANCH  18  22
ATOM      2  O   UNL     1      -6.512 -12.916   9.224  0.00  0.00    -0.276 OA
ATOM      5  O   UNL     1      -7.962  -5.996   8.181  0.00  0.00    -0.276 OA
ATOM      8  N   UNL     1      -6.989 -10.650   9.399  0.00  0.00    -0.298 N 
ATOM      9  N   UNL     1      -7.433  -8.247   7.966  0.00  0.00    -0.299 N 
ATOM     22  C   UNL     1      -6.361 -11.831   9.791  0.00  0.00    +0.216 C 
ATOM     23  C   UNL     1      -7.895 -10.651   8.248  0.00  0.00    +0.126 C 
ATOM     24  C   UNL     1      -6.889  -9.362  10.096  0.00  0.00    +0.126 C 
ATOM     25  C   UNL     1      -7.533  -9.536   7.269  0.00  0.00    +0.126 C 
ATOM     26  C   UNL     1      -6.528  -8.247   9.118  0.00  0.00    +0.126 C 
ATOM     28  C   UNL     1      -8.063  -7.066   7.576  0.00  0.00    +0.213 C 
ATOM     31  C   UNL     1      -8.917  -7.136   6.337  0.00  0.00    +0.109 C 
ENDBRANCH  18  22
ENDBRANCH  13  18
TORSDOF 8
ENDMDL
MODEL 9
REMARK VINA RESULT:      -6.0      3.477      5.803
REMARK  Name = 38026862
REMARK  13 active torsions:
REMARK  status: ('A' for Active; 'I' for Inactive)
REMARK    1  A    between atoms: S_1  and  N_7
REMARK    2  A    between atoms: S_1  and  C_27
REMARK    3  A    between atoms: O_6  and  C_34
REMARK    4  A    between atoms: O_6  and  C_35
REMARK    5  A    between atoms: N_7  and  C_17
REMARK    6  A    between atoms: C_10  and  C_14
REMARK    7  A    between atoms: C_11  and  C_17
REMARK    8  A    between atoms: C_13  and  C_18
REMARK    9  A    between atoms: C_14  and  C_19
REMARK   10  A    between atoms: C_14  and  C_20
REMARK   11  A    between atoms: C_15  and  C_21
REMARK   12  A    between atoms: C_18  and  C_22
REMARK   13  A    between atoms: C_28  and  C_31
REMARK                            x       y       z     vdW  Elec       q    Type
REMARK                         _______ _______ _______ _____ _____    ______ ____
ROOT
ATOM     10  C   UNL     1      -5.910 -11.552  15.085  0.00  0.00    +0.000 C 
ATOM     11  C   UNL     1      -4.574 -11.722  15.848  0.00  0.00    +0.030 C 
ATOM     12  C   UNL     1      -6.729 -10.399  15.687  0.00  0.00    +0.012 C 
ATOM     13  C   UNL     1      -7.044 -10.626  17.179  0.00  0.00    +0.023 C 
ATOM     15  C   UNL     1      -5.816 -11.061  17.953  0.00  0.00    -0.073 C 
ATOM     16  C   UNL     1      -4.716 -11.536  17.340  0.00  0.00    -0.023 C 
ATOM     21  C   UNL     1      -5.864 -10.896  19.446  0.00  0.00    +0.039 C 
ENDROOT
BRANCH  10  14
ATOM     14  C   UNL     1      -5.684 -11.301  13.590  0.00  0.00    -0.013 C 
ATOM     19  C   UNL     1      -6.634 -12.156  12.758  0.00  0.00    +0.007 C 
ATOM     20  C   UNL     1      -5.863  -9.822  13.266  0.00  0.00    +0.007 C 
ENDBRANCH  10  14
BRANCH  11  17
ATOM     17  C   UNL     1      -3.943 -13.090  15.563  0.00  0.00    +0.113 C 
BRANCH  17   7
ATOM      7  N   UNL     1      -2.609 -12.891  14.974  0.00  0.00    -0.189 NA
ATOM     36  H   UNL     1      -2.147 -11.999  15.189  0.00  0.00    +0.148 HD
BRANCH   7   1
ATOM      1  S   UNL     1      -2.199 -13.648  13.504  0.00  0.00    +0.058 S 
ATOM      3  O   UNL     1      -3.096 -14.764  13.274  0.00  0.00    -0.153 OA
ATOM      4  O   UNL     1      -0.762 -13.844  13.455  0.00  0.00    -0.153 OA
BRANCH   1  27
ATOM     27  C   UNL     1      -2.588 -12.386  12.329  0.00  0.00    +0.105 A 
ATOM     29  C   UNL     1      -3.361 -12.690  11.210  0.00  0.00    +0.032 A 
ATOM     30  C   UNL     1      -2.119 -11.086  12.520  0.00  0.00    +0.032 A 
ATOM     32  C   UNL     1      -3.666 -11.695  10.281  0.00  0.00    +0.047 A 
ATOM     33  C   UNL     1      -2.424 -10.091  11.591  0.00  0.00    +0.047 A 
ATOM     34  C   UNL     1      -3.198 -10.396  10.472  0.00  0.00    +0.120 A 
BRANCH  34   6
ATOM      6  O   UNL     1      -3.495  -9.426   9.565  0.00  0.00    -0.495 OA
ATOM     35  C   UNL     1      -4.656  -8.636   9.816  0.00  0.00    +0.277 C 
ENDBRANCH  34   6
ENDBRANCH   1  27
ENDBRANCH   7   1
ENDBRANCH  17   7
ENDBRANCH  11  17
BRANCH  13  18
ATOM     18  C   UNL     1      -8.189 -11.629  17.355  0.00  0.00    +0.103 C 
BRANCH  18  22
ATOM      2  O   UNL     1      -9.295 -12.333  15.381  0.00  0.00    -0.276 OA
ATOM      5  O   UNL     1     -11.460  -5.632  16.602  0.00  0.00    -0.276 OA
ATOM      8  N   UNL     1      -9.961 -10.294  16.272  0.00  0.00    -0.298 N 
ATOM      9  N   UNL     1     -10.747  -7.639  15.675  0.00  0.00    -0.299 N 
ATOM     22  C   UNL     1      -9.195 -11.459  16.246  0.00  0.00    +0.216 C 
ATOM     23  C   UNL     1     -10.960 -10.053  15.228  0.00  0.00    +0.126 C 
ATOM     24  C   UNL     1      -9.919  -9.272  17.325  0.00  0.00    +0.126 C 
ATOM     25  C   UNL     1     -10.789  -8.662  14.622  0.00  0.00    +0.126 C 
ATOM     26  C   UNL     1      -9.748  -7.882  16.720  0.00  0.00    +0.126 C 
ATOM     28  C   UNL     1     -11.514  -6.475  15.704  0.00  0.00    +0.213 C 
ATOM     31  C   UNL     1     -12.464  -6.266  14.552  0.00  0.00    +0.109 C 
ENDBRANCH  18  22
ENDBRANCH  13  18
TORSDOF 8
ENDMDL
MODEL 10
REMARK VINA RESULT:      -5.9     26.781     29.912
REMARK  Name = 38026862
REMARK  13 active torsions:
REMARK  status: ('A' for Active; 'I' for Inactive)
REMARK    1  A    between atoms: S_1  and  N_7
REMARK    2  A    between atoms: S_1  and  C_27
REMARK    3  A    between atoms: O_6  and  C_34
REMARK    4  A    between atoms: O_6  and  C_35
REMARK    5  A    between atoms: N_7  and  C_17
REMARK    6  A    between atoms: C_10  and  C_14
REMARK    7  A    between atoms: C_11  and  C_17
REMARK    8  A    between atoms: C_13  and  C_18
REMARK    9  A    between atoms: C_14  and  C_19
REMARK   10  A    between atoms: C_14  and  C_20
REMARK   11  A    between atoms: C_15  and  C_21
REMARK   12  A    between atoms: C_18  and  C_22
REMARK   13  A    between atoms: C_28  and  C_31
REMARK                            x       y       z     vdW  Elec       q    Type
REMARK                         _______ _______ _______ _____ _____    ______ ____
ROOT
ATOM     10  C   UNL     1      10.171   6.711   4.220  0.00  0.00    +0.000 C 
ATOM     11  C   UNL     1       8.668   6.660   4.589  0.00  0.00    +0.030 C 
ATOM     12  C   UNL     1      10.985   5.807   5.159  0.00  0.00    +0.012 C 
ATOM     13  C   UNL     1      10.831   6.212   6.637  0.00  0.00    +0.023 C 
ATOM     15  C   UNL     1       9.381   6.443   7.009  0.00  0.00    -0.073 C 
ATOM     16  C   UNL     1       8.426   6.628   6.079  0.00  0.00    -0.023 C 
ATOM     21  C   UNL     1       9.044   6.412   8.474  0.00  0.00    +0.039 C 
ENDROOT
BRANCH  10  14
ATOM     14  C   UNL     1      10.414   6.300   2.764  0.00  0.00    -0.013 C 
ATOM     19  C   UNL     1      11.606   7.058   2.189  0.00  0.00    +0.007 C 
ATOM     20  C   UNL     1      10.634   4.794   2.666  0.00  0.00    +0.007 C 
ENDBRANCH  10  14
BRANCH  11  17
ATOM     17  C   UNL     1       7.906   7.838   3.973  0.00  0.00    +0.113 C 
BRANCH  17   7
ATOM      7  N   UNL     1       7.835   8.931   4.956  0.00  0.00    -0.189 NA
ATOM     36  H   UNL     1       6.981   8.972   5.527  0.00  0.00    +0.148 HD
BRANCH   7   1
ATOM      1  S   UNL     1       8.651  10.398   4.669  0.00  0.00    +0.058 S 
ATOM      3  O   UNL     1       7.684  11.475   4.582  0.00  0.00    -0.153 OA
ATOM      4  O   UNL     1       9.623  10.201   3.610  0.00  0.00    -0.153 OA
BRANCH   1  27
ATOM     27  C   UNL     1       9.561  10.603   6.171  0.00  0.00    +0.105 A 
ATOM     29  C   UNL     1      10.781  11.278   6.160  0.00  0.00    +0.032 A 
ATOM     30  C   UNL     1       9.060  10.089   7.366  0.00  0.00    +0.032 A 
ATOM     32  C   UNL     1      11.501  11.438   7.344  0.00  0.00    +0.047 A 
ATOM     33  C   UNL     1       9.779  10.249   8.551  0.00  0.00    +0.047 A 
ATOM     34  C   UNL     1      11.000  10.924   8.539  0.00  0.00    +0.120 A 
BRANCH  34   6
ATOM      6  O   UNL     1      11.702  11.079   9.694  0.00  0.00    -0.495 OA
ATOM     35  C   UNL     1      12.246  12.372   9.954  0.00  0.00    +0.277 C 
ENDBRANCH  34   6
ENDBRANCH   1  27
ENDBRANCH   7   1
ENDBRANCH  17   7
ENDBRANCH  11  17
BRANCH  13  18
ATOM     18  C   UNL     1      11.684   7.444   6.963  0.00  0.00    +0.103 C 
BRANCH  18  22
ATOM      2  O   UNL     1      13.577   6.204   7.667  0.00  0.00    -0.276 OA
ATOM      5  O   UNL     1      16.042  11.306   3.312  0.00  0.00    -0.276 OA
ATOM      8  N   UNL     1      13.934   7.784   6.004  0.00  0.00    -0.298 N 
ATOM      9  N   UNL     1      15.697   9.773   5.021  0.00  0.00    -0.299 N 
ATOM     22  C   UNL     1      13.147   7.082   6.915  0.00  0.00    +0.216 C 
ATOM     23  C   UNL     1      15.365   7.493   5.897  0.00  0.00    +0.126 C 
ATOM     24  C   UNL     1      13.440   8.781   5.044  0.00  0.00    +0.126 C 
ATOM     25  C   UNL     1      16.190   8.776   5.981  0.00  0.00    +0.126 C 
ATOM     26  C   UNL     1      14.264  10.063   5.128  0.00  0.00    +0.126 C 
ATOM     28  C   UNL     1      16.482  10.473   4.108  0.00  0.00    +0.213 C 
ATOM     31  C   UNL     1      17.958  10.169   4.115  0.00  0.00    +0.109 C 
ENDBRANCH  18  22
ENDBRANCH  13  18
TORSDOF 8
ENDMDL
