MODEL 1
REMARK VINA RESULT:      -7.2      0.000      0.000
REMARK  Name = 9424313
REMARK  5 active torsions:
REMARK  status: ('A' for Active; 'I' for Inactive)
REMARK    1  A    between atoms: N_6  and  C_9
REMARK    2  A    between atoms: N_8  and  C_23
REMARK    3  A    between atoms: C_21  and  C_24
REMARK    4  A    between atoms: C_23  and  C_25
REMARK    5  A    between atoms: C_23  and  C_26
REMARK                            x       y       z     vdW  Elec       q    Type
REMARK                         _______ _______ _______ _____ _____    ______ ____
ROOT
ATOM      2  O   UNL     1      17.875   5.910  19.025  0.00  0.00    -0.273 OA
ATOM      3  O   UNL     1      21.283   7.988  22.382  0.00  0.00    -0.270 OA
ATOM      5  N   UNL     1      19.175   7.341  21.654  0.00  0.00    -0.286 N 
ATOM      7  N   UNL     1      19.787   5.028  19.915  0.00  0.00    -0.283 N 
ATOM      9  C   UNL     1      16.404   8.001  21.018  0.00  0.00    +0.078 C 
ATOM     10  C   UNL     1      18.246   6.251  21.384  0.00  0.00    +0.164 C 
ATOM     11  C   UNL     1      16.765   6.616  21.552  0.00  0.00    +0.054 C 
ATOM     12  C   UNL     1      17.347   9.037  21.618  0.00  0.00    +0.041 C 
ATOM     13  C   UNL     1      18.789   8.703  21.275  0.00  0.00    +0.111 C 
ATOM     14  C   UNL     1      18.611   5.748  20.000  0.00  0.00    +0.238 C 
ATOM     15  C   UNL     1      20.493   7.104  22.045  0.00  0.00    +0.249 C 
ATOM     16  C   UNL     1      21.014   5.713  21.989  0.00  0.00    +0.059 A 
ATOM     17  C   UNL     1      20.752   4.827  20.928  0.00  0.00    +0.046 A 
ATOM     19  C   UNL     1      21.976   5.372  22.956  0.00  0.00    +0.023 A 
ATOM     20  C   UNL     1      21.509   3.648  20.826  0.00  0.00    +0.024 A 
ATOM     21  C   UNL     1      22.681   4.174  22.865  0.00  0.00    -0.017 A 
ATOM     22  C   UNL     1      22.459   3.318  21.793  0.00  0.00    +0.010 A 
ATOM     31  H   UNL     1      19.923   4.501  19.054  0.00  0.00    +0.155 HD
ENDROOT
BRANCH   9   6
ATOM      4  O   UNL     1      14.043   6.766  19.907  0.00  0.00    -0.253 OA
ATOM      6  N   UNL     1      15.029   8.322  21.320  0.00  0.00    -0.296 N 
ATOM      8  N   UNL     1      12.736   8.177  21.204  0.00  0.00    -0.297 N 
ATOM     18  C   UNL     1      13.946   7.671  20.733  0.00  0.00    +0.300 C 
ATOM     30  H   UNL     1      14.841   9.008  22.045  0.00  0.00    +0.151 HD
ATOM     32  H   UNL     1      12.758   8.874  21.941  0.00  0.00    +0.150 HD
BRANCH   8  23
ATOM     23  C   UNL     1      11.455   7.681  20.759  0.00  0.00    +0.068 C 
ATOM     25  C   UNL     1      10.903   8.562  19.645  0.00  0.00    +0.027 C 
ATOM     26  C   UNL     1      10.481   7.593  21.927  0.00  0.00    +0.027 C 
ENDBRANCH   8  23
ENDBRANCH   9   6
BRANCH  21  24
ATOM      1  S   UNL     1      25.635   2.623  24.973  0.00  0.00    -0.104 S 
ATOM     24  C   UNL     1      23.659   3.837  23.863  0.00  0.00    -0.011 A 
ATOM     27  C   UNL     1      23.826   4.438  25.145  0.00  0.00    +0.016 A 
ATOM     28  C   UNL     1      24.579   2.835  23.641  0.00  0.00    +0.053 A 
ATOM     29  C   UNL     1      24.864   3.873  25.852  0.00  0.00    +0.046 A 
ENDBRANCH  21  24
TORSDOF 3
ENDMDL
MODEL 2
REMARK VINA RESULT:      -7.0     16.032     19.587
REMARK  Name = 9424313
REMARK  5 active torsions:
REMARK  status: ('A' for Active; 'I' for Inactive)
REMARK    1  A    between atoms: N_6  and  C_9
REMARK    2  A    between atoms: N_8  and  C_23
REMARK    3  A    between atoms: C_21  and  C_24
REMARK    4  A    between atoms: C_23  and  C_25
REMARK    5  A    between atoms: C_23  and  C_26
REMARK                            x       y       z     vdW  Elec       q    Type
REMARK                         _______ _______ _______ _____ _____    ______ ____
ROOT
ATOM      2  O   UNL     1       9.312   8.466   3.368  0.00  0.00    -0.273 OA
ATOM      3  O   UNL     1       8.447   7.334   8.386  0.00  0.00    -0.270 OA
ATOM      5  N   UNL     1       9.595   7.218   6.371  0.00  0.00    -0.286 N 
ATOM      7  N   UNL     1       9.019   9.856   5.160  0.00  0.00    -0.283 N 
ATOM      9  C   UNL     1      10.696   5.647   4.171  0.00  0.00    +0.078 C 
ATOM     10  C   UNL     1      10.463   7.884   5.408  0.00  0.00    +0.164 C 
ATOM     11  C   UNL     1      11.375   6.944   4.610  0.00  0.00    +0.054 C 
ATOM     12  C   UNL     1      10.055   4.977   5.381  0.00  0.00    +0.041 C 
ATOM     13  C   UNL     1       9.042   5.906   6.027  0.00  0.00    +0.111 C 
ATOM     14  C   UNL     1       9.537   8.728   4.551  0.00  0.00    +0.238 C 
ATOM     15  C   UNL     1       9.097   7.881   7.493  0.00  0.00    +0.249 C 
ATOM     16  C   UNL     1       9.294   9.351   7.599  0.00  0.00    +0.059 A 
ATOM     17  C   UNL     1       9.137  10.236   6.516  0.00  0.00    +0.046 A 
ATOM     19  C   UNL     1       9.441   9.864   8.899  0.00  0.00    +0.023 A 
ATOM     20  C   UNL     1       9.064  11.615   6.772  0.00  0.00    +0.024 A 
ATOM     21  C   UNL     1       9.417  11.239   9.127  0.00  0.00    -0.017 A 
ATOM     22  C   UNL     1       9.215  12.114   8.067  0.00  0.00    +0.010 A 
ATOM     31  H   UNL     1       8.589  10.537   4.538  0.00  0.00    +0.155 HD
ENDROOT
BRANCH   9   6
ATOM      4  O   UNL     1      12.022   6.045   1.638  0.00  0.00    -0.253 OA
ATOM      6  N   UNL     1      11.645   4.763   3.536  0.00  0.00    -0.296 N 
ATOM      8  N   UNL     1      13.113   4.018   1.929  0.00  0.00    -0.297 N 
ATOM     18  C   UNL     1      12.239   5.036   2.306  0.00  0.00    +0.300 C 
ATOM     30  H   UNL     1      11.947   3.935   4.042  0.00  0.00    +0.151 HD
ATOM     32  H   UNL     1      13.282   3.260   2.582  0.00  0.00    +0.150 HD
BRANCH   8  23
ATOM     23  C   UNL     1      13.861   4.048   0.695  0.00  0.00    +0.068 C 
ATOM     25  C   UNL     1      13.167   3.203  -0.366  0.00  0.00    +0.027 C 
ATOM     26  C   UNL     1      15.292   3.578   0.925  0.00  0.00    +0.027 C 
ENDBRANCH   8  23
ENDBRANCH   9   6
BRANCH  21  24
ATOM      1  S   UNL     1      10.744  12.487  12.628  0.00  0.00    -0.104 S 
ATOM     24  C   UNL     1       9.572  11.750  10.461  0.00  0.00    -0.011 A 
ATOM     27  C   UNL     1       8.541  12.203  11.336  0.00  0.00    +0.016 A 
ATOM     28  C   UNL     1      10.819  11.850  11.040  0.00  0.00    +0.053 A 
ATOM     29  C   UNL     1       9.040  12.630  12.547  0.00  0.00    +0.046 A 
ENDBRANCH  21  24
TORSDOF 3
ENDMDL
MODEL 3
REMARK VINA RESULT:      -6.8     28.724     32.864
REMARK  Name = 9424313
REMARK  5 active torsions:
REMARK  status: ('A' for Active; 'I' for Inactive)
REMARK    1  A    between atoms: N_6  and  C_9
REMARK    2  A    between atoms: N_8  and  C_23
REMARK    3  A    between atoms: C_21  and  C_24
REMARK    4  A    between atoms: C_23  and  C_25
REMARK    5  A    between atoms: C_23  and  C_26
REMARK                            x       y       z     vdW  Elec       q    Type
REMARK                         _______ _______ _______ _____ _____    ______ ____
ROOT
ATOM      2  O   UNL     1      -9.543 -12.255  20.579  0.00  0.00    -0.273 OA
ATOM      3  O   UNL     1      -8.114 -12.363  15.564  0.00  0.00    -0.270 OA
ATOM      5  N   UNL     1      -9.244 -11.526  17.412  0.00  0.00    -0.286 N 
ATOM      7  N   UNL     1      -7.456 -12.282  19.644  0.00  0.00    -0.283 N 
ATOM      9  C   UNL     1     -11.738 -10.760  18.721  0.00  0.00    +0.078 C 
ATOM     10  C   UNL     1      -9.172 -10.813  18.681  0.00  0.00    +0.164 C 
ATOM     11  C   UNL     1     -10.437 -10.027  19.047  0.00  0.00    +0.054 C 
ATOM     12  C   UNL     1     -11.714 -11.213  17.266  0.00  0.00    +0.041 C 
ATOM     13  C   UNL     1     -10.522 -12.121  17.013  0.00  0.00    +0.111 C 
ATOM     14  C   UNL     1      -8.770 -11.857  19.705  0.00  0.00    +0.238 C 
ATOM     15  C   UNL     1      -8.099 -11.854  16.686  0.00  0.00    +0.249 C 
ATOM     16  C   UNL     1      -6.770 -11.647  17.320  0.00  0.00    +0.059 A 
ATOM     17  C   UNL     1      -6.491 -11.965  18.662  0.00  0.00    +0.046 A 
ATOM     19  C   UNL     1      -5.716 -11.310  16.453  0.00  0.00    +0.023 A 
ATOM     20  C   UNL     1      -5.152 -12.002  19.086  0.00  0.00    +0.024 A 
ATOM     21  C   UNL     1      -4.398 -11.303  16.906  0.00  0.00    -0.017 A 
ATOM     22  C   UNL     1      -4.114 -11.663  18.218  0.00  0.00    +0.010 A 
ATOM     31  H   UNL     1      -7.121 -12.801  20.453  0.00  0.00    +0.155 HD
ENDROOT
BRANCH   9   6
ATOM      4  O   UNL     1     -13.551 -10.912  20.962  0.00  0.00    -0.253 OA
ATOM      6  N   UNL     1     -12.880  -9.914  18.977  0.00  0.00    -0.296 N 
ATOM      8  N   UNL     1     -14.727  -9.113  20.090  0.00  0.00    -0.297 N 
ATOM     18  C   UNL     1     -13.704 -10.059  20.091  0.00  0.00    +0.300 C 
ATOM     30  H   UNL     1     -13.050  -9.131  18.353  0.00  0.00    +0.151 HD
ATOM     32  H   UNL     1     -14.727  -8.401  19.365  0.00  0.00    +0.150 HD
BRANCH   8  23
ATOM     23  C   UNL     1     -15.725  -9.039  21.131  0.00  0.00    +0.068 C 
ATOM     25  C   UNL     1     -16.981  -9.794  20.714  0.00  0.00    +0.027 C 
ATOM     26  C   UNL     1     -16.039  -7.588  21.469  0.00  0.00    +0.027 C 
ENDBRANCH   8  23
ENDBRANCH   9   6
BRANCH  21  24
ATOM      1  S   UNL     1      -2.136 -10.395  13.803  0.00  0.00    -0.104 S 
ATOM     24  C   UNL     1      -3.331 -10.953  16.010  0.00  0.00    -0.011 A 
ATOM     27  C   UNL     1      -1.967 -10.709  16.347  0.00  0.00    +0.016 A 
ATOM     28  C   UNL     1      -3.559 -10.816  14.657  0.00  0.00    +0.053 A 
ATOM     29  C   UNL     1      -1.207 -10.395  15.241  0.00  0.00    +0.046 A 
ENDBRANCH  21  24
TORSDOF 3
ENDMDL
MODEL 4
REMARK VINA RESULT:      -6.7     28.892     31.994
REMARK  Name = 9424313
REMARK  5 active torsions:
REMARK  status: ('A' for Active; 'I' for Inactive)
REMARK    1  A    between atoms: N_6  and  C_9
REMARK    2  A    between atoms: N_8  and  C_23
REMARK    3  A    between atoms: C_21  and  C_24
REMARK    4  A    between atoms: C_23  and  C_25
REMARK    5  A    between atoms: C_23  and  C_26
REMARK                            x       y       z     vdW  Elec       q    Type
REMARK                         _______ _______ _______ _____ _____    ______ ____
ROOT
ATOM      2  O   UNL     1     -10.649  -8.708  18.279  0.00  0.00    -0.273 OA
ATOM      3  O   UNL     1      -8.349 -11.102  14.256  0.00  0.00    -0.270 OA
ATOM      5  N   UNL     1      -9.446  -9.350  15.314  0.00  0.00    -0.286 N 
ATOM      7  N   UNL     1      -8.577  -9.661  18.124  0.00  0.00    -0.283 N 
ATOM      9  C   UNL     1     -11.691  -7.489  15.461  0.00  0.00    +0.078 C 
ATOM     10  C   UNL     1      -9.381  -8.258  16.276  0.00  0.00    +0.164 C 
ATOM     11  C   UNL     1     -10.310  -7.076  15.969  0.00  0.00    +0.054 C 
ATOM     12  C   UNL     1     -11.533  -8.449  14.288  0.00  0.00    +0.041 C 
ATOM     13  C   UNL     1     -10.740  -9.675  14.708  0.00  0.00    +0.111 C 
ATOM     14  C   UNL     1      -9.620  -8.901  17.629  0.00  0.00    +0.238 C 
ATOM     15  C   UNL     1      -8.380 -10.230  15.126  0.00  0.00    +0.249 C 
ATOM     16  C   UNL     1      -7.234 -10.173  16.072  0.00  0.00    +0.059 A 
ATOM     17  C   UNL     1      -7.380 -10.021  17.463  0.00  0.00    +0.046 A 
ATOM     19  C   UNL     1      -5.974 -10.495  15.538  0.00  0.00    +0.023 A 
ATOM     20  C   UNL     1      -6.272 -10.260  18.292  0.00  0.00    +0.024 A 
ATOM     21  C   UNL     1      -4.874 -10.679  16.373  0.00  0.00    -0.017 A 
ATOM     22  C   UNL     1      -5.025 -10.576  17.751  0.00  0.00    +0.010 A 
ATOM     31  H   UNL     1      -8.636  -9.905  19.111  0.00  0.00    +0.155 HD
ENDROOT
BRANCH   9   6
ATOM      4  O   UNL     1     -12.002  -6.407  12.804  0.00  0.00    -0.253 OA
ATOM      6  N   UNL     1     -12.462  -6.331  15.078  0.00  0.00    -0.296 N 
ATOM      8  N   UNL     1     -13.364  -4.744  13.678  0.00  0.00    -0.297 N 
ATOM     18  C   UNL     1     -12.557  -5.877  13.764  0.00  0.00    +0.300 C 
ATOM     30  H   UNL     1     -13.018  -5.863  15.788  0.00  0.00    +0.151 HD
ATOM     32  H   UNL     1     -13.839  -4.424  14.516  0.00  0.00    +0.150 HD
BRANCH   8  23
ATOM     23  C   UNL     1     -13.631  -4.068  12.430  0.00  0.00    +0.068 C 
ATOM     25  C   UNL     1     -12.406  -3.282  11.980  0.00  0.00    +0.027 C 
ATOM     26  C   UNL     1     -14.850  -3.163  12.562  0.00  0.00    +0.027 C 
ENDBRANCH   8  23
ENDBRANCH   9   6
BRANCH  21  24
ATOM      1  S   UNL     1      -1.859 -12.085  14.252  0.00  0.00    -0.104 S 
ATOM     24  C   UNL     1      -3.592 -11.004  15.814  0.00  0.00    -0.011 A 
ATOM     27  C   UNL     1      -2.317 -10.534  16.248  0.00  0.00    +0.016 A 
ATOM     28  C   UNL     1      -3.486 -11.855  14.735  0.00  0.00    +0.053 A 
ATOM     29  C   UNL     1      -1.289 -11.045  15.486  0.00  0.00    +0.046 A 
ENDBRANCH  21  24
TORSDOF 3
ENDMDL
MODEL 5
REMARK VINA RESULT:      -6.7     29.078     32.316
REMARK  Name = 9424313
REMARK  5 active torsions:
REMARK  status: ('A' for Active; 'I' for Inactive)
REMARK    1  A    between atoms: N_6  and  C_9
REMARK    2  A    between atoms: N_8  and  C_23
REMARK    3  A    between atoms: C_21  and  C_24
REMARK    4  A    between atoms: C_23  and  C_25
REMARK    5  A    between atoms: C_23  and  C_26
REMARK                            x       y       z     vdW  Elec       q    Type
REMARK                         _______ _______ _______ _____ _____    ______ ____
ROOT
ATOM      2  O   UNL     1      -6.310 -11.740  20.632  0.00  0.00    -0.273 OA
ATOM      3  O   UNL     1      -6.784 -13.498  15.744  0.00  0.00    -0.270 OA
ATOM      5  N   UNL     1      -7.472 -12.356  17.645  0.00  0.00    -0.286 N 
ATOM      7  N   UNL     1      -4.903 -11.512  18.843  0.00  0.00    -0.283 N 
ATOM      9  C   UNL     1      -9.429 -11.922  19.767  0.00  0.00    +0.078 C 
ATOM     10  C   UNL     1      -7.314 -11.192  18.507  0.00  0.00    +0.164 C 
ATOM     11  C   UNL     1      -8.591 -10.758  19.238  0.00  0.00    +0.054 C 
ATOM     12  C   UNL     1      -9.691 -12.912  18.638  0.00  0.00    +0.041 C 
ATOM     13  C   UNL     1      -8.380 -13.425  18.068  0.00  0.00    +0.111 C 
ATOM     14  C   UNL     1      -6.156 -11.529  19.427  0.00  0.00    +0.238 C 
ATOM     15  C   UNL     1      -6.627 -12.587  16.559  0.00  0.00    +0.249 C 
ATOM     16  C   UNL     1      -5.419 -11.734  16.402  0.00  0.00    +0.059 A 
ATOM     17  C   UNL     1      -4.590 -11.357  17.474  0.00  0.00    +0.046 A 
ATOM     19  C   UNL     1      -5.004 -11.486  15.082  0.00  0.00    +0.023 A 
ATOM     20  C   UNL     1      -3.332 -10.797  17.194  0.00  0.00    +0.024 A 
ATOM     21  C   UNL     1      -3.774 -10.883  14.826  0.00  0.00    -0.017 A 
ATOM     22  C   UNL     1      -2.932 -10.551  15.881  0.00  0.00    +0.010 A 
ATOM     31  H   UNL     1      -4.115 -11.512  19.488  0.00  0.00    +0.155 HD
ENDROOT
BRANCH   9   6
ATOM      4  O   UNL     1     -11.502 -13.503  21.005  0.00  0.00    -0.253 OA
ATOM      6  N   UNL     1     -10.669 -11.444  20.331  0.00  0.00    -0.296 N 
ATOM      8  N   UNL     1     -12.716 -11.561  21.374  0.00  0.00    -0.297 N 
ATOM     18  C   UNL     1     -11.618 -12.283  20.912  0.00  0.00    +0.300 C 
ATOM     30  H   UNL     1     -10.829 -10.441  20.368  0.00  0.00    +0.151 HD
ATOM     32  H   UNL     1     -12.687 -10.548  21.318  0.00  0.00    +0.150 HD
BRANCH   8  23
ATOM     23  C   UNL     1     -13.847 -12.186  22.019  0.00  0.00    +0.068 C 
ATOM     25  C   UNL     1     -15.107 -11.359  21.797  0.00  0.00    +0.027 C 
ATOM     26  C   UNL     1     -13.572 -12.386  23.504  0.00  0.00    +0.027 C 
ENDBRANCH   8  23
ENDBRANCH   9   6
BRANCH  21  24
ATOM      1  S   UNL     1      -3.560 -10.233  10.940  0.00  0.00    -0.104 S 
ATOM     24  C   UNL     1      -3.364 -10.631  13.473  0.00  0.00    -0.011 A 
ATOM     27  C   UNL     1      -2.033 -10.450  12.994  0.00  0.00    +0.016 A 
ATOM     28  C   UNL     1      -4.292 -10.537  12.458  0.00  0.00    +0.053 A 
ATOM     29  C   UNL     1      -1.996 -10.226  11.635  0.00  0.00    +0.046 A 
ENDBRANCH  21  24
TORSDOF 3
ENDMDL
MODEL 6
REMARK VINA RESULT:      -6.5     32.824     34.894
REMARK  Name = 9424313
REMARK  5 active torsions:
REMARK  status: ('A' for Active; 'I' for Inactive)
REMARK    1  A    between atoms: N_6  and  C_9
REMARK    2  A    between atoms: N_8  and  C_23
REMARK    3  A    between atoms: C_21  and  C_24
REMARK    4  A    between atoms: C_23  and  C_25
REMARK    5  A    between atoms: C_23  and  C_26
REMARK                            x       y       z     vdW  Elec       q    Type
REMARK                         _______ _______ _______ _____ _____    ______ ____
ROOT
ATOM      2  O   UNL     1     -13.950  -3.301  12.875  0.00  0.00    -0.273 OA
ATOM      3  O   UNL     1     -13.031  -8.400  12.272  0.00  0.00    -0.270 OA
ATOM      5  N   UNL     1     -12.920  -6.158  11.679  0.00  0.00    -0.286 N 
ATOM      7  N   UNL     1     -12.988  -4.802  14.307  0.00  0.00    -0.283 N 
ATOM      9  C   UNL     1     -13.427  -4.020   9.757  0.00  0.00    +0.078 C 
ATOM     10  C   UNL     1     -12.348  -4.842  11.936  0.00  0.00    +0.164 C 
ATOM     11  C   UNL     1     -12.227  -3.943  10.700  0.00  0.00    +0.054 C 
ATOM     12  C   UNL     1     -13.709  -5.478   9.413  0.00  0.00    +0.041 C 
ATOM     13  C   UNL     1     -13.981  -6.278  10.676  0.00  0.00    +0.111 C 
ATOM     14  C   UNL     1     -13.188  -4.253  13.054  0.00  0.00    +0.238 C 
ATOM     15  C   UNL     1     -12.655  -7.250  12.506  0.00  0.00    +0.249 C 
ATOM     16  C   UNL     1     -11.938  -7.016  13.787  0.00  0.00    +0.059 A 
ATOM     17  C   UNL     1     -12.206  -5.930  14.641  0.00  0.00    +0.046 A 
ATOM     19  C   UNL     1     -11.107  -8.059  14.231  0.00  0.00    +0.023 A 
ATOM     20  C   UNL     1     -11.686  -5.948  15.946  0.00  0.00    +0.024 A 
ATOM     21  C   UNL     1     -10.559  -8.035  15.512  0.00  0.00    -0.017 A 
ATOM     22  C   UNL     1     -10.860  -6.988  16.375  0.00  0.00    +0.010 A 
ATOM     31  H   UNL     1     -13.370  -4.272  15.088  0.00  0.00    +0.155 HD
ENDROOT
BRANCH   9   6
ATOM      4  O   UNL     1     -14.988  -1.795   8.783  0.00  0.00    -0.253 OA
ATOM      6  N   UNL     1     -13.189  -3.246   8.562  0.00  0.00    -0.296 N 
ATOM      8  N   UNL     1     -13.540  -1.614   6.979  0.00  0.00    -0.297 N 
ATOM     18  C   UNL     1     -13.998  -2.183   8.166  0.00  0.00    +0.300 C 
ATOM     30  H   UNL     1     -12.352  -3.440   8.019  0.00  0.00    +0.151 HD
ATOM     32  H   UNL     1     -12.670  -1.956   6.583  0.00  0.00    +0.150 HD
BRANCH   8  23
ATOM     23  C   UNL     1     -14.196  -0.494   6.345  0.00  0.00    +0.068 C 
ATOM     25  C   UNL     1     -14.314  -0.730   4.844  0.00  0.00    +0.027 C 
ATOM     26  C   UNL     1     -13.450   0.800   6.643  0.00  0.00    +0.027 C 
ENDBRANCH   8  23
ENDBRANCH   9   6
BRANCH  21  24
ATOM      1  S   UNL     1      -7.919 -10.342  17.323  0.00  0.00    -0.104 S 
ATOM     24  C   UNL     1      -9.709  -9.106  15.951  0.00  0.00    -0.011 A 
ATOM     27  C   UNL     1      -9.656 -10.434  15.432  0.00  0.00    +0.016 A 
ATOM     28  C   UNL     1      -8.815  -8.923  16.984  0.00  0.00    +0.053 A 
ATOM     29  C   UNL     1      -8.724 -11.210  16.086  0.00  0.00    +0.046 A 
ENDBRANCH  21  24
TORSDOF 3
ENDMDL
MODEL 7
REMARK VINA RESULT:      -6.4     28.619     31.413
REMARK  Name = 9424313
REMARK  5 active torsions:
REMARK  status: ('A' for Active; 'I' for Inactive)
REMARK    1  A    between atoms: N_6  and  C_9
REMARK    2  A    between atoms: N_8  and  C_23
REMARK    3  A    between atoms: C_21  and  C_24
REMARK    4  A    between atoms: C_23  and  C_25
REMARK    5  A    between atoms: C_23  and  C_26
REMARK                            x       y       z     vdW  Elec       q    Type
REMARK                         _______ _______ _______ _____ _____    ______ ____
ROOT
ATOM      2  O   UNL     1      -1.892 -10.266  11.089  0.00  0.00    -0.273 OA
ATOM      3  O   UNL     1      -6.491  -9.547  13.442  0.00  0.00    -0.270 OA
ATOM      5  N   UNL     1      -5.035 -10.534  11.926  0.00  0.00    -0.286 N 
ATOM      7  N   UNL     1      -2.430 -10.310  13.311  0.00  0.00    -0.283 N 
ATOM      9  C   UNL     1      -4.328 -11.233   9.181  0.00  0.00    +0.078 C 
ATOM     10  C   UNL     1      -3.910 -11.435  11.706  0.00  0.00    +0.164 C 
ATOM     11  C   UNL     1      -3.907 -12.134  10.341  0.00  0.00    +0.054 C 
ATOM     12  C   UNL     1      -5.660 -10.570   9.512  0.00  0.00    +0.041 C 
ATOM     13  C   UNL     1      -5.546  -9.760  10.793  0.00  0.00    +0.111 C 
ATOM     14  C   UNL     1      -2.671 -10.603  11.982  0.00  0.00    +0.238 C 
ATOM     15  C   UNL     1      -5.485 -10.219  13.209  0.00  0.00    +0.249 C 
ATOM     16  C   UNL     1      -4.672 -10.653  14.376  0.00  0.00    +0.059 A 
ATOM     17  C   UNL     1      -3.268 -10.571  14.419  0.00  0.00    +0.046 A 
ATOM     19  C   UNL     1      -5.385 -10.960  15.547  0.00  0.00    +0.023 A 
ATOM     20  C   UNL     1      -2.616 -10.734  15.652  0.00  0.00    +0.024 A 
ATOM     21  C   UNL     1      -4.717 -11.169  16.752  0.00  0.00    -0.017 A 
ATOM     22  C   UNL     1      -3.334 -11.042  16.808  0.00  0.00    +0.010 A 
ATOM     31  H   UNL     1      -1.500  -9.955  13.524  0.00  0.00    +0.155 HD
ENDROOT
BRANCH   9   6
ATOM      4  O   UNL     1      -5.207 -10.269   6.607  0.00  0.00    -0.253 OA
ATOM      6  N   UNL     1      -4.420 -11.988   7.954  0.00  0.00    -0.296 N 
ATOM      8  N   UNL     1      -4.847 -12.386   5.729  0.00  0.00    -0.297 N 
ATOM     18  C   UNL     1      -4.858 -11.439   6.750  0.00  0.00    +0.300 C 
ATOM     30  H   UNL     1      -4.085 -12.947   7.950  0.00  0.00    +0.151 HD
ATOM     32  H   UNL     1      -4.471 -13.308   5.929  0.00  0.00    +0.150 HD
BRANCH   8  23
ATOM     23  C   UNL     1      -5.255 -12.083   4.378  0.00  0.00    +0.068 C 
ATOM     25  C   UNL     1      -6.609 -12.716   4.078  0.00  0.00    +0.027 C 
ATOM     26  C   UNL     1      -4.197 -12.546   3.384  0.00  0.00    +0.027 C 
ENDBRANCH   8  23
ENDBRANCH   9   6
BRANCH  21  24
ATOM      1  S   UNL     1      -7.434 -12.225  19.412  0.00  0.00    -0.104 S 
ATOM     24  C   UNL     1      -5.459 -11.486  17.941  0.00  0.00    -0.011 A 
ATOM     27  C   UNL     1      -4.997 -11.421  19.289  0.00  0.00    +0.016 A 
ATOM     28  C   UNL     1      -6.769 -11.909  17.866  0.00  0.00    +0.053 A 
ATOM     29  C   UNL     1      -5.970 -11.796  20.189  0.00  0.00    +0.046 A 
ENDBRANCH  21  24
TORSDOF 3
ENDMDL
MODEL 8
REMARK VINA RESULT:      -6.4     28.431     32.843
REMARK  Name = 9424313
REMARK  5 active torsions:
REMARK  status: ('A' for Active; 'I' for Inactive)
REMARK    1  A    between atoms: N_6  and  C_9
REMARK    2  A    between atoms: N_8  and  C_23
REMARK    3  A    between atoms: C_21  and  C_24
REMARK    4  A    between atoms: C_23  and  C_25
REMARK    5  A    between atoms: C_23  and  C_26
REMARK                            x       y       z     vdW  Elec       q    Type
REMARK                         _______ _______ _______ _____ _____    ______ ____
ROOT
ATOM      2  O   UNL     1      -5.255 -14.246  16.188  0.00  0.00    -0.273 OA
ATOM      3  O   UNL     1      -6.695 -11.482  20.371  0.00  0.00    -0.270 OA
ATOM      5  N   UNL     1      -6.006 -11.765  18.171  0.00  0.00    -0.286 N 
ATOM      7  N   UNL     1      -7.125 -14.417  17.492  0.00  0.00    -0.283 N 
ATOM      9  C   UNL     1      -4.105 -11.219  16.024  0.00  0.00    +0.078 C 
ATOM     10  C   UNL     1      -6.346 -12.188  16.819  0.00  0.00    +0.164 C 
ATOM     11  C   UNL     1      -5.581 -11.457  15.708  0.00  0.00    +0.054 C 
ATOM     12  C   UNL     1      -3.982 -10.540  17.383  0.00  0.00    +0.041 C 
ATOM     13  C   UNL     1      -4.618 -11.397  18.464  0.00  0.00    +0.111 C 
ATOM     14  C   UNL     1      -6.163 -13.694  16.813  0.00  0.00    +0.238 C 
ATOM     15  C   UNL     1      -6.896 -11.915  19.235  0.00  0.00    +0.249 C 
ATOM     16  C   UNL     1      -8.136 -12.708  19.020  0.00  0.00    +0.059 A 
ATOM     17  C   UNL     1      -8.171 -13.917  18.301  0.00  0.00    +0.046 A 
ATOM     19  C   UNL     1      -9.263 -12.306  19.756  0.00  0.00    +0.023 A 
ATOM     20  C   UNL     1      -9.314 -14.728  18.392  0.00  0.00    +0.024 A 
ATOM     21  C   UNL     1     -10.408 -13.099  19.794  0.00  0.00    -0.017 A 
ATOM     22  C   UNL     1     -10.429 -14.317  19.124  0.00  0.00    +0.010 A 
ATOM     31  H   UNL     1      -7.140 -15.418  17.307  0.00  0.00    +0.155 HD
ENDROOT
BRANCH   9   6
ATOM      4  O   UNL     1      -3.189 -12.123  13.440  0.00  0.00    -0.253 OA
ATOM      6  N   UNL     1      -3.484 -10.422  14.992  0.00  0.00    -0.296 N 
ATOM      8  N   UNL     1      -2.506  -9.958  12.963  0.00  0.00    -0.297 N 
ATOM     18  C   UNL     1      -3.071 -10.944  13.768  0.00  0.00    +0.300 C 
ATOM     30  H   UNL     1      -3.406  -9.420  15.137  0.00  0.00    +0.151 HD
ATOM     32  H   UNL     1      -2.520  -8.998  13.293  0.00  0.00    +0.150 HD
BRANCH   8  23
ATOM     23  C   UNL     1      -1.993 -10.228  11.640  0.00  0.00    +0.068 C 
ATOM     25  C   UNL     1      -0.917  -9.214  11.272  0.00  0.00    +0.027 C 
ATOM     26  C   UNL     1      -3.124 -10.229  10.619  0.00  0.00    +0.027 C 
ENDBRANCH   8  23
ENDBRANCH   9   6
BRANCH  21  24
ATOM      1  S   UNL     1     -13.550 -11.221  21.266  0.00  0.00    -0.104 S 
ATOM     24  C   UNL     1     -11.554 -12.674  20.548  0.00  0.00    -0.011 A 
ATOM     27  C   UNL     1     -12.145 -13.335  21.665  0.00  0.00    +0.016 A 
ATOM     28  C   UNL     1     -12.222 -11.512  20.226  0.00  0.00    +0.053 A 
ATOM     29  C   UNL     1     -13.238 -12.652  22.153  0.00  0.00    +0.046 A 
ENDBRANCH  21  24
TORSDOF 3
ENDMDL
MODEL 9
REMARK VINA RESULT:      -6.3     28.847     32.906
REMARK  Name = 9424313
REMARK  5 active torsions:
REMARK  status: ('A' for Active; 'I' for Inactive)
REMARK    1  A    between atoms: N_6  and  C_9
REMARK    2  A    between atoms: N_8  and  C_23
REMARK    3  A    between atoms: C_21  and  C_24
REMARK    4  A    between atoms: C_23  and  C_25
REMARK    5  A    between atoms: C_23  and  C_26
REMARK                            x       y       z     vdW  Elec       q    Type
REMARK                         _______ _______ _______ _____ _____    ______ ____
ROOT
ATOM      2  O   UNL     1     -10.628 -10.251  19.599  0.00  0.00    -0.273 OA
ATOM      3  O   UNL     1      -8.427 -11.920  15.174  0.00  0.00    -0.270 OA
ATOM      5  N   UNL     1      -9.748 -10.514  16.467  0.00  0.00    -0.286 N 
ATOM      7  N   UNL     1      -8.432 -10.664  19.112  0.00  0.00    -0.283 N 
ATOM      9  C   UNL     1     -12.327  -9.265  17.020  0.00  0.00    +0.078 C 
ATOM     10  C   UNL     1      -9.807  -9.460  17.472  0.00  0.00    +0.164 C 
ATOM     11  C   UNL     1     -11.027  -8.537  17.360  0.00  0.00    +0.054 C 
ATOM     12  C   UNL     1     -12.115 -10.130  15.784  0.00  0.00    +0.041 C 
ATOM     13  C   UNL     1     -10.999 -11.133  16.024  0.00  0.00    +0.111 C 
ATOM     14  C   UNL     1      -9.687 -10.172  18.806  0.00  0.00    +0.238 C 
ATOM     15  C   UNL     1      -8.540 -11.101  16.088  0.00  0.00    +0.249 C 
ATOM     16  C   UNL     1      -7.316 -10.785  16.872  0.00  0.00    +0.059 A 
ATOM     17  C   UNL     1      -7.293 -10.704  18.276  0.00  0.00    +0.046 A 
ATOM     19  C   UNL     1      -6.107 -10.776  16.156  0.00  0.00    +0.023 A 
ATOM     20  C   UNL     1      -6.051 -10.682  18.934  0.00  0.00    +0.024 A 
ATOM     21  C   UNL     1      -4.886 -10.703  16.823  0.00  0.00    -0.017 A 
ATOM     22  C   UNL     1      -4.857 -10.670  18.212  0.00  0.00    +0.010 A 
ATOM     31  H   UNL     1      -8.287 -10.935  20.082  0.00  0.00    +0.155 HD
ENDROOT
BRANCH   9   6
ATOM      4  O   UNL     1     -14.950  -9.319  18.223  0.00  0.00    -0.253 OA
ATOM      6  N   UNL     1     -13.401  -8.323  16.811  0.00  0.00    -0.296 N 
ATOM      8  N   UNL     1     -15.488  -7.387  17.056  0.00  0.00    -0.297 N 
ATOM     18  C   UNL     1     -14.641  -8.426  17.436  0.00  0.00    +0.300 C 
ATOM     30  H   UNL     1     -13.221  -7.507  16.233  0.00  0.00    +0.151 HD
ATOM     32  H   UNL     1     -15.117  -6.655  16.458  0.00  0.00    +0.150 HD
BRANCH   8  23
ATOM     23  C   UNL     1     -16.836  -7.254  17.556  0.00  0.00    +0.068 C 
ATOM     25  C   UNL     1     -17.806  -7.013  16.406  0.00  0.00    +0.027 C 
ATOM     26  C   UNL     1     -16.915  -6.137  18.589  0.00  0.00    +0.027 C 
ENDBRANCH   8  23
ENDBRANCH   9   6
BRANCH  21  24
ATOM      1  S   UNL     1      -2.084 -10.671  14.045  0.00  0.00    -0.104 S 
ATOM     24  C   UNL     1      -3.658 -10.691  16.078  0.00  0.00    -0.011 A 
ATOM     27  C   UNL     1      -2.332 -10.682  16.602  0.00  0.00    +0.016 A 
ATOM     28  C   UNL     1      -3.667 -10.686  14.700  0.00  0.00    +0.053 A 
ATOM     29  C   UNL     1      -1.381 -10.671  15.605  0.00  0.00    +0.046 A 
ENDBRANCH  21  24
TORSDOF 3
ENDMDL
MODEL 10
REMARK VINA RESULT:      -6.3     16.619     20.065
REMARK  Name = 9424313
REMARK  5 active torsions:
REMARK  status: ('A' for Active; 'I' for Inactive)
REMARK    1  A    between atoms: N_6  and  C_9
REMARK    2  A    between atoms: N_8  and  C_23
REMARK    3  A    between atoms: C_21  and  C_24
REMARK    4  A    between atoms: C_23  and  C_25
REMARK    5  A    between atoms: C_23  and  C_26
REMARK                            x       y       z     vdW  Elec       q    Type
REMARK                         _______ _______ _______ _____ _____    ______ ____
ROOT
ATOM      2  O   UNL     1      13.256   8.071   6.242  0.00  0.00    -0.273 OA
ATOM      3  O   UNL     1      10.393   4.134   4.368  0.00  0.00    -0.270 OA
ATOM      5  N   UNL     1      10.729   6.246   5.275  0.00  0.00    -0.286 N 
ATOM      7  N   UNL     1      13.414   6.954   4.254  0.00  0.00    -0.283 N 
ATOM      9  C   UNL     1      10.221   8.210   7.374  0.00  0.00    +0.078 C 
ATOM     10  C   UNL     1      11.195   7.612   5.075  0.00  0.00    +0.164 C 
ATOM     11  C   UNL     1      10.487   8.663   5.938  0.00  0.00    +0.054 C 
ATOM     12  C   UNL     1       9.503   6.866   7.355  0.00  0.00    +0.041 C 
ATOM     13  C   UNL     1      10.337   5.828   6.623  0.00  0.00    +0.111 C 
ATOM     14  C   UNL     1      12.698   7.555   5.272  0.00  0.00    +0.238 C 
ATOM     15  C   UNL     1      10.861   5.271   4.285  0.00  0.00    +0.249 C 
ATOM     16  C   UNL     1      11.675   5.585   3.080  0.00  0.00    +0.059 A 
ATOM     17  C   UNL     1      12.904   6.267   3.128  0.00  0.00    +0.046 A 
ATOM     19  C   UNL     1      11.266   4.975   1.881  0.00  0.00    +0.023 A 
ATOM     20  C   UNL     1      13.726   6.266   1.989  0.00  0.00    +0.024 A 
ATOM     21  C   UNL     1      12.072   5.028   0.746  0.00  0.00    -0.017 A 
ATOM     22  C   UNL     1      13.309   5.661   0.803  0.00  0.00    +0.010 A 
ATOM     31  H   UNL     1      14.420   7.111   4.267  0.00  0.00    +0.155 HD
ENDROOT
BRANCH   9   6
ATOM      4  O   UNL     1      11.224  10.500   8.817  0.00  0.00    -0.253 OA
ATOM      6  N   UNL     1       9.446   9.197   8.087  0.00  0.00    -0.296 N 
ATOM      8  N   UNL     1       9.042  11.071   9.358  0.00  0.00    -0.297 N 
ATOM     18  C   UNL     1      10.017  10.276   8.759  0.00  0.00    +0.300 C 
ATOM     30  H   UNL     1       8.433   9.143   8.039  0.00  0.00    +0.151 HD
ATOM     32  H   UNL     1       8.066  10.847   9.192  0.00  0.00    +0.150 HD
BRANCH   8  23
ATOM     23  C   UNL     1       9.359  12.256  10.121  0.00  0.00    +0.068 C 
ATOM     25  C   UNL     1       9.719  11.883  11.553  0.00  0.00    +0.027 C 
ATOM     26  C   UNL     1       8.200  13.243  10.081  0.00  0.00    +0.027 C 
ENDBRANCH   8  23
ENDBRANCH   9   6
BRANCH  21  24
ATOM      1  S   UNL     1      11.571   2.718  -2.413  0.00  0.00    -0.104 S 
ATOM     24  C   UNL     1      11.640   4.404  -0.473  0.00  0.00    -0.011 A 
ATOM     27  C   UNL     1      10.575   4.821  -1.325  0.00  0.00    +0.016 A 
ATOM     28  C   UNL     1      12.266   3.272  -0.949  0.00  0.00    +0.053 A 
ATOM     29  C   UNL     1      10.429   3.993  -2.417  0.00  0.00    +0.046 A 
ENDBRANCH  21  24
TORSDOF 3
ENDMDL
