MODEL 1
REMARK VINA RESULT:      -6.8      0.000      0.000
REMARK  Name = 45784177
REMARK  5 active torsions:
REMARK  status: ('A' for Active; 'I' for Inactive)
REMARK    1  A    between atoms: O_3  and  C_19
REMARK    2  A    between atoms: O_3  and  C_24
REMARK    3  A    between atoms: N_4  and  C_10
REMARK    4  A    between atoms: C_6  and  C_11
REMARK    5  A    between atoms: C_10  and  C_12
REMARK                            x       y       z     vdW  Elec       q    Type
REMARK                         _______ _______ _______ _____ _____    ______ ____
ROOT
ATOM      4  N   UNL     1      16.118   7.689  20.725  0.00  0.00    -0.297 NA
ATOM      6  C   UNL     1      18.209   6.820  20.114  0.00  0.00    +0.090 C 
ATOM      7  C   UNL     1      17.096   6.040  19.394  0.00  0.00    +0.029 C 
ATOM      8  C   UNL     1      17.486   7.580  21.235  0.00  0.00    +0.097 C 
ATOM      9  C   UNL     1      15.822   6.374  20.158  0.00  0.00    +0.085 C 
ENDROOT
BRANCH   6  11
ATOM      1 CL   UNL     1      23.772   2.050  22.101  0.00  0.00    -0.083 Cl
ATOM      2  O   UNL     1      20.053   6.486  21.672  0.00  0.00    -0.439 OA
ATOM      5  N   UNL     1      19.765   4.806  20.177  0.00  0.00    -0.213 NA
ATOM     11  C   UNL     1      19.354   5.974  20.619  0.00  0.00    +0.201 A 
ATOM     13  C   UNL     1      20.825   4.511  21.000  0.00  0.00    +0.111 A 
ATOM     14  C   UNL     1      21.004   5.538  21.916  0.00  0.00    +0.155 A 
ATOM     17  C   UNL     1      21.687   3.406  21.042  0.00  0.00    +0.051 A 
ATOM     18  C   UNL     1      21.990   5.560  22.895  0.00  0.00    +0.050 A 
ATOM     22  C   UNL     1      22.694   3.393  22.018  0.00  0.00    +0.043 A 
ATOM     23  C   UNL     1      22.841   4.451  22.925  0.00  0.00    +0.024 A 
ENDBRANCH   6  11
BRANCH   4  10
ATOM     10  C   UNL     1      15.169   8.072  21.761  0.00  0.00    +0.119 C 
BRANCH  10  12
ATOM     12  C   UNL     1      13.776   8.236  21.212  0.00  0.00    -0.030 A 
ATOM     15  C   UNL     1      12.767   7.354  21.597  0.00  0.00    +0.050 A 
ATOM     16  C   UNL     1      13.496   9.269  20.318  0.00  0.00    +0.005 A 
ATOM     19  C   UNL     1      11.477   7.506  21.088  0.00  0.00    +0.120 A 
ATOM     20  C   UNL     1      12.207   9.421  19.808  0.00  0.00    +0.004 A 
ATOM     21  C   UNL     1      11.197   8.539  20.194  0.00  0.00    +0.045 A 
BRANCH  19   3
ATOM      3  O   UNL     1      10.492   6.644  21.464  0.00  0.00    -0.495 OA
ATOM     24  C   UNL     1      10.867   5.285  21.681  0.00  0.00    +0.277 C 
ENDBRANCH  19   3
ENDBRANCH  10  12
ENDBRANCH   4  10
TORSDOF 4
ENDMDL
MODEL 2
REMARK VINA RESULT:      -6.7     18.193     20.569
REMARK  Name = 45784177
REMARK  5 active torsions:
REMARK  status: ('A' for Active; 'I' for Inactive)
REMARK    1  A    between atoms: O_3  and  C_19
REMARK    2  A    between atoms: O_3  and  C_24
REMARK    3  A    between atoms: N_4  and  C_10
REMARK    4  A    between atoms: C_6  and  C_11
REMARK    5  A    between atoms: C_10  and  C_12
REMARK                            x       y       z     vdW  Elec       q    Type
REMARK                         _______ _______ _______ _____ _____    ______ ____
ROOT
ATOM      4  N   UNL     1      12.125   4.208   1.496  0.00  0.00    -0.297 NA
ATOM      6  C   UNL     1      10.580   5.127   3.001  0.00  0.00    +0.090 C 
ATOM      7  C   UNL     1      11.536   6.227   2.510  0.00  0.00    +0.029 C 
ATOM      8  C   UNL     1      11.271   3.811   2.617  0.00  0.00    +0.097 C 
ATOM      9  C   UNL     1      12.718   5.480   1.906  0.00  0.00    +0.085 C 
ENDROOT
BRANCH   6  11
ATOM      1 CL   UNL     1       8.961   4.734  10.409  0.00  0.00    -0.083 Cl
ATOM      2  O   UNL     1       9.857   6.428   4.930  0.00  0.00    -0.439 OA
ATOM      5  N   UNL     1      10.231   4.234   5.360  0.00  0.00    -0.213 NA
ATOM     11  C   UNL     1      10.228   5.200   4.469  0.00  0.00    +0.201 A 
ATOM     13  C   UNL     1       9.830   4.866   6.513  0.00  0.00    +0.111 A 
ATOM     14  C   UNL     1       9.599   6.209   6.253  0.00  0.00    +0.155 A 
ATOM     17  C   UNL     1       9.634   4.383   7.815  0.00  0.00    +0.051 A 
ATOM     18  C   UNL     1       9.182   7.137   7.199  0.00  0.00    +0.050 A 
ATOM     22  C   UNL     1       9.212   5.291   8.797  0.00  0.00    +0.043 A 
ATOM     23  C   UNL     1       8.991   6.641   8.493  0.00  0.00    +0.024 A 
ENDBRANCH   6  11
BRANCH   4  10
ATOM     10  C   UNL     1      13.132   3.203   1.182  0.00  0.00    +0.119 C 
BRANCH  10  12
ATOM     12  C   UNL     1      14.100   3.688   0.136  0.00  0.00    -0.030 A 
ATOM     15  C   UNL     1      13.663   3.902  -1.171  0.00  0.00    +0.050 A 
ATOM     16  C   UNL     1      15.433   3.921   0.473  0.00  0.00    +0.005 A 
ATOM     19  C   UNL     1      14.560   4.351  -2.141  0.00  0.00    +0.120 A 
ATOM     20  C   UNL     1      16.330   4.369  -0.497  0.00  0.00    +0.004 A 
ATOM     21  C   UNL     1      15.893   4.584  -1.804  0.00  0.00    +0.045 A 
BRANCH  19   3
ATOM      3  O   UNL     1      14.133   4.560  -3.417  0.00  0.00    -0.495 OA
ATOM     24  C   UNL     1      14.940   5.400  -4.242  0.00  0.00    +0.277 C 
ENDBRANCH  19   3
ENDBRANCH  10  12
ENDBRANCH   4  10
TORSDOF 4
ENDMDL
MODEL 3
REMARK VINA RESULT:      -6.7      2.489      2.991
REMARK  Name = 45784177
REMARK  5 active torsions:
REMARK  status: ('A' for Active; 'I' for Inactive)
REMARK    1  A    between atoms: O_3  and  C_19
REMARK    2  A    between atoms: O_3  and  C_24
REMARK    3  A    between atoms: N_4  and  C_10
REMARK    4  A    between atoms: C_6  and  C_11
REMARK    5  A    between atoms: C_10  and  C_12
REMARK                            x       y       z     vdW  Elec       q    Type
REMARK                         _______ _______ _______ _____ _____    ______ ____
ROOT
ATOM      4  N   UNL     1      14.203   8.194  20.757  0.00  0.00    -0.297 NA
ATOM      6  C   UNL     1      16.390   7.754  20.034  0.00  0.00    +0.090 C 
ATOM      7  C   UNL     1      15.394   6.956  19.176  0.00  0.00    +0.029 C 
ATOM      8  C   UNL     1      15.579   8.199  21.259  0.00  0.00    +0.097 C 
ATOM      9  C   UNL     1      14.094   6.967  19.969  0.00  0.00    +0.085 C 
ENDROOT
BRANCH   6  11
ATOM      1 CL   UNL     1      22.639   3.607  21.221  0.00  0.00    -0.083 Cl
ATOM      2  O   UNL     1      18.236   7.372  21.579  0.00  0.00    -0.439 OA
ATOM      5  N   UNL     1      18.262   6.054  19.735  0.00  0.00    -0.213 NA
ATOM     11  C   UNL     1      17.652   7.009  20.402  0.00  0.00    +0.201 A 
ATOM     13  C   UNL     1      19.341   5.752  20.530  0.00  0.00    +0.111 A 
ATOM     14  C   UNL     1      19.328   6.558  21.660  0.00  0.00    +0.155 A 
ATOM     17  C   UNL     1      20.376   4.818  20.375  0.00  0.00    +0.051 A 
ATOM     18  C   UNL     1      20.278   6.513  22.673  0.00  0.00    +0.050 A 
ATOM     22  C   UNL     1      21.353   4.744  21.378  0.00  0.00    +0.043 A 
ATOM     23  C   UNL     1      21.303   5.576  22.504  0.00  0.00    +0.024 A 
ENDBRANCH   6  11
BRANCH   4  10
ATOM     10  C   UNL     1      13.221   8.253  21.831  0.00  0.00    +0.119 C 
BRANCH  10  12
ATOM     12  C   UNL     1      12.541   9.594  21.895  0.00  0.00    -0.030 A 
ATOM     15  C   UNL     1      11.749   9.922  22.995  0.00  0.00    +0.050 A 
ATOM     16  C   UNL     1      12.701  10.508  20.854  0.00  0.00    +0.005 A 
ATOM     19  C   UNL     1      11.119  11.165  23.055  0.00  0.00    +0.120 A 
ATOM     20  C   UNL     1      12.071  11.751  20.913  0.00  0.00    +0.004 A 
ATOM     21  C   UNL     1      11.279  12.080  22.014  0.00  0.00    +0.045 A 
BRANCH  19   3
ATOM      3  O   UNL     1      10.346  11.485  24.129  0.00  0.00    -0.495 OA
ATOM     24  C   UNL     1      10.654  12.700  24.811  0.00  0.00    +0.277 C 
ENDBRANCH  19   3
ENDBRANCH  10  12
ENDBRANCH   4  10
TORSDOF 4
ENDMDL
MODEL 4
REMARK VINA RESULT:      -6.7      4.364      6.398
REMARK  Name = 45784177
REMARK  5 active torsions:
REMARK  status: ('A' for Active; 'I' for Inactive)
REMARK    1  A    between atoms: O_3  and  C_19
REMARK    2  A    between atoms: O_3  and  C_24
REMARK    3  A    between atoms: N_4  and  C_10
REMARK    4  A    between atoms: C_6  and  C_11
REMARK    5  A    between atoms: C_10  and  C_12
REMARK                            x       y       z     vdW  Elec       q    Type
REMARK                         _______ _______ _______ _____ _____    ______ ____
ROOT
ATOM      4  N   UNL     1      11.388  10.129  22.267  0.00  0.00    -0.297 NA
ATOM      6  C   UNL     1      13.083   9.535  20.759  0.00  0.00    +0.090 C 
ATOM      7  C   UNL     1      11.812   8.728  20.448  0.00  0.00    +0.029 C 
ATOM      8  C   UNL     1      12.849  10.102  22.166  0.00  0.00    +0.097 C 
ATOM      9  C   UNL     1      10.948   8.857  21.696  0.00  0.00    +0.085 C 
ENDROOT
BRANCH   6  11
ATOM      1 CL   UNL     1      19.823   6.038  20.792  0.00  0.00    -0.083 Cl
ATOM      2  O   UNL     1      14.427   7.839  19.639  0.00  0.00    -0.439 OA
ATOM      5  N   UNL     1      15.453   8.850  21.389  0.00  0.00    -0.213 NA
ATOM     11  C   UNL     1      14.373   8.757  20.645  0.00  0.00    +0.201 A 
ATOM     13  C   UNL     1      16.299   7.919  20.836  0.00  0.00    +0.111 A 
ATOM     14  C   UNL     1      15.674   7.298  19.764  0.00  0.00    +0.155 A 
ATOM     17  C   UNL     1      17.605   7.535  21.174  0.00  0.00    +0.051 A 
ATOM     18  C   UNL     1      16.248   6.305  18.981  0.00  0.00    +0.050 A 
ATOM     22  C   UNL     1      18.218   6.535  20.406  0.00  0.00    +0.043 A 
ATOM     23  C   UNL     1      17.550   5.933  19.331  0.00  0.00    +0.024 A 
ENDBRANCH   6  11
BRANCH   4  10
ATOM     10  C   UNL     1      10.930  10.309  23.638  0.00  0.00    +0.119 C 
BRANCH  10  12
ATOM     12  C   UNL     1      10.785  11.765  23.993  0.00  0.00    -0.030 A 
ATOM     15  C   UNL     1      10.556  12.707  22.991  0.00  0.00    +0.050 A 
ATOM     16  C   UNL     1      10.879  12.171  25.324  0.00  0.00    +0.005 A 
ATOM     19  C   UNL     1      10.423  14.056  23.320  0.00  0.00    +0.120 A 
ATOM     20  C   UNL     1      10.746  13.520  25.653  0.00  0.00    +0.004 A 
ATOM     21  C   UNL     1      10.517  14.463  24.651  0.00  0.00    +0.045 A 
BRANCH  19   3
ATOM      3  O   UNL     1      10.200  14.976  22.341  0.00  0.00    -0.495 OA
ATOM     24  C   UNL     1       9.000  14.838  21.581  0.00  0.00    +0.277 C 
ENDBRANCH  19   3
ENDBRANCH  10  12
ENDBRANCH   4  10
TORSDOF 4
ENDMDL
MODEL 5
REMARK VINA RESULT:      -6.7     27.518     30.134
REMARK  Name = 45784177
REMARK  5 active torsions:
REMARK  status: ('A' for Active; 'I' for Inactive)
REMARK    1  A    between atoms: O_3  and  C_19
REMARK    2  A    between atoms: O_3  and  C_24
REMARK    3  A    between atoms: N_4  and  C_10
REMARK    4  A    between atoms: C_6  and  C_11
REMARK    5  A    between atoms: C_10  and  C_12
REMARK                            x       y       z     vdW  Elec       q    Type
REMARK                         _______ _______ _______ _____ _____    ______ ____
ROOT
ATOM      4  N   UNL     1      -4.370 -10.530  14.754  0.00  0.00    -0.297 NA
ATOM      6  C   UNL     1      -5.700  -9.604  16.449  0.00  0.00    +0.090 C 
ATOM      7  C   UNL     1      -4.581 -10.451  17.078  0.00  0.00    +0.029 C 
ATOM      8  C   UNL     1      -5.729 -10.031  14.975  0.00  0.00    +0.097 C 
ATOM      9  C   UNL     1      -4.063 -11.325  15.943  0.00  0.00    +0.085 C 
ENDROOT
BRANCH   6  11
ATOM      1 CL   UNL     1     -12.710  -9.658  19.366  0.00  0.00    -0.083 Cl
ATOM      2  O   UNL     1      -7.126 -10.647  18.127  0.00  0.00    -0.439 OA
ATOM      5  N   UNL     1      -8.150  -9.060  16.874  0.00  0.00    -0.213 NA
ATOM     11  C   UNL     1      -7.045  -9.726  17.125  0.00  0.00    +0.201 A 
ATOM     13  C   UNL     1      -9.044  -9.576  17.782  0.00  0.00    +0.111 A 
ATOM     14  C   UNL     1      -8.420 -10.547  18.550  0.00  0.00    +0.155 A 
ATOM     17  C   UNL     1     -10.394  -9.282  18.024  0.00  0.00    +0.051 A 
ATOM     18  C   UNL     1      -9.037 -11.271  19.563  0.00  0.00    +0.050 A 
ATOM     22  C   UNL     1     -11.050  -9.993  19.040  0.00  0.00    +0.043 A 
ATOM     23  C   UNL     1     -10.383 -10.967  19.793  0.00  0.00    +0.024 A 
ENDBRANCH   6  11
BRANCH   4  10
ATOM     10  C   UNL     1      -4.256 -11.304  13.526  0.00  0.00    +0.119 C 
BRANCH  10  12
ATOM     12  C   UNL     1      -3.512 -10.550  12.455  0.00  0.00    -0.030 A 
ATOM     15  C   UNL     1      -4.214  -9.957  11.406  0.00  0.00    +0.050 A 
ATOM     16  C   UNL     1      -2.123 -10.445  12.513  0.00  0.00    +0.005 A 
ATOM     19  C   UNL     1      -3.526  -9.259  10.414  0.00  0.00    +0.120 A 
ATOM     20  C   UNL     1      -1.434  -9.747  11.522  0.00  0.00    +0.004 A 
ATOM     21  C   UNL     1      -2.135  -9.153  10.472  0.00  0.00    +0.045 A 
BRANCH  19   3
ATOM      3  O   UNL     1      -4.210  -8.681   9.389  0.00  0.00    -0.495 OA
ATOM     24  C   UNL     1      -5.574  -8.338   9.632  0.00  0.00    +0.277 C 
ENDBRANCH  19   3
ENDBRANCH  10  12
ENDBRANCH   4  10
TORSDOF 4
ENDMDL
MODEL 6
REMARK VINA RESULT:      -6.6      3.545      5.090
REMARK  Name = 45784177
REMARK  5 active torsions:
REMARK  status: ('A' for Active; 'I' for Inactive)
REMARK    1  A    between atoms: O_3  and  C_19
REMARK    2  A    between atoms: O_3  and  C_24
REMARK    3  A    between atoms: N_4  and  C_10
REMARK    4  A    between atoms: C_6  and  C_11
REMARK    5  A    between atoms: C_10  and  C_12
REMARK                            x       y       z     vdW  Elec       q    Type
REMARK                         _______ _______ _______ _____ _____    ______ ____
ROOT
ATOM      4  N   UNL     1      11.842   9.332  20.600  0.00  0.00    -0.297 NA
ATOM      6  C   UNL     1      13.896   8.834  19.583  0.00  0.00    +0.090 C 
ATOM      7  C   UNL     1      12.793   7.949  18.978  0.00  0.00    +0.029 C 
ATOM      8  C   UNL     1      13.280   9.395  20.873  0.00  0.00    +0.097 C 
ATOM      9  C   UNL     1      11.635   8.032  19.964  0.00  0.00    +0.085 C 
ENDROOT
BRANCH   6  11
ATOM      1 CL   UNL     1      20.308   4.816  20.203  0.00  0.00    -0.083 Cl
ATOM      2  O   UNL     1      16.019   8.686  20.769  0.00  0.00    -0.439 OA
ATOM      5  N   UNL     1      15.690   7.065  19.219  0.00  0.00    -0.213 NA
ATOM     11  C   UNL     1      15.215   8.136  19.816  0.00  0.00    +0.201 A 
ATOM     13  C   UNL     1      16.911   6.883  19.822  0.00  0.00    +0.111 A 
ATOM     14  C   UNL     1      17.116   7.873  20.771  0.00  0.00    +0.155 A 
ATOM     17  C   UNL     1      17.905   5.912  19.629  0.00  0.00    +0.051 A 
ATOM     18  C   UNL     1      18.251   7.985  21.564  0.00  0.00    +0.050 A 
ATOM     22  C   UNL     1      19.066   5.992  20.413  0.00  0.00    +0.043 A 
ATOM     23  C   UNL     1      19.233   7.010  21.361  0.00  0.00    +0.024 A 
ENDBRANCH   6  11
BRANCH   4  10
ATOM     10  C   UNL     1      11.041   9.493  21.806  0.00  0.00    +0.119 C 
BRANCH  10  12
ATOM     12  C   UNL     1      11.257  10.839  22.446  0.00  0.00    -0.030 A 
ATOM     15  C   UNL     1      11.570  10.922  23.803  0.00  0.00    +0.050 A 
ATOM     16  C   UNL     1      11.142  12.000  21.684  0.00  0.00    +0.005 A 
ATOM     19  C   UNL     1      11.769  12.168  24.396  0.00  0.00    +0.120 A 
ATOM     20  C   UNL     1      11.341  13.247  22.277  0.00  0.00    +0.004 A 
ATOM     21  C   UNL     1      11.655  13.331  23.634  0.00  0.00    +0.045 A 
BRANCH  19   3
ATOM      3  O   UNL     1      12.075  12.250  25.721  0.00  0.00    -0.495 OA
ATOM     24  C   UNL     1      13.341  12.812  26.061  0.00  0.00    +0.277 C 
ENDBRANCH  19   3
ENDBRANCH  10  12
ENDBRANCH   4  10
TORSDOF 4
ENDMDL
MODEL 7
REMARK VINA RESULT:      -6.5     27.022     29.449
REMARK  Name = 45784177
REMARK  5 active torsions:
REMARK  status: ('A' for Active; 'I' for Inactive)
REMARK    1  A    between atoms: O_3  and  C_19
REMARK    2  A    between atoms: O_3  and  C_24
REMARK    3  A    between atoms: N_4  and  C_10
REMARK    4  A    between atoms: C_6  and  C_11
REMARK    5  A    between atoms: C_10  and  C_12
REMARK                            x       y       z     vdW  Elec       q    Type
REMARK                         _______ _______ _______ _____ _____    ______ ____
ROOT
ATOM      4  N   UNL     1      -2.152 -10.926  13.807  0.00  0.00    -0.297 NA
ATOM      6  C   UNL     1      -3.397 -10.310  15.697  0.00  0.00    +0.090 C 
ATOM      7  C   UNL     1      -1.984 -10.741  16.128  0.00  0.00    +0.029 C 
ATOM      8  C   UNL     1      -3.541 -10.834  14.261  0.00  0.00    +0.097 C 
ATOM      9  C   UNL     1      -1.424 -11.504  14.935  0.00  0.00    +0.085 C 
ENDROOT
BRANCH   6  11
ATOM      1 CL   UNL     1      -8.588 -13.308  20.357  0.00  0.00    -0.083 Cl
ATOM      2  O   UNL     1      -5.530  -9.892  16.798  0.00  0.00    -0.439 OA
ATOM      5  N   UNL     1      -4.621 -11.920  17.244  0.00  0.00    -0.213 NA
ATOM     11  C   UNL     1      -4.508 -10.774  16.608  0.00  0.00    +0.201 A 
ATOM     13  C   UNL     1      -5.815 -11.795  17.912  0.00  0.00    +0.111 A 
ATOM     14  C   UNL     1      -6.374 -10.554  17.641  0.00  0.00    +0.155 A 
ATOM     17  C   UNL     1      -6.497 -12.675  18.765  0.00  0.00    +0.051 A 
ATOM     18  C   UNL     1      -7.582 -10.102  18.158  0.00  0.00    +0.050 A 
ATOM     22  C   UNL     1      -7.721 -12.253  19.305  0.00  0.00    +0.043 A 
ATOM     23  C   UNL     1      -8.250 -10.991  19.006  0.00  0.00    +0.024 A 
ENDBRANCH   6  11
BRANCH   4  10
ATOM     10  C   UNL     1      -2.016 -11.720  12.593  0.00  0.00    +0.119 C 
BRANCH  10  12
ATOM     12  C   UNL     1      -2.738 -11.093  11.430  0.00  0.00    -0.030 A 
ATOM     15  C   UNL     1      -3.620 -11.856  10.665  0.00  0.00    +0.050 A 
ATOM     16  C   UNL     1      -2.525  -9.751  11.117  0.00  0.00    +0.005 A 
ATOM     19  C   UNL     1      -4.289 -11.276   9.587  0.00  0.00    +0.120 A 
ATOM     20  C   UNL     1      -3.193  -9.171  10.039  0.00  0.00    +0.004 A 
ATOM     21  C   UNL     1      -4.076  -9.933   9.274  0.00  0.00    +0.045 A 
BRANCH  19   3
ATOM      3  O   UNL     1      -5.150 -12.021   8.840  0.00  0.00    -0.495 OA
ATOM     24  C   UNL     1      -5.060 -11.889   7.422  0.00  0.00    +0.277 C 
ENDBRANCH  19   3
ENDBRANCH  10  12
ENDBRANCH   4  10
TORSDOF 4
ENDMDL
MODEL 8
REMARK VINA RESULT:      -6.5      3.622      9.871
REMARK  Name = 45784177
REMARK  5 active torsions:
REMARK  status: ('A' for Active; 'I' for Inactive)
REMARK    1  A    between atoms: O_3  and  C_19
REMARK    2  A    between atoms: O_3  and  C_24
REMARK    3  A    between atoms: N_4  and  C_10
REMARK    4  A    between atoms: C_6  and  C_11
REMARK    5  A    between atoms: C_10  and  C_12
REMARK                            x       y       z     vdW  Elec       q    Type
REMARK                         _______ _______ _______ _____ _____    ______ ____
ROOT
ATOM      4  N   UNL     1      21.573   4.810  21.263  0.00  0.00    -0.297 NA
ATOM      6  C   UNL     1      19.935   6.353  20.603  0.00  0.00    +0.090 C 
ATOM      7  C   UNL     1      20.492   6.752  21.980  0.00  0.00    +0.029 C 
ATOM      8  C   UNL     1      20.390   4.900  20.405  0.00  0.00    +0.097 C 
ATOM      9  C   UNL     1      21.200   5.505  22.495  0.00  0.00    +0.085 C 
ENDROOT
BRANCH   6  11
ATOM      1 CL   UNL     1      12.522   6.984  19.084  0.00  0.00    -0.083 Cl
ATOM      2  O   UNL     1      17.783   7.012  21.537  0.00  0.00    -0.439 OA
ATOM      5  N   UNL     1      17.696   6.281  19.392  0.00  0.00    -0.213 NA
ATOM     11  C   UNL     1      18.443   6.530  20.445  0.00  0.00    +0.201 A 
ATOM     13  C   UNL     1      16.434   6.625  19.812  0.00  0.00    +0.111 A 
ATOM     14  C   UNL     1      16.484   7.072  21.124  0.00  0.00    +0.155 A 
ATOM     17  C   UNL     1      15.196   6.589  19.154  0.00  0.00    +0.051 A 
ATOM     18  C   UNL     1      15.382   7.498  21.857  0.00  0.00    +0.050 A 
ATOM     22  C   UNL     1      14.061   7.012  19.862  0.00  0.00    +0.043 A 
ATOM     23  C   UNL     1      14.155   7.457  21.187  0.00  0.00    +0.024 A 
ENDBRANCH   6  11
BRANCH   4  10
ATOM     10  C   UNL     1      21.980   3.433  21.505  0.00  0.00    +0.119 C 
BRANCH  10  12
ATOM     12  C   UNL     1      23.411   3.192  21.103  0.00  0.00    -0.030 A 
ATOM     15  C   UNL     1      24.056   4.091  20.253  0.00  0.00    +0.050 A 
ATOM     16  C   UNL     1      24.090   2.072  21.578  0.00  0.00    +0.005 A 
ATOM     19  C   UNL     1      25.381   3.868  19.880  0.00  0.00    +0.120 A 
ATOM     20  C   UNL     1      25.416   1.848  21.205  0.00  0.00    +0.004 A 
ATOM     21  C   UNL     1      26.061   2.747  20.356  0.00  0.00    +0.045 A 
BRANCH  19   3
ATOM      3  O   UNL     1      26.011   4.745  19.050  0.00  0.00    -0.495 OA
ATOM     24  C   UNL     1      27.361   4.448  18.696  0.00  0.00    +0.277 C 
ENDBRANCH  19   3
ENDBRANCH  10  12
ENDBRANCH   4  10
TORSDOF 4
ENDMDL
MODEL 9
REMARK VINA RESULT:      -6.4     26.746     30.753
REMARK  Name = 45784177
REMARK  5 active torsions:
REMARK  status: ('A' for Active; 'I' for Inactive)
REMARK    1  A    between atoms: O_3  and  C_19
REMARK    2  A    between atoms: O_3  and  C_24
REMARK    3  A    between atoms: N_4  and  C_10
REMARK    4  A    between atoms: C_6  and  C_11
REMARK    5  A    between atoms: C_10  and  C_12
REMARK                            x       y       z     vdW  Elec       q    Type
REMARK                         _______ _______ _______ _____ _____    ______ ____
ROOT
ATOM      4  N   UNL     1      -5.083 -11.696  17.111  0.00  0.00    -0.297 NA
ATOM      6  C   UNL     1      -6.648 -10.877  18.653  0.00  0.00    +0.090 C 
ATOM      7  C   UNL     1      -6.172 -12.271  19.095  0.00  0.00    +0.029 C 
ATOM      8  C   UNL     1      -6.209 -10.762  17.187  0.00  0.00    +0.097 C 
ATOM      9  C   UNL     1      -5.521 -12.875  17.857  0.00  0.00    +0.085 C 
ENDROOT
BRANCH   6  11
ATOM      1 CL   UNL     1     -13.996  -9.938  20.320  0.00  0.00    -0.083 Cl
ATOM      2  O   UNL     1      -8.756  -9.976  17.825  0.00  0.00    -0.439 OA
ATOM      5  N   UNL     1      -8.881 -10.935  19.875  0.00  0.00    -0.213 NA
ATOM     11  C   UNL     1      -8.124 -10.619  18.848  0.00  0.00    +0.201 A 
ATOM     13  C   UNL     1     -10.120 -10.466  19.511  0.00  0.00    +0.111 A 
ATOM     14  C   UNL     1     -10.047  -9.878  18.257  0.00  0.00    +0.155 A 
ATOM     17  C   UNL     1     -11.355 -10.493  20.176  0.00  0.00    +0.051 A 
ATOM     18  C   UNL     1     -11.121  -9.301  17.590  0.00  0.00    +0.050 A 
ATOM     22  C   UNL     1     -12.463  -9.921  19.533  0.00  0.00    +0.043 A 
ATOM     23  C   UNL     1     -12.345  -9.337  18.265  0.00  0.00    +0.024 A 
ENDBRANCH   6  11
BRANCH   4  10
ATOM     10  C   UNL     1      -4.717 -12.013  15.737  0.00  0.00    +0.119 C 
BRANCH  10  12
ATOM     12  C   UNL     1      -3.473 -11.283  15.306  0.00  0.00    -0.030 A 
ATOM     15  C   UNL     1      -3.233 -11.055  13.952  0.00  0.00    +0.050 A 
ATOM     16  C   UNL     1      -2.560 -10.836  16.261  0.00  0.00    +0.005 A 
ATOM     19  C   UNL     1      -2.080 -10.380  13.552  0.00  0.00    +0.120 A 
ATOM     20  C   UNL     1      -1.407 -10.161  15.862  0.00  0.00    +0.004 A 
ATOM     21  C   UNL     1      -1.167  -9.932  14.507  0.00  0.00    +0.045 A 
BRANCH  19   3
ATOM      3  O   UNL     1      -1.846 -10.157  12.229  0.00  0.00    -0.495 OA
ATOM     24  C   UNL     1      -2.943 -10.342  11.336  0.00  0.00    +0.277 C 
ENDBRANCH  19   3
ENDBRANCH  10  12
ENDBRANCH   4  10
TORSDOF 4
ENDMDL
MODEL 10
REMARK VINA RESULT:      -6.4     29.590     32.520
REMARK  Name = 45784177
REMARK  5 active torsions:
REMARK  status: ('A' for Active; 'I' for Inactive)
REMARK    1  A    between atoms: O_3  and  C_19
REMARK    2  A    between atoms: O_3  and  C_24
REMARK    3  A    between atoms: N_4  and  C_10
REMARK    4  A    between atoms: C_6  and  C_11
REMARK    5  A    between atoms: C_10  and  C_12
REMARK                            x       y       z     vdW  Elec       q    Type
REMARK                         _______ _______ _______ _____ _____    ______ ____
ROOT
ATOM      4  N   UNL     1       2.341   4.498  -5.762  0.00  0.00    -0.297 NA
ATOM      6  C   UNL     1       1.418   2.798  -7.087  0.00  0.00    +0.090 C 
ATOM      7  C   UNL     1       0.954   4.168  -7.611  0.00  0.00    +0.029 C 
ATOM      8  C   UNL     1       1.968   3.085  -5.683  0.00  0.00    +0.097 C 
ATOM      9  C   UNL     1       1.237   5.141  -6.473  0.00  0.00    +0.085 C 
ENDROOT
BRANCH   6  11
ATOM      1 CL   UNL     1      -3.452  -3.011  -6.654  0.00  0.00    -0.083 Cl
ATOM      2  O   UNL     1      -0.736   1.973  -7.871  0.00  0.00    -0.439 OA
ATOM      5  N   UNL     1       0.352   0.574  -6.457  0.00  0.00    -0.213 NA
ATOM     11  C   UNL     1       0.358   1.723  -7.097  0.00  0.00    +0.201 A 
ATOM     13  C   UNL     1      -0.843   0.009  -6.833  0.00  0.00    +0.111 A 
ATOM     14  C   UNL     1      -1.511   0.863  -7.698  0.00  0.00    +0.155 A 
ATOM     17  C   UNL     1      -1.439  -1.214  -6.492  0.00  0.00    +0.051 A 
ATOM     18  C   UNL     1      -2.751   0.599  -8.268  0.00  0.00    +0.050 A 
ATOM     22  C   UNL     1      -2.690  -1.516  -7.049  0.00  0.00    +0.043 A 
ATOM     23  C   UNL     1      -3.331  -0.625  -7.920  0.00  0.00    +0.024 A 
ENDBRANCH   6  11
BRANCH   4  10
ATOM     10  C   UNL     1       2.571   5.086  -4.449  0.00  0.00    +0.119 C 
BRANCH  10  12
ATOM     12  C   UNL     1       3.958   5.659  -4.327  0.00  0.00    -0.030 A 
ATOM     15  C   UNL     1       4.897   5.432  -5.333  0.00  0.00    +0.050 A 
ATOM     16  C   UNL     1       4.305   6.416  -3.208  0.00  0.00    +0.005 A 
ATOM     19  C   UNL     1       6.182   5.962  -5.220  0.00  0.00    +0.120 A 
ATOM     20  C   UNL     1       5.590   6.946  -3.094  0.00  0.00    +0.004 A 
ATOM     21  C   UNL     1       6.529   6.720  -4.101  0.00  0.00    +0.045 A 
BRANCH  19   3
ATOM      3  O   UNL     1       7.098   5.740  -6.202  0.00  0.00    -0.495 OA
ATOM     24  C   UNL     1       6.627   5.133  -7.405  0.00  0.00    +0.277 C 
ENDBRANCH  19   3
ENDBRANCH  10  12
ENDBRANCH   4  10
TORSDOF 4
ENDMDL
