MODEL 1
REMARK VINA RESULT:      -6.6      0.000      0.000
REMARK  Name = 45784303
REMARK  11 active torsions:
REMARK  status: ('A' for Active; 'I' for Inactive)
REMARK    1  A    between atoms: O_1  and  C_21
REMARK    2  A    between atoms: O_1  and  C_26
REMARK    3  A    between atoms: O_2  and  C_22
REMARK    4  A    between atoms: O_2  and  C_27
REMARK    5  A    between atoms: O_3  and  C_23
REMARK    6  A    between atoms: O_3  and  C_28
REMARK    7  A    between atoms: O_4  and  C_24
REMARK    8  A    between atoms: O_4  and  C_29
REMARK    9  A    between atoms: N_5  and  C_13
REMARK   10  A    between atoms: C_8  and  C_12
REMARK   11  A    between atoms: C_13  and  C_14
REMARK                            x       y       z     vdW  Elec       q    Type
REMARK                         _______ _______ _______ _____ _____    ______ ____
ROOT
ATOM      5  N   UNL     1      -3.368 -10.886  16.357  0.00  0.00    -0.297 NA
ATOM      8  C   UNL     1      -2.608 -11.297  14.143  0.00  0.00    +0.070 C 
ATOM      9  C   UNL     1      -1.640 -10.376  14.902  0.00  0.00    +0.028 C 
ATOM     10  C   UNL     1      -3.631 -11.749  15.201  0.00  0.00    +0.096 C 
ATOM     11  C   UNL     1      -1.923 -10.667  16.367  0.00  0.00    +0.085 C 
ENDROOT
BRANCH   8  12
ATOM      6  N   UNL     1      -4.526 -10.268  12.890  0.00  0.00    -0.341 N 
ATOM      7  N   UNL     1      -2.588 -10.339  11.804  0.00  0.00    -0.232 NA
ATOM     12  C   UNL     1      -3.209 -10.633  12.924  0.00  0.00    +0.113 A 
ATOM     15  C   UNL     1      -4.771  -9.700  11.667  0.00  0.00    +0.070 A 
ATOM     16  C   UNL     1      -3.547  -9.756  11.007  0.00  0.00    +0.089 A 
ATOM     19  C   UNL     1      -5.924  -9.157  11.098  0.00  0.00    +0.073 A 
ATOM     20  C   UNL     1      -3.448  -9.245   9.701  0.00  0.00    +0.033 A 
ATOM     23  C   UNL     1      -5.808  -8.654   9.797  0.00  0.00    +0.122 A 
ATOM     25  C   UNL     1      -4.592  -8.697   9.110  0.00  0.00    +0.048 A 
ATOM     30  H   UNL     1      -5.202 -10.395  13.632  0.00  0.00    +0.167 HD
BRANCH  23   3
ATOM      3  O   UNL     1      -6.903  -8.112   9.192  0.00  0.00    -0.495 OA
ATOM     28  C   UNL     1      -8.179  -8.567   9.636  0.00  0.00    +0.277 C 
ENDBRANCH  23   3
ENDBRANCH   8  12
BRANCH   5  13
ATOM     13  C   UNL     1      -3.855 -11.459  17.604  0.00  0.00    +0.119 C 
BRANCH  13  14
ATOM     14  C   UNL     1      -5.301 -11.121  17.849  0.00  0.00    -0.026 A 
ATOM     17  C   UNL     1      -5.965 -10.239  16.995  0.00  0.00    +0.054 A 
ATOM     18  C   UNL     1      -5.977 -11.687  18.929  0.00  0.00    +0.054 A 
ATOM     21  C   UNL     1      -7.317 -11.373  19.156  0.00  0.00    +0.165 A 
ATOM     22  C   UNL     1      -7.305  -9.927  17.222  0.00  0.00    +0.165 A 
ATOM     24  C   UNL     1      -7.981 -10.493  18.303  0.00  0.00    +0.204 A 
BRANCH  21   1
ATOM      1  O   UNL     1      -7.965 -11.935  20.215  0.00  0.00    -0.491 OA
ATOM     26  C   UNL     1      -8.389 -13.289  20.071  0.00  0.00    +0.277 C 
ENDBRANCH  21   1
BRANCH  22   2
ATOM      2  O   UNL     1      -7.942  -9.063  16.381  0.00  0.00    -0.491 OA
ATOM     27  C   UNL     1      -8.380  -9.584  15.128  0.00  0.00    +0.277 C 
ENDBRANCH  22   2
BRANCH  24   4
ATOM      4  O   UNL     1      -9.291 -10.186  18.525  0.00  0.00    -0.488 OA
ATOM     29  C   UNL     1     -10.265 -11.028  17.910  0.00  0.00    +0.277 C 
ENDBRANCH  24   4
ENDBRANCH  13  14
ENDBRANCH   5  13
TORSDOF 7
ENDMDL
MODEL 2
REMARK VINA RESULT:      -6.6     27.065     29.260
REMARK  Name = 45784303
REMARK  11 active torsions:
REMARK  status: ('A' for Active; 'I' for Inactive)
REMARK    1  A    between atoms: O_1  and  C_21
REMARK    2  A    between atoms: O_1  and  C_26
REMARK    3  A    between atoms: O_2  and  C_22
REMARK    4  A    between atoms: O_2  and  C_27
REMARK    5  A    between atoms: O_3  and  C_23
REMARK    6  A    between atoms: O_3  and  C_28
REMARK    7  A    between atoms: O_4  and  C_24
REMARK    8  A    between atoms: O_4  and  C_29
REMARK    9  A    between atoms: N_5  and  C_13
REMARK   10  A    between atoms: C_8  and  C_12
REMARK   11  A    between atoms: C_13  and  C_14
REMARK                            x       y       z     vdW  Elec       q    Type
REMARK                         _______ _______ _______ _____ _____    ______ ____
ROOT
ATOM      5  N   UNL     1      11.495   8.720  22.003  0.00  0.00    -0.297 NA
ATOM      8  C   UNL     1      12.372   7.255  20.350  0.00  0.00    +0.070 C 
ATOM      9  C   UNL     1      11.688   6.473  21.481  0.00  0.00    +0.028 C 
ATOM     10  C   UNL     1      12.059   8.733  20.649  0.00  0.00    +0.096 C 
ATOM     11  C   UNL     1      10.732   7.478  22.102  0.00  0.00    +0.085 C 
ENDROOT
BRANCH   8  12
ATOM      6  N   UNL     1      14.693   7.066  21.289  0.00  0.00    -0.341 N 
ATOM      7  N   UNL     1      14.468   6.511  19.148  0.00  0.00    -0.232 NA
ATOM     12  C   UNL     1      13.845   6.933  20.226  0.00  0.00    +0.113 A 
ATOM     15  C   UNL     1      15.948   6.705  20.870  0.00  0.00    +0.070 A 
ATOM     16  C   UNL     1      15.781   6.363  19.531  0.00  0.00    +0.089 A 
ATOM     19  C   UNL     1      17.178   6.649  21.528  0.00  0.00    +0.073 A 
ATOM     20  C   UNL     1      16.897   5.938  18.789  0.00  0.00    +0.033 A 
ATOM     23  C   UNL     1      18.277   6.225  20.773  0.00  0.00    +0.122 A 
ATOM     25  C   UNL     1      18.140   5.875  19.428  0.00  0.00    +0.048 A 
ATOM     30  H   UNL     1      14.445   7.376  22.219  0.00  0.00    +0.167 HD
BRANCH  23   3
ATOM      3  O   UNL     1      19.503   6.151  21.365  0.00  0.00    -0.495 OA
ATOM     28  C   UNL     1      20.596   6.741  20.664  0.00  0.00    +0.277 C 
ENDBRANCH  23   3
ENDBRANCH   8  12
BRANCH   5  13
ATOM     13  C   UNL     1      10.685   9.898  22.281  0.00  0.00    +0.119 C 
BRANCH  13  14
ATOM     14  C   UNL     1      11.421  10.897  23.131  0.00  0.00    -0.026 A 
ATOM     17  C   UNL     1      10.709  11.814  23.904  0.00  0.00    +0.054 A 
ATOM     18  C   UNL     1      12.816  10.908  23.145  0.00  0.00    +0.054 A 
ATOM     21  C   UNL     1      13.499  11.835  23.933  0.00  0.00    +0.165 A 
ATOM     22  C   UNL     1      11.392  12.740  24.692  0.00  0.00    +0.165 A 
ATOM     24  C   UNL     1      12.787  12.752  24.707  0.00  0.00    +0.204 A 
BRANCH  21   1
ATOM      1  O   UNL     1      14.861  11.833  23.938  0.00  0.00    -0.491 OA
ATOM     26  C   UNL     1      15.513  11.239  22.818  0.00  0.00    +0.277 C 
ENDBRANCH  21   1
BRANCH  22   2
ATOM      2  O   UNL     1      10.684  13.632  25.443  0.00  0.00    -0.491 OA
ATOM     27  C   UNL     1      10.208  14.800  24.780  0.00  0.00    +0.277 C 
ENDBRANCH  22   2
BRANCH  24   4
ATOM      4  O   UNL     1      13.454  13.657  25.476  0.00  0.00    -0.488 OA
ATOM     29  C   UNL     1      13.774  13.262  26.809  0.00  0.00    +0.277 C 
ENDBRANCH  24   4
ENDBRANCH  13  14
ENDBRANCH   5  13
TORSDOF 7
ENDMDL
MODEL 3
REMARK VINA RESULT:      -6.5      0.161      2.256
REMARK  Name = 45784303
REMARK  11 active torsions:
REMARK  status: ('A' for Active; 'I' for Inactive)
REMARK    1  A    between atoms: O_1  and  C_21
REMARK    2  A    between atoms: O_1  and  C_26
REMARK    3  A    between atoms: O_2  and  C_22
REMARK    4  A    between atoms: O_2  and  C_27
REMARK    5  A    between atoms: O_3  and  C_23
REMARK    6  A    between atoms: O_3  and  C_28
REMARK    7  A    between atoms: O_4  and  C_24
REMARK    8  A    between atoms: O_4  and  C_29
REMARK    9  A    between atoms: N_5  and  C_13
REMARK   10  A    between atoms: C_8  and  C_12
REMARK   11  A    between atoms: C_13  and  C_14
REMARK                            x       y       z     vdW  Elec       q    Type
REMARK                         _______ _______ _______ _____ _____    ______ ____
ROOT
ATOM      5  N   UNL     1      -3.482 -10.964  16.413  0.00  0.00    -0.297 NA
ATOM      8  C   UNL     1      -2.656 -11.380  14.224  0.00  0.00    +0.070 C 
ATOM      9  C   UNL     1      -1.710 -10.459  15.010  0.00  0.00    +0.028 C 
ATOM     10  C   UNL     1      -3.711 -11.829  15.251  0.00  0.00    +0.096 C 
ATOM     11  C   UNL     1      -2.037 -10.747  16.465  0.00  0.00    +0.085 C 
ENDROOT
BRANCH   8  12
ATOM      6  N   UNL     1      -4.557 -10.470  12.859  0.00  0.00    -0.341 N 
ATOM      7  N   UNL     1      -2.543 -10.320  11.931  0.00  0.00    -0.232 NA
ATOM     12  C   UNL     1      -3.219 -10.718  12.985  0.00  0.00    +0.113 A 
ATOM     15  C   UNL     1      -4.758  -9.871  11.642  0.00  0.00    +0.070 A 
ATOM     16  C   UNL     1      -3.486  -9.788  11.082  0.00  0.00    +0.089 A 
ATOM     19  C   UNL     1      -5.908  -9.406  11.002  0.00  0.00    +0.073 A 
ATOM     20  C   UNL     1      -3.334  -9.213   9.809  0.00  0.00    +0.033 A 
ATOM     23  C   UNL     1      -5.738  -8.837   9.735  0.00  0.00    +0.122 A 
ATOM     25  C   UNL     1      -4.474  -8.741   9.148  0.00  0.00    +0.048 A 
ATOM     30  H   UNL     1      -5.274 -10.689  13.538  0.00  0.00    +0.167 HD
BRANCH  23   3
ATOM      3  O   UNL     1      -6.828  -8.367   9.064  0.00  0.00    -0.495 OA
ATOM     28  C   UNL     1      -8.097  -8.541   9.689  0.00  0.00    +0.277 C 
ENDBRANCH  23   3
ENDBRANCH   8  12
BRANCH   5  13
ATOM     13  C   UNL     1      -4.007 -11.534  17.645  0.00  0.00    +0.119 C 
BRANCH  13  14
ATOM     14  C   UNL     1      -5.448 -11.160  17.866  0.00  0.00    -0.026 A 
ATOM     17  C   UNL     1      -6.157 -11.718  18.930  0.00  0.00    +0.054 A 
ATOM     18  C   UNL     1      -6.075 -10.258  17.006  0.00  0.00    +0.054 A 
ATOM     21  C   UNL     1      -7.410  -9.913  17.211  0.00  0.00    +0.165 A 
ATOM     22  C   UNL     1      -7.493 -11.371  19.135  0.00  0.00    +0.165 A 
ATOM     24  C   UNL     1      -8.120 -10.469  18.275  0.00  0.00    +0.204 A 
BRANCH  21   1
ATOM      1  O   UNL     1      -8.010  -9.028  16.364  0.00  0.00    -0.491 OA
ATOM     26  C   UNL     1      -8.463  -9.536  15.111  0.00  0.00    +0.277 C 
ENDBRANCH  21   1
BRANCH  22   2
ATOM      2  O   UNL     1      -8.175 -11.923  20.177  0.00  0.00    -0.491 OA
ATOM     27  C   UNL     1      -8.418 -13.327  20.121  0.00  0.00    +0.277 C 
ENDBRANCH  22   2
BRANCH  24   4
ATOM      4  O   UNL     1      -9.425 -10.131  18.475  0.00  0.00    -0.488 OA
ATOM     29  C   UNL     1     -10.410 -10.988  17.900  0.00  0.00    +0.277 C 
ENDBRANCH  24   4
ENDBRANCH  13  14
ENDBRANCH   5  13
TORSDOF 7
ENDMDL
MODEL 4
REMARK VINA RESULT:      -6.4     19.020     21.253
REMARK  Name = 45784303
REMARK  11 active torsions:
REMARK  status: ('A' for Active; 'I' for Inactive)
REMARK    1  A    between atoms: O_1  and  C_21
REMARK    2  A    between atoms: O_1  and  C_26
REMARK    3  A    between atoms: O_2  and  C_22
REMARK    4  A    between atoms: O_2  and  C_27
REMARK    5  A    between atoms: O_3  and  C_23
REMARK    6  A    between atoms: O_3  and  C_28
REMARK    7  A    between atoms: O_4  and  C_24
REMARK    8  A    between atoms: O_4  and  C_29
REMARK    9  A    between atoms: N_5  and  C_13
REMARK   10  A    between atoms: C_8  and  C_12
REMARK   11  A    between atoms: C_13  and  C_14
REMARK                            x       y       z     vdW  Elec       q    Type
REMARK                         _______ _______ _______ _____ _____    ______ ____
ROOT
ATOM      5  N   UNL     1     -16.525   3.781  26.721  0.00  0.00    -0.297 NA
ATOM      8  C   UNL     1     -16.687   4.117  24.374  0.00  0.00    +0.070 C 
ATOM      9  C   UNL     1     -16.045   2.760  24.699  0.00  0.00    +0.028 C 
ATOM     10  C   UNL     1     -17.149   4.670  25.735  0.00  0.00    +0.096 C 
ATOM     11  C   UNL     1     -16.520   2.454  26.110  0.00  0.00    +0.085 C 
ENDROOT
BRANCH   8  12
ATOM      6  N   UNL     1     -14.626   4.553  23.006  0.00  0.00    -0.341 N 
ATOM      7  N   UNL     1     -15.909   6.322  23.412  0.00  0.00    -0.232 NA
ATOM     12  C   UNL     1     -15.760   5.030  23.602  0.00  0.00    +0.113 A 
ATOM     15  C   UNL     1     -14.001   5.607  22.391  0.00  0.00    +0.070 A 
ATOM     16  C   UNL     1     -14.821   6.700  22.659  0.00  0.00    +0.089 A 
ATOM     19  C   UNL     1     -12.826   5.696  21.645  0.00  0.00    +0.073 A 
ATOM     20  C   UNL     1     -14.461   7.964  22.162  0.00  0.00    +0.033 A 
ATOM     23  C   UNL     1     -12.483   6.963  21.159  0.00  0.00    +0.122 A 
ATOM     25  C   UNL     1     -13.285   8.077  21.411  0.00  0.00    +0.048 A 
ATOM     30  H   UNL     1     -14.302   3.595  23.017  0.00  0.00    +0.167 HD
BRANCH  23   3
ATOM      3  O   UNL     1     -11.343   7.108  20.423  0.00  0.00    -0.495 OA
ATOM     28  C   UNL     1     -11.501   7.338  19.025  0.00  0.00    +0.277 C 
ENDBRANCH  23   3
ENDBRANCH   8  12
BRANCH   5  13
ATOM     13  C   UNL     1     -17.212   3.803  28.005  0.00  0.00    +0.119 C 
BRANCH  13  14
ATOM     14  C   UNL     1     -16.320   3.338  29.125  0.00  0.00    -0.026 A 
ATOM     17  C   UNL     1     -15.742   4.270  29.988  0.00  0.00    +0.054 A 
ATOM     18  C   UNL     1     -16.071   1.977  29.299  0.00  0.00    +0.054 A 
ATOM     21  C   UNL     1     -15.244   1.547  30.337  0.00  0.00    +0.165 A 
ATOM     22  C   UNL     1     -14.917   3.839  31.026  0.00  0.00    +0.165 A 
ATOM     24  C   UNL     1     -14.667   2.478  31.201  0.00  0.00    +0.204 A 
BRANCH  21   1
ATOM      1  O   UNL     1     -15.011   0.214  30.498  0.00  0.00    -0.491 OA
ATOM     26  C   UNL     1     -13.979  -0.364  29.700  0.00  0.00    +0.277 C 
ENDBRANCH  21   1
BRANCH  22   2
ATOM      2  O   UNL     1     -14.357   4.759  31.862  0.00  0.00    -0.491 OA
ATOM     27  C   UNL     1     -14.997   6.030  31.946  0.00  0.00    +0.277 C 
ENDBRANCH  22   2
BRANCH  24   4
ATOM      4  O   UNL     1     -13.859   2.057  32.215  0.00  0.00    -0.488 OA
ATOM     29  C   UNL     1     -14.493   1.716  33.447  0.00  0.00    +0.277 C 
ENDBRANCH  24   4
ENDBRANCH  13  14
ENDBRANCH   5  13
TORSDOF 7
ENDMDL
MODEL 5
REMARK VINA RESULT:      -6.4     19.202     21.348
REMARK  Name = 45784303
REMARK  11 active torsions:
REMARK  status: ('A' for Active; 'I' for Inactive)
REMARK    1  A    between atoms: O_1  and  C_21
REMARK    2  A    between atoms: O_1  and  C_26
REMARK    3  A    between atoms: O_2  and  C_22
REMARK    4  A    between atoms: O_2  and  C_27
REMARK    5  A    between atoms: O_3  and  C_23
REMARK    6  A    between atoms: O_3  and  C_28
REMARK    7  A    between atoms: O_4  and  C_24
REMARK    8  A    between atoms: O_4  and  C_29
REMARK    9  A    between atoms: N_5  and  C_13
REMARK   10  A    between atoms: C_8  and  C_12
REMARK   11  A    between atoms: C_13  and  C_14
REMARK                            x       y       z     vdW  Elec       q    Type
REMARK                         _______ _______ _______ _____ _____    ______ ____
ROOT
ATOM      5  N   UNL     1     -16.505   3.800  26.733  0.00  0.00    -0.297 NA
ATOM      8  C   UNL     1     -16.645   4.121  24.383  0.00  0.00    +0.070 C 
ATOM      9  C   UNL     1     -15.988   2.775  24.722  0.00  0.00    +0.028 C 
ATOM     10  C   UNL     1     -17.129   4.675  25.735  0.00  0.00    +0.096 C 
ATOM     11  C   UNL     1     -16.474   2.470  26.129  0.00  0.00    +0.085 C 
ENDROOT
BRANCH   8  12
ATOM      6  N   UNL     1     -14.578   4.578  23.032  0.00  0.00    -0.341 N 
ATOM      7  N   UNL     1     -15.885   6.333  23.421  0.00  0.00    -0.232 NA
ATOM     12  C   UNL     1     -15.722   5.043  23.616  0.00  0.00    +0.113 A 
ATOM     15  C   UNL     1     -13.960   5.637  22.419  0.00  0.00    +0.070 A 
ATOM     16  C   UNL     1     -14.795   6.721  22.676  0.00  0.00    +0.089 A 
ATOM     19  C   UNL     1     -12.778   5.738  21.683  0.00  0.00    +0.073 A 
ATOM     20  C   UNL     1     -14.446   7.988  22.178  0.00  0.00    +0.033 A 
ATOM     23  C   UNL     1     -12.446   7.007  21.196  0.00  0.00    +0.122 A 
ATOM     25  C   UNL     1     -13.264   8.113  21.438  0.00  0.00    +0.048 A 
ATOM     30  H   UNL     1     -14.242   3.624  23.049  0.00  0.00    +0.167 HD
BRANCH  23   3
ATOM      3  O   UNL     1     -11.302   7.164  20.470  0.00  0.00    -0.495 OA
ATOM     28  C   UNL     1     -11.302   8.185  19.476  0.00  0.00    +0.277 C 
ENDBRANCH  23   3
ENDBRANCH   8  12
BRANCH   5  13
ATOM     13  C   UNL     1     -17.206   3.819  28.009  0.00  0.00    +0.119 C 
BRANCH  13  14
ATOM     14  C   UNL     1     -16.325   3.361  29.140  0.00  0.00    -0.026 A 
ATOM     17  C   UNL     1     -16.126   1.998  29.361  0.00  0.00    +0.054 A 
ATOM     18  C   UNL     1     -15.708   4.299  29.968  0.00  0.00    +0.054 A 
ATOM     21  C   UNL     1     -14.892   3.874  31.016  0.00  0.00    +0.165 A 
ATOM     22  C   UNL     1     -15.308   1.574  30.408  0.00  0.00    +0.165 A 
ATOM     24  C   UNL     1     -14.692   2.512  31.237  0.00  0.00    +0.204 A 
BRANCH  21   1
ATOM      1  O   UNL     1     -14.294   4.802  31.816  0.00  0.00    -0.491 OA
ATOM     26  C   UNL     1     -15.134   5.516  32.721  0.00  0.00    +0.277 C 
ENDBRANCH  21   1
BRANCH  22   2
ATOM      2  O   UNL     1     -15.123   0.239  30.614  0.00  0.00    -0.491 OA
ATOM     27  C   UNL     1     -14.123  -0.404  29.828  0.00  0.00    +0.277 C 
ENDBRANCH  22   2
BRANCH  24   4
ATOM      4  O   UNL     1     -13.894   2.097  32.261  0.00  0.00    -0.488 OA
ATOM     29  C   UNL     1     -14.539   1.775  33.492  0.00  0.00    +0.277 C 
ENDBRANCH  24   4
ENDBRANCH  13  14
ENDBRANCH   5  13
TORSDOF 7
ENDMDL
MODEL 6
REMARK VINA RESULT:      -6.3     25.993     27.851
REMARK  Name = 45784303
REMARK  11 active torsions:
REMARK  status: ('A' for Active; 'I' for Inactive)
REMARK    1  A    between atoms: O_1  and  C_21
REMARK    2  A    between atoms: O_1  and  C_26
REMARK    3  A    between atoms: O_2  and  C_22
REMARK    4  A    between atoms: O_2  and  C_27
REMARK    5  A    between atoms: O_3  and  C_23
REMARK    6  A    between atoms: O_3  and  C_28
REMARK    7  A    between atoms: O_4  and  C_24
REMARK    8  A    between atoms: O_4  and  C_29
REMARK    9  A    between atoms: N_5  and  C_13
REMARK   10  A    between atoms: C_8  and  C_12
REMARK   11  A    between atoms: C_13  and  C_14
REMARK                            x       y       z     vdW  Elec       q    Type
REMARK                         _______ _______ _______ _____ _____    ______ ____
ROOT
ATOM      5  N   UNL     1      14.256  11.644  16.322  0.00  0.00    -0.297 NA
ATOM      8  C   UNL     1      14.286  12.677  14.182  0.00  0.00    +0.070 C 
ATOM      9  C   UNL     1      13.844  13.666  15.272  0.00  0.00    +0.028 C 
ATOM     10  C   UNL     1      14.719  11.414  14.949  0.00  0.00    +0.096 C 
ATOM     11  C   UNL     1      14.406  13.078  16.556  0.00  0.00    +0.085 C 
ENDROOT
BRANCH   8  12
ATOM      6  N   UNL     1      11.890  12.498  13.452  0.00  0.00    -0.341 N 
ATOM      7  N   UNL     1      13.411  12.181  11.863  0.00  0.00    -0.232 NA
ATOM     12  C   UNL     1      13.219  12.447  13.135  0.00  0.00    +0.113 A 
ATOM     15  C   UNL     1      11.177  12.249  12.308  0.00  0.00    +0.070 A 
ATOM     16  C   UNL     1      12.148  12.055  11.330  0.00  0.00    +0.089 A 
ATOM     19  C   UNL     1       9.807  12.181  12.051  0.00  0.00    +0.073 A 
ATOM     20  C   UNL     1      11.748  11.774  10.013  0.00  0.00    +0.033 A 
ATOM     23  C   UNL     1       9.426  11.900  10.734  0.00  0.00    +0.122 A 
ATOM     25  C   UNL     1      10.378  11.700   9.732  0.00  0.00    +0.048 A 
ATOM     30  H   UNL     1      11.499  12.684  14.366  0.00  0.00    +0.167 HD
BRANCH  23   3
ATOM      3  O   UNL     1       8.100  11.821  10.426  0.00  0.00    -0.495 OA
ATOM     28  C   UNL     1       7.440  13.040  10.094  0.00  0.00    +0.277 C 
ENDBRANCH  23   3
ENDBRANCH   8  12
BRANCH   5  13
ATOM     13  C   UNL     1      14.980  10.840  17.296  0.00  0.00    +0.119 C 
BRANCH  13  14
ATOM     14  C   UNL     1      14.070   9.885  18.022  0.00  0.00    -0.026 A 
ATOM     17  C   UNL     1      14.490   9.292  19.213  0.00  0.00    +0.054 A 
ATOM     18  C   UNL     1      12.809   9.592  17.503  0.00  0.00    +0.054 A 
ATOM     21  C   UNL     1      11.967   8.707  18.176  0.00  0.00    +0.165 A 
ATOM     22  C   UNL     1      13.646   8.408  19.886  0.00  0.00    +0.165 A 
ATOM     24  C   UNL     1      12.385   8.115  19.367  0.00  0.00    +0.204 A 
BRANCH  21   1
ATOM      1  O   UNL     1      10.736   8.432  17.658  0.00  0.00    -0.491 OA
ATOM     26  C   UNL     1      10.548   8.679  16.267  0.00  0.00    +0.277 C 
ENDBRANCH  21   1
BRANCH  22   2
ATOM      2  O   UNL     1      14.068   7.834  21.048  0.00  0.00    -0.491 OA
ATOM     27  C   UNL     1      14.501   8.713  22.083  0.00  0.00    +0.277 C 
ENDBRANCH  22   2
BRANCH  24   4
ATOM      4  O   UNL     1      11.561   7.250  20.024  0.00  0.00    -0.488 OA
ATOM     29  C   UNL     1      10.756   7.792  21.069  0.00  0.00    +0.277 C 
ENDBRANCH  24   4
ENDBRANCH  13  14
ENDBRANCH   5  13
TORSDOF 7
ENDMDL
MODEL 7
REMARK VINA RESULT:      -6.3      2.810      7.546
REMARK  Name = 45784303
REMARK  11 active torsions:
REMARK  status: ('A' for Active; 'I' for Inactive)
REMARK    1  A    between atoms: O_1  and  C_21
REMARK    2  A    between atoms: O_1  and  C_26
REMARK    3  A    between atoms: O_2  and  C_22
REMARK    4  A    between atoms: O_2  and  C_27
REMARK    5  A    between atoms: O_3  and  C_23
REMARK    6  A    between atoms: O_3  and  C_28
REMARK    7  A    between atoms: O_4  and  C_24
REMARK    8  A    between atoms: O_4  and  C_29
REMARK    9  A    between atoms: N_5  and  C_13
REMARK   10  A    between atoms: C_8  and  C_12
REMARK   11  A    between atoms: C_13  and  C_14
REMARK                            x       y       z     vdW  Elec       q    Type
REMARK                         _______ _______ _______ _____ _____    ______ ____
ROOT
ATOM      5  N   UNL     1      -4.554 -11.137  16.279  0.00  0.00    -0.297 NA
ATOM      8  C   UNL     1      -5.995 -10.504  18.060  0.00  0.00    +0.070 C 
ATOM      9  C   UNL     1      -5.898 -12.032  17.939  0.00  0.00    +0.028 C 
ATOM     10  C   UNL     1      -4.953  -9.963  17.063  0.00  0.00    +0.096 C 
ATOM     11  C   UNL     1      -4.585 -12.264  17.209  0.00  0.00    +0.085 C 
ENDROOT
BRANCH   8  12
ATOM      6  N   UNL     1      -7.653  -8.933  17.016  0.00  0.00    -0.341 N 
ATOM      7  N   UNL     1      -8.500 -10.457  18.394  0.00  0.00    -0.232 NA
ATOM     12  C   UNL     1      -7.401  -9.990  17.846  0.00  0.00    +0.113 A 
ATOM     15  C   UNL     1      -9.005  -8.704  17.029  0.00  0.00    +0.070 A 
ATOM     16  C   UNL     1      -9.511  -9.668  17.897  0.00  0.00    +0.089 A 
ATOM     19  C   UNL     1      -9.805  -7.765  16.376  0.00  0.00    +0.073 A 
ATOM     20  C   UNL     1     -10.895  -9.711  18.139  0.00  0.00    +0.033 A 
ATOM     23  C   UNL     1     -11.179  -7.823  16.630  0.00  0.00    +0.122 A 
ATOM     25  C   UNL     1     -11.716  -8.779  17.496  0.00  0.00    +0.048 A 
ATOM     30  H   UNL     1      -6.968  -8.411  16.487  0.00  0.00    +0.167 HD
BRANCH  23   3
ATOM      3  O   UNL     1     -12.008  -6.929  16.019  0.00  0.00    -0.495 OA
ATOM     28  C   UNL     1     -11.393  -5.865  15.298  0.00  0.00    +0.277 C 
ENDBRANCH  23   3
ENDBRANCH   8  12
BRANCH   5  13
ATOM     13  C   UNL     1      -3.254 -10.969  15.646  0.00  0.00    +0.119 C 
BRANCH  13  14
ATOM     14  C   UNL     1      -3.377 -10.765  14.160  0.00  0.00    -0.026 A 
ATOM     17  C   UNL     1      -4.633 -10.792  13.554  0.00  0.00    +0.054 A 
ATOM     18  C   UNL     1      -2.235 -10.550  13.388  0.00  0.00    +0.054 A 
ATOM     21  C   UNL     1      -2.349 -10.361  12.011  0.00  0.00    +0.165 A 
ATOM     22  C   UNL     1      -4.746 -10.602  12.176  0.00  0.00    +0.165 A 
ATOM     24  C   UNL     1      -3.604 -10.387  11.405  0.00  0.00    +0.204 A 
BRANCH  21   1
ATOM      1  O   UNL     1      -1.225 -10.149  11.270  0.00  0.00    -0.491 OA
ATOM     26  C   UNL     1      -0.634  -8.854  11.344  0.00  0.00    +0.277 C 
ENDBRANCH  21   1
BRANCH  22   2
ATOM      2  O   UNL     1      -5.979 -10.632  11.596  0.00  0.00    -0.491 OA
ATOM     27  C   UNL     1      -6.871  -9.567  11.916  0.00  0.00    +0.277 C 
ENDBRANCH  22   2
BRANCH  24   4
ATOM      4  O   UNL     1      -3.715 -10.202  10.059  0.00  0.00    -0.488 OA
ATOM     29  C   UNL     1      -3.932  -8.867   9.605  0.00  0.00    +0.277 C 
ENDBRANCH  24   4
ENDBRANCH  13  14
ENDBRANCH   5  13
TORSDOF 7
ENDMDL
MODEL 8
REMARK VINA RESULT:      -6.2      2.870      7.596
REMARK  Name = 45784303
REMARK  11 active torsions:
REMARK  status: ('A' for Active; 'I' for Inactive)
REMARK    1  A    between atoms: O_1  and  C_21
REMARK    2  A    between atoms: O_1  and  C_26
REMARK    3  A    between atoms: O_2  and  C_22
REMARK    4  A    between atoms: O_2  and  C_27
REMARK    5  A    between atoms: O_3  and  C_23
REMARK    6  A    between atoms: O_3  and  C_28
REMARK    7  A    between atoms: O_4  and  C_24
REMARK    8  A    between atoms: O_4  and  C_29
REMARK    9  A    between atoms: N_5  and  C_13
REMARK   10  A    between atoms: C_8  and  C_12
REMARK   11  A    between atoms: C_13  and  C_14
REMARK                            x       y       z     vdW  Elec       q    Type
REMARK                         _______ _______ _______ _____ _____    ______ ____
ROOT
ATOM      5  N   UNL     1      -4.606 -11.214  16.178  0.00  0.00    -0.297 NA
ATOM      8  C   UNL     1      -6.071 -10.838  18.011  0.00  0.00    +0.070 C 
ATOM      9  C   UNL     1      -6.019 -12.327  17.635  0.00  0.00    +0.028 C 
ATOM     10  C   UNL     1      -4.987 -10.176  17.141  0.00  0.00    +0.096 C 
ATOM     11  C   UNL     1      -4.696 -12.480  16.904  0.00  0.00    +0.085 C 
ENDROOT
BRANCH   8  12
ATOM      6  N   UNL     1      -7.653  -9.067  17.196  0.00  0.00    -0.341 N 
ATOM      7  N   UNL     1      -8.579 -10.751  18.313  0.00  0.00    -0.232 NA
ATOM     12  C   UNL     1      -7.454 -10.246  17.858  0.00  0.00    +0.113 A 
ATOM     15  C   UNL     1      -8.996  -8.792  17.226  0.00  0.00    +0.070 A 
ATOM     16  C   UNL     1      -9.553  -9.857  17.928  0.00  0.00    +0.089 A 
ATOM     19  C   UNL     1      -9.750  -7.735  16.713  0.00  0.00    +0.073 A 
ATOM     20  C   UNL     1     -10.941  -9.886  18.141  0.00  0.00    +0.033 A 
ATOM     23  C   UNL     1     -11.131  -7.780  16.935  0.00  0.00    +0.122 A 
ATOM     25  C   UNL     1     -11.717  -8.836  17.636  0.00  0.00    +0.048 A 
ATOM     30  H   UNL     1      -6.940  -8.495  16.763  0.00  0.00    +0.167 HD
BRANCH  23   3
ATOM      3  O   UNL     1     -11.916  -6.773  16.456  0.00  0.00    -0.495 OA
ATOM     28  C   UNL     1     -11.403  -6.018  15.362  0.00  0.00    +0.277 C 
ENDBRANCH  23   3
ENDBRANCH   8  12
BRANCH   5  13
ATOM     13  C   UNL     1      -3.285 -10.990  15.608  0.00  0.00    +0.119 C 
BRANCH  13  14
ATOM     14  C   UNL     1      -3.344 -10.792  14.118  0.00  0.00    -0.026 A 
ATOM     17  C   UNL     1      -2.172 -10.546  13.401  0.00  0.00    +0.054 A 
ATOM     18  C   UNL     1      -4.568 -10.851  13.453  0.00  0.00    +0.054 A 
ATOM     21  C   UNL     1      -4.622 -10.667  12.072  0.00  0.00    +0.165 A 
ATOM     22  C   UNL     1      -2.227 -10.363  12.019  0.00  0.00    +0.165 A 
ATOM     24  C   UNL     1      -3.451 -10.423  11.354  0.00  0.00    +0.204 A 
BRANCH  21   1
ATOM      1  O   UNL     1      -5.826 -10.730  11.435  0.00  0.00    -0.491 OA
ATOM     26  C   UNL     1      -6.366 -12.029  11.198  0.00  0.00    +0.277 C 
ENDBRANCH  21   1
BRANCH  22   2
ATOM      2  O   UNL     1      -1.075 -10.123  11.330  0.00  0.00    -0.491 OA
ATOM     27  C   UNL     1      -0.549  -8.800  11.389  0.00  0.00    +0.277 C 
ENDBRANCH  22   2
BRANCH  24   4
ATOM      4  O   UNL     1      -3.504 -10.243  10.004  0.00  0.00    -0.488 OA
ATOM     29  C   UNL     1      -3.813  -8.930   9.539  0.00  0.00    +0.277 C 
ENDBRANCH  24   4
ENDBRANCH  13  14
ENDBRANCH   5  13
TORSDOF 7
ENDMDL
MODEL 9
REMARK VINA RESULT:      -6.1     19.293     20.904
REMARK  Name = 45784303
REMARK  11 active torsions:
REMARK  status: ('A' for Active; 'I' for Inactive)
REMARK    1  A    between atoms: O_1  and  C_21
REMARK    2  A    between atoms: O_1  and  C_26
REMARK    3  A    between atoms: O_2  and  C_22
REMARK    4  A    between atoms: O_2  and  C_27
REMARK    5  A    between atoms: O_3  and  C_23
REMARK    6  A    between atoms: O_3  and  C_28
REMARK    7  A    between atoms: O_4  and  C_24
REMARK    8  A    between atoms: O_4  and  C_29
REMARK    9  A    between atoms: N_5  and  C_13
REMARK   10  A    between atoms: C_8  and  C_12
REMARK   11  A    between atoms: C_13  and  C_14
REMARK                            x       y       z     vdW  Elec       q    Type
REMARK                         _______ _______ _______ _____ _____    ______ ____
ROOT
ATOM      5  N   UNL     1     -16.484   4.497  25.415  0.00  0.00    -0.297 NA
ATOM      8  C   UNL     1     -16.381   5.050  23.106  0.00  0.00    +0.070 C 
ATOM      9  C   UNL     1     -16.105   3.556  23.334  0.00  0.00    +0.028 C 
ATOM     10  C   UNL     1     -16.802   5.587  24.486  0.00  0.00    +0.096 C 
ATOM     11  C   UNL     1     -16.745   3.262  24.680  0.00  0.00    +0.085 C 
ENDROOT
BRANCH   8  12
ATOM      6  N   UNL     1     -15.221   7.125  22.298  0.00  0.00    -0.341 N 
ATOM      7  N   UNL     1     -14.093   5.227  22.045  0.00  0.00    -0.232 NA
ATOM     12  C   UNL     1     -15.209   5.770  22.477  0.00  0.00    +0.113 A 
ATOM     15  C   UNL     1     -14.034   7.480  21.710  0.00  0.00    +0.070 A 
ATOM     16  C   UNL     1     -13.347   6.278  21.563  0.00  0.00    +0.089 A 
ATOM     19  C   UNL     1     -13.516   8.712  21.309  0.00  0.00    +0.073 A 
ATOM     20  C   UNL     1     -12.068   6.286  20.981  0.00  0.00    +0.033 A 
ATOM     23  C   UNL     1     -12.242   8.701  20.731  0.00  0.00    +0.122 A 
ATOM     25  C   UNL     1     -11.529   7.511  20.570  0.00  0.00    +0.048 A 
ATOM     30  H   UNL     1     -15.970   7.756  22.550  0.00  0.00    +0.167 HD
BRANCH  23   3
ATOM      3  O   UNL     1     -11.687   9.877  20.319  0.00  0.00    -0.495 OA
ATOM     28  C   UNL     1     -10.490   9.793  19.549  0.00  0.00    +0.277 C 
ENDBRANCH  23   3
ENDBRANCH   8  12
BRANCH   5  13
ATOM     13  C   UNL     1     -17.242   4.582  26.655  0.00  0.00    +0.119 C 
BRANCH  13  14
ATOM     14  C   UNL     1     -16.835   3.514  27.635  0.00  0.00    -0.026 A 
ATOM     17  C   UNL     1     -17.462   2.268  27.607  0.00  0.00    +0.054 A 
ATOM     18  C   UNL     1     -15.833   3.771  28.571  0.00  0.00    +0.054 A 
ATOM     21  C   UNL     1     -15.457   2.781  29.479  0.00  0.00    +0.165 A 
ATOM     22  C   UNL     1     -17.084   1.278  28.515  0.00  0.00    +0.165 A 
ATOM     24  C   UNL     1     -16.082   1.535  29.451  0.00  0.00    +0.204 A 
BRANCH  21   1
ATOM      1  O   UNL     1     -14.475   3.045  30.386  0.00  0.00    -0.491 OA
ATOM     26  C   UNL     1     -14.726   4.085  31.329  0.00  0.00    +0.277 C 
ENDBRANCH  21   1
BRANCH  22   2
ATOM      2  O   UNL     1     -17.704   0.065  28.479  0.00  0.00    -0.491 OA
ATOM     27  C   UNL     1     -18.929  -0.014  27.754  0.00  0.00    +0.277 C 
ENDBRANCH  22   2
BRANCH  24   4
ATOM      4  O   UNL     1     -15.714   0.568  30.339  0.00  0.00    -0.488 OA
ATOM     29  C   UNL     1     -14.581  -0.228  29.995  0.00  0.00    +0.277 C 
ENDBRANCH  24   4
ENDBRANCH  13  14
ENDBRANCH   5  13
TORSDOF 7
ENDMDL
MODEL 10
REMARK VINA RESULT:      -5.9      2.817      5.262
REMARK  Name = 45784303
REMARK  11 active torsions:
REMARK  status: ('A' for Active; 'I' for Inactive)
REMARK    1  A    between atoms: O_1  and  C_21
REMARK    2  A    between atoms: O_1  and  C_26
REMARK    3  A    between atoms: O_2  and  C_22
REMARK    4  A    between atoms: O_2  and  C_27
REMARK    5  A    between atoms: O_3  and  C_23
REMARK    6  A    between atoms: O_3  and  C_28
REMARK    7  A    between atoms: O_4  and  C_24
REMARK    8  A    between atoms: O_4  and  C_29
REMARK    9  A    between atoms: N_5  and  C_13
REMARK   10  A    between atoms: C_8  and  C_12
REMARK   11  A    between atoms: C_13  and  C_14
REMARK                            x       y       z     vdW  Elec       q    Type
REMARK                         _______ _______ _______ _____ _____    ______ ____
ROOT
ATOM      5  N   UNL     1      -4.251 -10.702  11.081  0.00  0.00    -0.297 NA
ATOM      8  C   UNL     1      -4.572  -9.982   8.839  0.00  0.00    +0.070 C 
ATOM      9  C   UNL     1      -3.666  -9.011   9.612  0.00  0.00    +0.028 C 
ATOM     10  C   UNL     1      -4.781 -11.170   9.796  0.00  0.00    +0.096 C 
ATOM     11  C   UNL     1      -3.112  -9.848  10.752  0.00  0.00    +0.085 C 
ENDROOT
BRANCH   8  12
ATOM      6  N   UNL     1      -6.297  -8.158   8.894  0.00  0.00    -0.341 N 
ATOM      7  N   UNL     1      -6.644  -9.772   7.406  0.00  0.00    -0.232 NA
ATOM     12  C   UNL     1      -5.847  -9.329   8.352  0.00  0.00    +0.113 A 
ATOM     15  C   UNL     1      -7.462  -7.821   8.254  0.00  0.00    +0.070 A 
ATOM     16  C   UNL     1      -7.657  -8.844   7.330  0.00  0.00    +0.089 A 
ATOM     19  C   UNL     1      -8.335  -6.742   8.399  0.00  0.00    +0.073 A 
ATOM     20  C   UNL     1      -8.786  -8.804   6.493  0.00  0.00    +0.033 A 
ATOM     23  C   UNL     1      -9.453  -6.720   7.558  0.00  0.00    +0.122 A 
ATOM     25  C   UNL     1      -9.676  -7.732   6.621  0.00  0.00    +0.048 A 
ATOM     30  H   UNL     1      -5.854  -7.632   9.635  0.00  0.00    +0.167 HD
BRANCH  23   3
ATOM      3  O   UNL     1     -10.340  -5.689   7.657  0.00  0.00    -0.495 OA
ATOM     28  C   UNL     1     -10.239  -4.856   8.809  0.00  0.00    +0.277 C 
ENDBRANCH  23   3
ENDBRANCH   8  12
BRANCH   5  13
ATOM     13  C   UNL     1      -3.891 -11.798  11.969  0.00  0.00    +0.119 C 
BRANCH  13  14
ATOM     14  C   UNL     1      -4.100 -11.439  13.415  0.00  0.00    -0.026 A 
ATOM     17  C   UNL     1      -5.390 -11.399  13.944  0.00  0.00    +0.054 A 
ATOM     18  C   UNL     1      -3.004 -11.145  14.227  0.00  0.00    +0.054 A 
ATOM     21  C   UNL     1      -3.198 -10.813  15.567  0.00  0.00    +0.165 A 
ATOM     22  C   UNL     1      -5.583 -11.067  15.286  0.00  0.00    +0.165 A 
ATOM     24  C   UNL     1      -4.487 -10.773  16.097  0.00  0.00    +0.204 A 
BRANCH  21   1
ATOM      1  O   UNL     1      -2.118 -10.530  16.349  0.00  0.00    -0.491 OA
ATOM     26  C   UNL     1      -0.909 -10.174  15.681  0.00  0.00    +0.277 C 
ENDBRANCH  21   1
BRANCH  22   2
ATOM      2  O   UNL     1      -6.849 -11.030  15.790  0.00  0.00    -0.491 OA
ATOM     27  C   UNL     1      -7.667  -9.929  15.405  0.00  0.00    +0.277 C 
ENDBRANCH  22   2
BRANCH  24   4
ATOM      4  O   UNL     1      -4.676 -10.448  17.407  0.00  0.00    -0.488 OA
ATOM     29  C   UNL     1      -4.639 -11.517  18.351  0.00  0.00    +0.277 C 
ENDBRANCH  24   4
ENDBRANCH  13  14
ENDBRANCH   5  13
TORSDOF 7
ENDMDL
