MODEL 1
REMARK VINA RESULT:      -7.6      0.000      0.000
REMARK  Name = 71693625
REMARK  7 active torsions:
REMARK  status: ('A' for Active; 'I' for Inactive)
REMARK    1  A    between atoms: O_2  and  C_12
REMARK    2  A    between atoms: N_6  and  C_15
REMARK    3  A    between atoms: N_7  and  C_20
REMARK    4  A    between atoms: C_9  and  C_12
REMARK    5  A    between atoms: C_10  and  C_11
REMARK    6  A    between atoms: C_21  and  C_22
REMARK    7  A    between atoms: C_24  and  C_25
REMARK                            x       y       z     vdW  Elec       q    Type
REMARK                         _______ _______ _______ _____ _____    ______ ____
ROOT
ATOM     11  C   UNL     1      15.789   7.386  19.741  0.00  0.00    -0.017 A 
ATOM     16  C   UNL     1      16.742   7.933  20.600  0.00  0.00    +0.008 A 
ATOM     17  C   UNL     1      16.100   6.255  18.984  0.00  0.00    +0.008 A 
ATOM     18  C   UNL     1      18.006   7.352  20.701  0.00  0.00    +0.023 A 
ATOM     19  C   UNL     1      17.363   5.675  19.085  0.00  0.00    +0.023 A 
ATOM     20  C   UNL     1      18.317   6.222  19.944  0.00  0.00    +0.034 A 
ENDROOT
BRANCH  11  10
ATOM      1  O   UNL     1      13.994   7.864  18.276  0.00  0.00    -0.361 OA
ATOM      3  O   UNL     1      10.540   8.685  18.570  0.00  0.00    -0.273 OA
ATOM      6  N   UNL     1      11.992   7.867  20.198  0.00  0.00    -0.295 N 
ATOM      9  C   UNL     1      13.350   7.375  20.538  0.00  0.00    +0.134 C 
ATOM     10  C   UNL     1      14.417   8.018  19.632  0.00  0.00    +0.171 C 
ATOM     13  C   UNL     1      12.850   8.643  18.018  0.00  0.00    +0.256 C 
ATOM     14  C   UNL     1      11.676   8.383  18.940  0.00  0.00    +0.242 C 
ATOM     15  C   UNL     1      10.904   7.577  21.129  0.00  0.00    +0.132 C 
BRANCH   9  12
ATOM     12  C   UNL     1      13.699   7.588  22.018  0.00  0.00    +0.181 C 
BRANCH  12   2
ATOM      2  O   UNL     1      13.766   8.977  22.260  0.00  0.00    -0.393 OA
ATOM     26  H   UNL     1      14.131   9.097  23.153  0.00  0.00    +0.209 HD
ENDBRANCH  12   2
ENDBRANCH   9  12
ENDBRANCH  11  10
BRANCH  20   7
ATOM      4  O   UNL     1      20.215   6.101  22.261  0.00  0.00    -0.268 OA
ATOM      7  N   UNL     1      19.581   5.640  20.045  0.00  0.00    -0.280 N 
ATOM     21  C   UNL     1      20.432   5.612  21.158  0.00  0.00    +0.270 C 
ATOM     27  H   UNL     1      19.917   5.179  19.201  0.00  0.00    +0.155 HD
BRANCH  21  22
ATOM      5  O   UNL     1      23.788   4.575  20.438  0.00  0.00    -0.359 OA
ATOM      8  N   UNL     1      22.785   5.534  20.497  0.00  0.00    -0.073 NA
ATOM     22  C   UNL     1      21.713   4.885  20.963  0.00  0.00    +0.168 A 
ATOM     23  C   UNL     1      21.979   3.528  21.212  0.00  0.00    +0.080 A 
ATOM     24  C   UNL     1      23.296   3.384  20.867  0.00  0.00    +0.135 A 
ATOM     25  C   UNL     1      24.231   2.253  20.869  0.00  0.00    +0.089 C 
ENDBRANCH  21  22
ENDBRANCH  20   7
TORSDOF 5
ENDMDL
MODEL 2
REMARK VINA RESULT:      -7.5      1.670      9.267
REMARK  Name = 71693625
REMARK  7 active torsions:
REMARK  status: ('A' for Active; 'I' for Inactive)
REMARK    1  A    between atoms: O_2  and  C_12
REMARK    2  A    between atoms: N_6  and  C_15
REMARK    3  A    between atoms: N_7  and  C_20
REMARK    4  A    between atoms: C_9  and  C_12
REMARK    5  A    between atoms: C_10  and  C_11
REMARK    6  A    between atoms: C_21  and  C_22
REMARK    7  A    between atoms: C_24  and  C_25
REMARK                            x       y       z     vdW  Elec       q    Type
REMARK                         _______ _______ _______ _____ _____    ______ ____
ROOT
ATOM     11  C   UNL     1      18.982   6.101  20.453  0.00  0.00    -0.017 A 
ATOM     16  C   UNL     1      18.279   7.128  21.082  0.00  0.00    +0.008 A 
ATOM     17  C   UNL     1      18.431   5.456  19.345  0.00  0.00    +0.008 A 
ATOM     18  C   UNL     1      17.026   7.510  20.606  0.00  0.00    +0.023 A 
ATOM     19  C   UNL     1      17.177   5.837  18.869  0.00  0.00    +0.023 A 
ATOM     20  C   UNL     1      16.474   6.864  19.499  0.00  0.00    +0.034 A 
ENDROOT
BRANCH  11  10
ATOM      1  O   UNL     1      20.550   4.333  20.566  0.00  0.00    -0.361 OA
ATOM      3  O   UNL     1      24.037   3.981  21.209  0.00  0.00    -0.273 OA
ATOM      6  N   UNL     1      22.820   5.919  20.767  0.00  0.00    -0.295 N 
ATOM      9  C   UNL     1      21.513   6.530  20.424  0.00  0.00    +0.134 C 
ATOM     10  C   UNL     1      20.344   5.687  20.971  0.00  0.00    +0.171 C 
ATOM     13  C   UNL     1      21.670   3.782  21.218  0.00  0.00    +0.256 C 
ATOM     14  C   UNL     1      22.961   4.558  21.044  0.00  0.00    +0.242 C 
ATOM     15  C   UNL     1      24.026   6.720  20.571  0.00  0.00    +0.132 C 
BRANCH   9  12
ATOM     12  C   UNL     1      21.400   7.984  20.904  0.00  0.00    +0.181 C 
BRANCH  12   2
ATOM      2  O   UNL     1      21.394   7.984  22.316  0.00  0.00    -0.393 OA
ATOM     26  H   UNL     1      20.945   7.171  22.602  0.00  0.00    +0.209 HD
ENDBRANCH  12   2
ENDBRANCH   9  12
ENDBRANCH  11  10
BRANCH  20   7
ATOM      4  O   UNL     1      13.761   6.581  20.741  0.00  0.00    -0.268 OA
ATOM      7  N   UNL     1      15.220   7.245  19.021  0.00  0.00    -0.280 N 
ATOM     21  C   UNL     1      13.975   7.089  19.646  0.00  0.00    +0.270 C 
ATOM     27  H   UNL     1      15.219   7.695  18.108  0.00  0.00    +0.155 HD
BRANCH  21  22
ATOM      5  O   UNL     1      10.794   8.321  18.538  0.00  0.00    -0.359 OA
ATOM      8  N   UNL     1      11.645   7.821  19.516  0.00  0.00    -0.073 NA
ATOM     22  C   UNL     1      12.812   7.626  18.893  0.00  0.00    +0.168 A 
ATOM     23  C   UNL     1      12.756   7.983  17.535  0.00  0.00    +0.080 A 
ATOM     24  C   UNL     1      11.467   8.413  17.363  0.00  0.00    +0.135 A 
ATOM     25  C   UNL     1      10.712   8.928  16.214  0.00  0.00    +0.089 C 
ENDBRANCH  21  22
ENDBRANCH  20   7
TORSDOF 5
ENDMDL
MODEL 3
REMARK VINA RESULT:      -6.9     28.145     31.779
REMARK  Name = 71693625
REMARK  7 active torsions:
REMARK  status: ('A' for Active; 'I' for Inactive)
REMARK    1  A    between atoms: O_2  and  C_12
REMARK    2  A    between atoms: N_6  and  C_15
REMARK    3  A    between atoms: N_7  and  C_20
REMARK    4  A    between atoms: C_9  and  C_12
REMARK    5  A    between atoms: C_10  and  C_11
REMARK    6  A    between atoms: C_21  and  C_22
REMARK    7  A    between atoms: C_24  and  C_25
REMARK                            x       y       z     vdW  Elec       q    Type
REMARK                         _______ _______ _______ _____ _____    ______ ____
ROOT
ATOM     11  C   UNL     1     -12.986   7.472  20.975  0.00  0.00    -0.017 A 
ATOM     16  C   UNL     1     -14.058   7.920  21.746  0.00  0.00    +0.008 A 
ATOM     17  C   UNL     1     -12.476   6.188  21.170  0.00  0.00    +0.008 A 
ATOM     18  C   UNL     1     -14.620   7.086  22.712  0.00  0.00    +0.023 A 
ATOM     19  C   UNL     1     -13.037   5.354  22.136  0.00  0.00    +0.023 A 
ATOM     20  C   UNL     1     -14.110   5.802  22.907  0.00  0.00    +0.034 A 
ENDROOT
BRANCH  11  10
ATOM      1  O   UNL     1     -10.961   8.345  20.118  0.00  0.00    -0.361 OA
ATOM      3  O   UNL     1      -9.854   9.865  17.091  0.00  0.00    -0.273 OA
ATOM      6  N   UNL     1     -11.844   8.727  17.514  0.00  0.00    -0.295 N 
ATOM      9  C   UNL     1     -12.669   7.955  18.475  0.00  0.00    +0.134 C 
ATOM     10  C   UNL     1     -12.376   8.379  19.927  0.00  0.00    +0.171 C 
ATOM     13  C   UNL     1     -10.330   9.351  19.361  0.00  0.00    +0.256 C 
ATOM     14  C   UNL     1     -10.635   9.324  17.877  0.00  0.00    +0.242 C 
ATOM     15  C   UNL     1     -12.189   8.653  16.096  0.00  0.00    +0.132 C 
BRANCH   9  12
ATOM     12  C   UNL     1     -14.172   8.061  18.175  0.00  0.00    +0.181 C 
BRANCH  12   2
ATOM      2  O   UNL     1     -14.596   9.368  18.499  0.00  0.00    -0.393 OA
ATOM     26  H   UNL     1     -14.928   9.774  17.681  0.00  0.00    +0.209 HD
ENDBRANCH  12   2
ENDBRANCH   9  12
ENDBRANCH  11  10
BRANCH  20   7
ATOM      4  O   UNL     1     -16.186   3.656  22.642  0.00  0.00    -0.268 OA
ATOM      7  N   UNL     1     -14.671   4.967  23.873  0.00  0.00    -0.280 N 
ATOM     21  C   UNL     1     -15.644   3.974  23.695  0.00  0.00    +0.270 C 
ATOM     27  H   UNL     1     -14.322   5.100  24.820  0.00  0.00    +0.155 HD
BRANCH  21  22
ATOM      5  O   UNL     1     -16.529   1.530  26.167  0.00  0.00    -0.359 OA
ATOM      8  N   UNL     1     -16.183   1.900  24.872  0.00  0.00    -0.073 NA
ATOM     22  C   UNL     1     -16.023   3.226  24.922  0.00  0.00    +0.168 A 
ATOM     23  C   UNL     1     -16.252   3.742  26.209  0.00  0.00    +0.080 A 
ATOM     24  C   UNL     1     -16.566   2.637  26.954  0.00  0.00    +0.135 A 
ATOM     25  C   UNL     1     -16.918   2.426  28.363  0.00  0.00    +0.089 C 
ENDBRANCH  21  22
ENDBRANCH  20   7
TORSDOF 5
ENDMDL
MODEL 4
REMARK VINA RESULT:      -6.8     28.504     31.398
REMARK  Name = 71693625
REMARK  7 active torsions:
REMARK  status: ('A' for Active; 'I' for Inactive)
REMARK    1  A    between atoms: O_2  and  C_12
REMARK    2  A    between atoms: N_6  and  C_15
REMARK    3  A    between atoms: N_7  and  C_20
REMARK    4  A    between atoms: C_9  and  C_12
REMARK    5  A    between atoms: C_10  and  C_11
REMARK    6  A    between atoms: C_21  and  C_22
REMARK    7  A    between atoms: C_24  and  C_25
REMARK                            x       y       z     vdW  Elec       q    Type
REMARK                         _______ _______ _______ _____ _____    ______ ____
ROOT
ATOM     11  C   UNL     1     -12.258   7.614  20.179  0.00  0.00    -0.017 A 
ATOM     16  C   UNL     1     -13.643   7.536  20.036  0.00  0.00    +0.008 A 
ATOM     17  C   UNL     1     -11.589   6.703  20.997  0.00  0.00    +0.008 A 
ATOM     18  C   UNL     1     -14.361   6.549  20.711  0.00  0.00    +0.023 A 
ATOM     19  C   UNL     1     -12.306   5.716  21.673  0.00  0.00    +0.023 A 
ATOM     20  C   UNL     1     -13.692   5.639  21.531  0.00  0.00    +0.034 A 
ENDROOT
BRANCH  11  10
ATOM      1  O   UNL     1     -11.497   8.338  18.059  0.00  0.00    -0.361 OA
ATOM      3  O   UNL     1     -10.342  11.380  16.606  0.00  0.00    -0.273 OA
ATOM      6  N   UNL     1     -11.415  11.049  18.648  0.00  0.00    -0.295 N 
ATOM      9  C   UNL     1     -12.068  10.103  19.586  0.00  0.00    +0.134 C 
ATOM     10  C   UNL     1     -11.481   8.686  19.444  0.00  0.00    +0.171 C 
ATOM     13  C   UNL     1     -10.588   9.132  17.333  0.00  0.00    +0.256 C 
ATOM     14  C   UNL     1     -10.786  10.628  17.476  0.00  0.00    +0.242 C 
ATOM     15  C   UNL     1     -11.652  12.479  18.839  0.00  0.00    +0.132 C 
BRANCH   9  12
ATOM     12  C   UNL     1     -11.992  10.575  21.045  0.00  0.00    +0.181 C 
BRANCH  12   2
ATOM      2  O   UNL     1     -13.309  10.785  21.510  0.00  0.00    -0.393 OA
ATOM     26  H   UNL     1     -13.641  11.592  21.081  0.00  0.00    +0.209 HD
ENDBRANCH  12   2
ENDBRANCH   9  12
ENDBRANCH  11  10
BRANCH  20   7
ATOM      4  O   UNL     1     -15.596   5.862  23.835  0.00  0.00    -0.268 OA
ATOM      7  N   UNL     1     -14.408   4.651  22.207  0.00  0.00    -0.280 N 
ATOM     21  C   UNL     1     -15.290   4.810  23.285  0.00  0.00    +0.270 C 
ATOM     27  H   UNL     1     -14.269   3.702  21.867  0.00  0.00    +0.155 HD
BRANCH  21  22
ATOM      5  O   UNL     1     -16.979   1.672  23.688  0.00  0.00    -0.359 OA
ATOM      8  N   UNL     1     -16.487   2.711  22.907  0.00  0.00    -0.073 NA
ATOM     22  C   UNL     1     -15.929   3.561  23.776  0.00  0.00    +0.168 A 
ATOM     23  C   UNL     1     -16.038   3.114  25.104  0.00  0.00    +0.080 A 
ATOM     24  C   UNL     1     -16.706   1.924  24.994  0.00  0.00    +0.135 A 
ATOM     25  C   UNL     1     -17.160   0.920  25.963  0.00  0.00    +0.089 C 
ENDBRANCH  21  22
ENDBRANCH  20   7
TORSDOF 5
ENDMDL
MODEL 5
REMARK VINA RESULT:      -6.7     28.000     31.621
REMARK  Name = 71693625
REMARK  7 active torsions:
REMARK  status: ('A' for Active; 'I' for Inactive)
REMARK    1  A    between atoms: O_2  and  C_12
REMARK    2  A    between atoms: N_6  and  C_15
REMARK    3  A    between atoms: N_7  and  C_20
REMARK    4  A    between atoms: C_9  and  C_12
REMARK    5  A    between atoms: C_10  and  C_11
REMARK    6  A    between atoms: C_21  and  C_22
REMARK    7  A    between atoms: C_24  and  C_25
REMARK                            x       y       z     vdW  Elec       q    Type
REMARK                         _______ _______ _______ _____ _____    ______ ____
ROOT
ATOM     11  C   UNL     1     -13.302   8.257  20.035  0.00  0.00    -0.017 A 
ATOM     16  C   UNL     1     -14.658   7.947  19.939  0.00  0.00    +0.008 A 
ATOM     17  C   UNL     1     -12.461   7.470  20.823  0.00  0.00    +0.008 A 
ATOM     18  C   UNL     1     -15.175   6.852  20.630  0.00  0.00    +0.023 A 
ATOM     19  C   UNL     1     -12.978   6.376  21.516  0.00  0.00    +0.023 A 
ATOM     20  C   UNL     1     -14.334   6.066  21.420  0.00  0.00    +0.034 A 
ENDROOT
BRANCH  11  10
ATOM      1  O   UNL     1     -12.445  10.451  20.253  0.00  0.00    -0.361 OA
ATOM      3  O   UNL     1     -10.462  12.680  18.304  0.00  0.00    -0.273 OA
ATOM      6  N   UNL     1     -10.825  10.398  18.000  0.00  0.00    -0.295 N 
ATOM      9  C   UNL     1     -11.450   9.148  18.498  0.00  0.00    +0.134 C 
ATOM     10  C   UNL     1     -12.742   9.446  19.283  0.00  0.00    +0.171 C 
ATOM     13  C   UNL     1     -12.163  11.681  19.629  0.00  0.00    +0.256 C 
ATOM     14  C   UNL     1     -11.052  11.638  18.598  0.00  0.00    +0.242 C 
ATOM     15  C   UNL     1      -9.756  10.284  17.010  0.00  0.00    +0.132 C 
BRANCH   9  12
ATOM     12  C   UNL     1     -11.723   8.139  17.373  0.00  0.00    +0.181 C 
BRANCH  12   2
ATOM      2  O   UNL     1     -10.890   7.017  17.574  0.00  0.00    -0.393 OA
ATOM     26  H   UNL     1      -9.998   7.263  17.277  0.00  0.00    +0.209 HD
ENDBRANCH  12   2
ENDBRANCH   9  12
ENDBRANCH  11  10
BRANCH  20   7
ATOM      4  O   UNL     1     -16.124   5.961  23.822  0.00  0.00    -0.268 OA
ATOM      7  N   UNL     1     -14.850   4.970  22.113  0.00  0.00    -0.280 N 
ATOM     21  C   UNL     1     -15.688   4.977  23.236  0.00  0.00    +0.270 C 
ATOM     27  H   UNL     1     -14.583   4.059  21.747  0.00  0.00    +0.155 HD
BRANCH  21  22
ATOM      5  O   UNL     1     -16.862   1.616  23.668  0.00  0.00    -0.359 OA
ATOM      8  N   UNL     1     -16.590   2.731  22.885  0.00  0.00    -0.073 NA
ATOM     22  C   UNL     1     -16.096   3.637  23.735  0.00  0.00    +0.168 A 
ATOM     23  C   UNL     1     -16.034   3.154  25.053  0.00  0.00    +0.080 A 
ATOM     24  C   UNL     1     -16.526   1.880  24.957  0.00  0.00    +0.135 A 
ATOM     25  C   UNL     1     -16.751   0.801  25.926  0.00  0.00    +0.089 C 
ENDBRANCH  21  22
ENDBRANCH  20   7
TORSDOF 5
ENDMDL
MODEL 6
REMARK VINA RESULT:      -6.5     17.344     20.479
REMARK  Name = 71693625
REMARK  7 active torsions:
REMARK  status: ('A' for Active; 'I' for Inactive)
REMARK    1  A    between atoms: O_2  and  C_12
REMARK    2  A    between atoms: N_6  and  C_15
REMARK    3  A    between atoms: N_7  and  C_20
REMARK    4  A    between atoms: C_9  and  C_12
REMARK    5  A    between atoms: C_10  and  C_11
REMARK    6  A    between atoms: C_21  and  C_22
REMARK    7  A    between atoms: C_24  and  C_25
REMARK                            x       y       z     vdW  Elec       q    Type
REMARK                         _______ _______ _______ _____ _____    ______ ____
ROOT
ATOM     11  C   UNL     1      11.120   4.483   0.545  0.00  0.00    -0.017 A 
ATOM     16  C   UNL     1      10.314   5.549   0.944  0.00  0.00    +0.008 A 
ATOM     17  C   UNL     1      11.596   3.576   1.493  0.00  0.00    +0.008 A 
ATOM     18  C   UNL     1       9.984   5.709   2.289  0.00  0.00    +0.023 A 
ATOM     19  C   UNL     1      11.266   3.736   2.838  0.00  0.00    +0.023 A 
ATOM     20  C   UNL     1      10.460   4.802   3.237  0.00  0.00    +0.034 A 
ENDROOT
BRANCH  11  10
ATOM      1  O   UNL     1      10.251   4.161  -1.632  0.00  0.00    -0.361 OA
ATOM      3  O   UNL     1      11.387   4.595  -4.981  0.00  0.00    -0.273 OA
ATOM      6  N   UNL     1      12.335   5.380  -3.002  0.00  0.00    -0.295 N 
ATOM      9  C   UNL     1      12.242   5.502  -1.526  0.00  0.00    +0.134 C 
ATOM     10  C   UNL     1      11.478   4.311  -0.916  0.00  0.00    +0.171 C 
ATOM     13  C   UNL     1      10.491   3.740  -2.954  0.00  0.00    +0.256 C 
ATOM     14  C   UNL     1      11.429   4.626  -3.749  0.00  0.00    +0.242 C 
ATOM     15  C   UNL     1      13.256   6.268  -3.708  0.00  0.00    +0.132 C 
BRANCH   9  12
ATOM     12  C   UNL     1      13.617   5.659  -0.861  0.00  0.00    +0.181 C 
BRANCH  12   2
ATOM      2  O   UNL     1      14.276   4.411  -0.909  0.00  0.00    -0.393 OA
ATOM     26  H   UNL     1      14.106   4.029  -1.787  0.00  0.00    +0.209 HD
ENDBRANCH  12   2
ENDBRANCH   9  12
ENDBRANCH  11  10
BRANCH  20   7
ATOM      4  O   UNL     1      11.680   6.561   5.336  0.00  0.00    -0.268 OA
ATOM      7  N   UNL     1      10.130   4.961   4.583  0.00  0.00    -0.280 N 
ATOM     21  C   UNL     1      10.736   5.802   5.526  0.00  0.00    +0.270 C 
ATOM     27  H   UNL     1       9.349   4.395   4.910  0.00  0.00    +0.155 HD
BRANCH  21  22
ATOM      5  O   UNL     1       9.148   6.508   8.664  0.00  0.00    -0.359 OA
ATOM      8  N   UNL     1       9.610   6.884   7.409  0.00  0.00    -0.073 NA
ATOM     22  C   UNL     1      10.136   5.772   6.886  0.00  0.00    +0.168 A 
ATOM     23  C   UNL     1      10.035   4.674   7.757  0.00  0.00    +0.080 A 
ATOM     24  C   UNL     1       9.407   5.189   8.860  0.00  0.00    +0.135 A 
ATOM     25  C   UNL     1       8.981   4.622  10.145  0.00  0.00    +0.089 C 
ENDBRANCH  21  22
ENDBRANCH  20   7
TORSDOF 5
ENDMDL
MODEL 7
REMARK VINA RESULT:      -6.4     23.430     27.967
REMARK  Name = 71693625
REMARK  7 active torsions:
REMARK  status: ('A' for Active; 'I' for Inactive)
REMARK    1  A    between atoms: O_2  and  C_12
REMARK    2  A    between atoms: N_6  and  C_15
REMARK    3  A    between atoms: N_7  and  C_20
REMARK    4  A    between atoms: C_9  and  C_12
REMARK    5  A    between atoms: C_10  and  C_11
REMARK    6  A    between atoms: C_21  and  C_22
REMARK    7  A    between atoms: C_24  and  C_25
REMARK                            x       y       z     vdW  Elec       q    Type
REMARK                         _______ _______ _______ _____ _____    ______ ____
ROOT
ATOM     11  C   UNL     1      -2.959   8.731   4.578  0.00  0.00    -0.017 A 
ATOM     16  C   UNL     1      -3.112   7.506   5.227  0.00  0.00    +0.008 A 
ATOM     17  C   UNL     1      -4.045   9.314   3.924  0.00  0.00    +0.008 A 
ATOM     18  C   UNL     1      -4.349   6.863   5.223  0.00  0.00    +0.023 A 
ATOM     19  C   UNL     1      -5.283   8.671   3.919  0.00  0.00    +0.023 A 
ATOM     20  C   UNL     1      -5.435   7.446   4.569  0.00  0.00    +0.034 A 
ENDROOT
BRANCH  11  10
ATOM      1  O   UNL     1      -1.323   9.783   3.230  0.00  0.00    -0.361 OA
ATOM      3  O   UNL     1       1.393  12.038   3.714  0.00  0.00    -0.273 OA
ATOM      6  N   UNL     1      -0.319  11.472   5.190  0.00  0.00    -0.295 N 
ATOM      9  C   UNL     1      -1.571  10.714   5.431  0.00  0.00    +0.134 C 
ATOM     10  C   UNL     1      -1.615   9.428   4.583  0.00  0.00    +0.171 C 
ATOM     13  C   UNL     1       0.014  10.203   3.100  0.00  0.00    +0.256 C 
ATOM     14  C   UNL     1       0.421  11.341   4.014  0.00  0.00    +0.242 C 
ATOM     15  C   UNL     1       0.011  12.561   6.107  0.00  0.00    +0.132 C 
BRANCH   9  12
ATOM     12  C   UNL     1      -1.785  10.388   6.916  0.00  0.00    +0.181 C 
BRANCH  12   2
ATOM      2  O   UNL     1      -0.778   9.483   7.319  0.00  0.00    -0.393 OA
ATOM     26  H   UNL     1      -0.109   9.465   6.614  0.00  0.00    +0.209 HD
ENDBRANCH  12   2
ENDBRANCH   9  12
ENDBRANCH  11  10
BRANCH  20   7
ATOM      4  O   UNL     1      -7.962   8.096   6.046  0.00  0.00    -0.268 OA
ATOM      7  N   UNL     1      -6.674   6.803   4.564  0.00  0.00    -0.280 N 
ATOM     21  C   UNL     1      -7.829   7.150   5.277  0.00  0.00    +0.270 C 
ATOM     27  H   UNL     1      -6.737   5.984   3.962  0.00  0.00    +0.155 HD
BRANCH  21  22
ATOM      5  O   UNL     1     -10.129   4.536   4.421  0.00  0.00    -0.359 OA
ATOM      8  N   UNL     1      -8.848   5.066   4.502  0.00  0.00    -0.073 NA
ATOM     22  C   UNL     1      -9.010   6.280   5.039  0.00  0.00    +0.168 A 
ATOM     23  C   UNL     1     -10.359   6.566   5.314  0.00  0.00    +0.080 A 
ATOM     24  C   UNL     1     -11.020   5.438   4.907  0.00  0.00    +0.135 A 
ATOM     25  C   UNL     1     -12.432   5.036   4.895  0.00  0.00    +0.089 C 
ENDBRANCH  21  22
ENDBRANCH  20   7
TORSDOF 5
ENDMDL
MODEL 8
REMARK VINA RESULT:      -6.3     28.423     31.416
REMARK  Name = 71693625
REMARK  7 active torsions:
REMARK  status: ('A' for Active; 'I' for Inactive)
REMARK    1  A    between atoms: O_2  and  C_12
REMARK    2  A    between atoms: N_6  and  C_15
REMARK    3  A    between atoms: N_7  and  C_20
REMARK    4  A    between atoms: C_9  and  C_12
REMARK    5  A    between atoms: C_10  and  C_11
REMARK    6  A    between atoms: C_21  and  C_22
REMARK    7  A    between atoms: C_24  and  C_25
REMARK                            x       y       z     vdW  Elec       q    Type
REMARK                         _______ _______ _______ _____ _____    ______ ____
ROOT
ATOM     11  C   UNL     1     -12.651   7.843  19.284  0.00  0.00    -0.017 A 
ATOM     16  C   UNL     1     -13.977   8.147  19.593  0.00  0.00    +0.008 A 
ATOM     17  C   UNL     1     -11.932   6.961  20.091  0.00  0.00    +0.008 A 
ATOM     18  C   UNL     1     -14.583   7.571  20.709  0.00  0.00    +0.023 A 
ATOM     19  C   UNL     1     -12.537   6.386  21.207  0.00  0.00    +0.023 A 
ATOM     20  C   UNL     1     -13.863   6.690  21.517  0.00  0.00    +0.034 A 
ENDROOT
BRANCH  11  10
ATOM      1  O   UNL     1     -12.853   8.222  16.957  0.00  0.00    -0.361 OA
ATOM      3  O   UNL     1     -11.464  10.453  14.552  0.00  0.00    -0.273 OA
ATOM      6  N   UNL     1     -11.375  10.570  16.878  0.00  0.00    -0.295 N 
ATOM      9  C   UNL     1     -11.783   9.991  18.181  0.00  0.00    +0.134 C 
ATOM     10  C   UNL     1     -11.994   8.469  18.072  0.00  0.00    +0.171 C 
ATOM     13  C   UNL     1     -12.207   8.540  15.748  0.00  0.00    +0.256 C 
ATOM     14  C   UNL     1     -11.667   9.954  15.660  0.00  0.00    +0.242 C 
ATOM     15  C   UNL     1     -10.868  11.941  16.863  0.00  0.00    +0.132 C 
BRANCH   9  12
ATOM     12  C   UNL     1     -10.790  10.319  19.306  0.00  0.00    +0.181 C 
BRANCH  12   2
ATOM      2  O   UNL     1      -9.592   9.614  19.057  0.00  0.00    -0.393 OA
ATOM     26  H   UNL     1      -8.904  10.273  18.865  0.00  0.00    +0.209 HD
ENDBRANCH  12   2
ENDBRANCH   9  12
ENDBRANCH  11  10
BRANCH  20   7
ATOM      4  O   UNL     1     -15.921   4.518  21.701  0.00  0.00    -0.268 OA
ATOM      7  N   UNL     1     -14.469   6.114  22.634  0.00  0.00    -0.280 N 
ATOM     21  C   UNL     1     -15.430   5.095  22.665  0.00  0.00    +0.270 C 
ATOM     27  H   UNL     1     -14.165   6.483  23.533  0.00  0.00    +0.155 HD
BRANCH  21  22
ATOM      5  O   UNL     1     -16.942   4.730  25.897  0.00  0.00    -0.359 OA
ATOM      8  N   UNL     1     -16.766   5.398  24.691  0.00  0.00    -0.073 NA
ATOM     22  C   UNL     1     -15.866   4.670  24.021  0.00  0.00    +0.168 A 
ATOM     23  C   UNL     1     -15.444   3.545  24.748  0.00  0.00    +0.080 A 
ATOM     24  C   UNL     1     -16.149   3.628  25.918  0.00  0.00    +0.135 A 
ATOM     25  C   UNL     1     -16.210   2.801  27.129  0.00  0.00    +0.089 C 
ENDBRANCH  21  22
ENDBRANCH  20   7
TORSDOF 5
ENDMDL
MODEL 9
REMARK VINA RESULT:      -6.2     30.941     32.255
REMARK  Name = 71693625
REMARK  7 active torsions:
REMARK  status: ('A' for Active; 'I' for Inactive)
REMARK    1  A    between atoms: O_2  and  C_12
REMARK    2  A    between atoms: N_6  and  C_15
REMARK    3  A    between atoms: N_7  and  C_20
REMARK    4  A    between atoms: C_9  and  C_12
REMARK    5  A    between atoms: C_10  and  C_11
REMARK    6  A    between atoms: C_21  and  C_22
REMARK    7  A    between atoms: C_24  and  C_25
REMARK                            x       y       z     vdW  Elec       q    Type
REMARK                         _______ _______ _______ _____ _____    ______ ____
ROOT
ATOM     11  C   UNL     1     -11.477  -4.833   9.556  0.00  0.00    -0.017 A 
ATOM     16  C   UNL     1     -10.305  -4.305   9.014  0.00  0.00    +0.008 A 
ATOM     17  C   UNL     1     -11.641  -6.215   9.651  0.00  0.00    +0.008 A 
ATOM     18  C   UNL     1      -9.297  -5.159   8.567  0.00  0.00    +0.023 A 
ATOM     19  C   UNL     1     -10.633  -7.069   9.203  0.00  0.00    +0.023 A 
ATOM     20  C   UNL     1      -9.462  -6.541   8.661  0.00  0.00    +0.034 A 
ENDROOT
BRANCH  11  10
ATOM      1  O   UNL     1     -13.586  -3.895   9.038  0.00  0.00    -0.361 OA
ATOM      3  O   UNL     1     -16.251  -2.335  10.817  0.00  0.00    -0.273 OA
ATOM      6  N   UNL     1     -14.437  -3.534  11.656  0.00  0.00    -0.295 N 
ATOM      9  C   UNL     1     -13.221  -4.334  11.372  0.00  0.00    +0.134 C 
ATOM     10  C   UNL     1     -12.570  -3.905  10.043  0.00  0.00    +0.171 C 
ATOM     13  C   UNL     1     -14.519  -2.868   9.281  0.00  0.00    +0.256 C 
ATOM     14  C   UNL     1     -15.169  -2.902  10.650  0.00  0.00    +0.242 C 
ATOM     15  C   UNL     1     -15.016  -3.616  12.995  0.00  0.00    +0.132 C 
BRANCH   9  12
ATOM     12  C   UNL     1     -12.198  -4.274  12.516  0.00  0.00    +0.181 C 
BRANCH  12   2
ATOM      2  O   UNL     1     -11.841  -2.924  12.719  0.00  0.00    -0.393 OA
ATOM     26  H   UNL     1     -10.882  -2.900  12.878  0.00  0.00    +0.209 HD
ENDBRANCH  12   2
ENDBRANCH   9  12
ENDBRANCH  11  10
BRANCH  20   7
ATOM      4  O   UNL     1      -7.849  -8.585  10.149  0.00  0.00    -0.268 OA
ATOM      7  N   UNL     1      -8.454  -7.396   8.212  0.00  0.00    -0.280 N 
ATOM     21  C   UNL     1      -7.728  -8.338   8.954  0.00  0.00    +0.270 C 
ATOM     27  H   UNL     1      -8.228  -7.321   7.223  0.00  0.00    +0.155 HD
BRANCH  21  22
ATOM      5  O   UNL     1      -4.824 -10.018   7.686  0.00  0.00    -0.359 OA
ATOM      8  N   UNL     1      -5.474  -9.229   8.627  0.00  0.00    -0.073 NA
ATOM     22  C   UNL     1      -6.731  -9.125   8.182  0.00  0.00    +0.168 A 
ATOM     23  C   UNL     1      -6.929  -9.821   6.978  0.00  0.00    +0.080 A 
ATOM     24  C   UNL     1      -5.701 -10.364   6.708  0.00  0.00    +0.135 A 
ATOM     25  C   UNL     1      -5.177 -11.203   5.625  0.00  0.00    +0.089 C 
ENDBRANCH  21  22
ENDBRANCH  20   7
TORSDOF 5
ENDMDL
MODEL 10
REMARK VINA RESULT:      -6.1     29.677     32.953
REMARK  Name = 71693625
REMARK  7 active torsions:
REMARK  status: ('A' for Active; 'I' for Inactive)
REMARK    1  A    between atoms: O_2  and  C_12
REMARK    2  A    between atoms: N_6  and  C_15
REMARK    3  A    between atoms: N_7  and  C_20
REMARK    4  A    between atoms: C_9  and  C_12
REMARK    5  A    between atoms: C_10  and  C_11
REMARK    6  A    between atoms: C_21  and  C_22
REMARK    7  A    between atoms: C_24  and  C_25
REMARK                            x       y       z     vdW  Elec       q    Type
REMARK                         _______ _______ _______ _____ _____    ______ ____
ROOT
ATOM     11  C   UNL     1      -9.993  -8.949  16.972  0.00  0.00    -0.017 A 
ATOM     16  C   UNL     1     -10.279  -7.675  17.463  0.00  0.00    +0.008 A 
ATOM     17  C   UNL     1     -10.326  -9.281  15.658  0.00  0.00    +0.008 A 
ATOM     18  C   UNL     1     -10.899  -6.734  16.642  0.00  0.00    +0.023 A 
ATOM     19  C   UNL     1     -10.947  -8.341  14.838  0.00  0.00    +0.023 A 
ATOM     20  C   UNL     1     -11.234  -7.067  15.328  0.00  0.00    +0.034 A 
ENDROOT
BRANCH  11  10
ATOM      1  O   UNL     1     -10.265 -11.018  18.087  0.00  0.00    -0.361 OA
ATOM      3  O   UNL     1      -8.149 -13.526  19.476  0.00  0.00    -0.273 OA
ATOM      6  N   UNL     1      -7.589 -11.757  18.066  0.00  0.00    -0.295 N 
ATOM      9  C   UNL     1      -8.048 -10.598  17.262  0.00  0.00    +0.134 C 
ATOM     10  C   UNL     1      -9.320  -9.970  17.865  0.00  0.00    +0.171 C 
ATOM     13  C   UNL     1      -9.823 -11.882  19.108  0.00  0.00    +0.256 C 
ATOM     14  C   UNL     1      -8.450 -12.485  18.889  0.00  0.00    +0.242 C 
ATOM     15  C   UNL     1      -6.256 -12.293  17.800  0.00  0.00    +0.132 C 
BRANCH   9  12
ATOM     12  C   UNL     1      -6.954  -9.535  17.085  0.00  0.00    +0.181 C 
BRANCH  12   2
ATOM      2  O   UNL     1      -6.711  -9.377  15.703  0.00  0.00    -0.393 OA
ATOM     26  H   UNL     1      -7.510  -9.673  15.234  0.00  0.00    +0.209 HD
ENDBRANCH  12   2
ENDBRANCH   9  12
ENDBRANCH  11  10
BRANCH  20   7
ATOM      4  O   UNL     1     -14.114  -6.255  15.143  0.00  0.00    -0.268 OA
ATOM      7  N   UNL     1     -11.854  -6.126  14.506  0.00  0.00    -0.280 N 
ATOM     21  C   UNL     1     -13.212  -5.783  14.459  0.00  0.00    +0.270 C 
ATOM     27  H   UNL     1     -11.236  -5.630  13.867  0.00  0.00    +0.155 HD
BRANCH  21  22
ATOM      5  O   UNL     1     -13.297  -2.991  12.210  0.00  0.00    -0.359 OA
ATOM      8  N   UNL     1     -12.640  -3.832  13.101  0.00  0.00    -0.073 NA
ATOM     22  C   UNL     1     -13.567  -4.714  13.490  0.00  0.00    +0.168 A 
ATOM     23  C   UNL     1     -14.813  -4.480  12.883  0.00  0.00    +0.080 A 
ATOM     24  C   UNL     1     -14.590  -3.387  12.089  0.00  0.00    +0.135 A 
ATOM     25  C   UNL     1     -15.433  -2.602  11.181  0.00  0.00    +0.089 C 
ENDBRANCH  21  22
ENDBRANCH  20   7
TORSDOF 5
ENDMDL
