MODEL 1
REMARK VINA RESULT:      -6.9      0.000      0.000
REMARK  Name = 75368664
REMARK  5 active torsions:
REMARK  status: ('A' for Active; 'I' for Inactive)
REMARK    1  A    between atoms: N_4  and  C_9
REMARK    2  A    between atoms: N_5  and  C_15
REMARK    3  A    between atoms: C_15  and  C_18
REMARK    4  A    between atoms: C_18  and  C_19
REMARK    5  A    between atoms: C_19  and  C_20
REMARK                            x       y       z     vdW  Elec       q    Type
REMARK                         _______ _______ _______ _____ _____    ______ ____
ROOT
ATOM      2  O   UNL     1      10.441   8.620  23.052  0.00  0.00    -0.252 OA
ATOM      3  N   UNL     1      11.709   8.664  21.074  0.00  0.00    -0.278 N 
ATOM      4  N   UNL     1      11.358  10.601  22.156  0.00  0.00    -0.280 N 
ATOM      5  N   UNL     1      13.631   7.893  19.170  0.00  0.00    -0.299 NA
ATOM      6  C   UNL     1      12.286   9.673  20.210  0.00  0.00    +0.109 C 
ATOM      7  C   UNL     1      12.246  10.942  21.058  0.00  0.00    +0.133 C 
ATOM      8  C   UNL     1      13.681   9.248  19.755  0.00  0.00    +0.108 C 
ATOM     10  C   UNL     1      11.740   7.277  20.663  0.00  0.00    +0.125 C 
ATOM     11  C   UNL     1      11.084   9.218  22.199  0.00  0.00    +0.305 C 
ATOM     12  C   UNL     1      13.139   6.911  20.160  0.00  0.00    +0.103 C 
ENDROOT
BRANCH   4   9
ATOM      1  O   UNL     1      11.545  13.957  24.643  0.00  0.00    -0.380 OA
ATOM      9  C   UNL     1      10.957  11.570  23.146  0.00  0.00    +0.082 C 
ATOM     13  C   UNL     1      10.860  12.967  22.533  0.00  0.00    +0.050 C 
ATOM     14  C   UNL     1      11.921  11.578  24.332  0.00  0.00    +0.050 C 
ATOM     16  C   UNL     1      10.564  14.006  23.606  0.00  0.00    +0.161 C 
ATOM     17  C   UNL     1      11.565  12.694  25.306  0.00  0.00    +0.161 C 
ENDBRANCH   4   9
BRANCH   5  15
ATOM     15  C   UNL     1      14.950   7.501  18.676  0.00  0.00    +0.085 C 
BRANCH  15  18
ATOM     18  C   UNL     1      15.587   6.479  19.616  0.00  0.00    +0.020 C 
BRANCH  18  19
ATOM     19  C   UNL     1      16.922   5.976  19.061  0.00  0.00    +0.036 C 
BRANCH  19  20
ATOM     20  C   UNL     1      18.055   6.227  20.022  0.00  0.00    -0.047 A 
ATOM     21  C   UNL     1      17.963   7.261  20.954  0.00  0.00    +0.003 A 
ATOM     22  C   UNL     1      19.197   5.427  19.979  0.00  0.00    +0.003 A 
ATOM     23  C   UNL     1      19.013   7.494  21.844  0.00  0.00    +0.000 A 
ATOM     24  C   UNL     1      20.246   5.660  20.868  0.00  0.00    +0.000 A 
ATOM     25  C   UNL     1      20.154   6.693  21.801  0.00  0.00    +0.000 A 
ENDBRANCH  19  20
ENDBRANCH  18  19
ENDBRANCH  15  18
ENDBRANCH   5  15
TORSDOF 5
ENDMDL
MODEL 2
REMARK VINA RESULT:      -6.4     27.112     28.714
REMARK  Name = 75368664
REMARK  5 active torsions:
REMARK  status: ('A' for Active; 'I' for Inactive)
REMARK    1  A    between atoms: N_4  and  C_9
REMARK    2  A    between atoms: N_5  and  C_15
REMARK    3  A    between atoms: C_15  and  C_18
REMARK    4  A    between atoms: C_18  and  C_19
REMARK    5  A    between atoms: C_19  and  C_20
REMARK                            x       y       z     vdW  Elec       q    Type
REMARK                         _______ _______ _______ _____ _____    ______ ____
ROOT
ATOM      2  O   UNL     1      -6.350 -10.385  19.323  0.00  0.00    -0.252 OA
ATOM      3  N   UNL     1      -5.403 -10.926  17.242  0.00  0.00    -0.278 N 
ATOM      4  N   UNL     1      -7.427  -9.953  17.269  0.00  0.00    -0.280 N 
ATOM      5  N   UNL     1      -3.454 -11.164  15.228  0.00  0.00    -0.299 NA
ATOM      6  C   UNL     1      -5.821 -10.921  15.857  0.00  0.00    +0.109 C 
ATOM      7  C   UNL     1      -7.081 -10.058  15.862  0.00  0.00    +0.133 C 
ATOM      8  C   UNL     1      -4.694 -10.407  14.962  0.00  0.00    +0.108 C 
ATOM     10  C   UNL     1      -4.127 -11.513  17.596  0.00  0.00    +0.125 C 
ATOM     11  C   UNL     1      -6.389 -10.421  18.100  0.00  0.00    +0.305 C 
ATOM     12  C   UNL     1      -3.040 -11.017  16.639  0.00  0.00    +0.103 C 
ENDROOT
BRANCH   4   9
ATOM      1  O   UNL     1     -11.450  -8.821  17.372  0.00  0.00    -0.380 OA
ATOM      9  C   UNL     1      -8.633  -9.300  17.713  0.00  0.00    +0.082 C 
ATOM     13  C   UNL     1      -9.693 -10.325  18.114  0.00  0.00    +0.050 C 
ATOM     14  C   UNL     1      -9.182  -8.363  16.636  0.00  0.00    +0.050 C 
ATOM     16  C   UNL     1     -11.006  -9.635  18.458  0.00  0.00    +0.161 C 
ATOM     17  C   UNL     1     -10.523  -7.781  17.064  0.00  0.00    +0.161 C 
ENDBRANCH   4   9
BRANCH   5  15
ATOM     15  C   UNL     1      -2.384 -10.721  14.335  0.00  0.00    +0.085 C 
BRANCH  15  18
ATOM     18  C   UNL     1      -2.579 -11.312  12.940  0.00  0.00    +0.020 C 
BRANCH  18  19
ATOM     19  C   UNL     1      -2.070 -10.354  11.859  0.00  0.00    +0.036 C 
BRANCH  19  20
ATOM     20  C   UNL     1      -3.026 -10.269  10.696  0.00  0.00    -0.047 A 
ATOM     21  C   UNL     1      -3.291  -9.037  10.100  0.00  0.00    +0.003 A 
ATOM     22  C   UNL     1      -3.645 -11.424  10.217  0.00  0.00    +0.003 A 
ATOM     23  C   UNL     1      -4.176  -8.958   9.023  0.00  0.00    +0.000 A 
ATOM     24  C   UNL     1      -4.530 -11.345   9.142  0.00  0.00    +0.000 A 
ATOM     25  C   UNL     1      -4.795 -10.113   8.544  0.00  0.00    +0.000 A 
ENDBRANCH  19  20
ENDBRANCH  18  19
ENDBRANCH  15  18
ENDBRANCH   5  15
TORSDOF 5
ENDMDL
MODEL 3
REMARK VINA RESULT:      -6.4      4.152      8.891
REMARK  Name = 75368664
REMARK  5 active torsions:
REMARK  status: ('A' for Active; 'I' for Inactive)
REMARK    1  A    between atoms: N_4  and  C_9
REMARK    2  A    between atoms: N_5  and  C_15
REMARK    3  A    between atoms: C_15  and  C_18
REMARK    4  A    between atoms: C_18  and  C_19
REMARK    5  A    between atoms: C_19  and  C_20
REMARK                            x       y       z     vdW  Elec       q    Type
REMARK                         _______ _______ _______ _____ _____    ______ ____
ROOT
ATOM      2  O   UNL     1      19.254   8.844  22.410  0.00  0.00    -0.252 OA
ATOM      3  N   UNL     1      17.344   8.125  21.246  0.00  0.00    -0.278 N 
ATOM      4  N   UNL     1      19.227   6.916  21.050  0.00  0.00    -0.280 N 
ATOM      5  N   UNL     1      14.644   7.497  20.766  0.00  0.00    -0.299 NA
ATOM      6  C   UNL     1      17.023   7.110  20.265  0.00  0.00    +0.109 C 
ATOM      7  C   UNL     1      18.223   6.167  20.314  0.00  0.00    +0.133 C 
ATOM      8  C   UNL     1      15.681   6.458  20.593  0.00  0.00    +0.108 C 
ATOM     10  C   UNL     1      16.343   9.108  21.602  0.00  0.00    +0.125 C 
ATOM     11  C   UNL     1      18.681   8.064  21.661  0.00  0.00    +0.305 C 
ATOM     12  C   UNL     1      15.001   8.419  21.864  0.00  0.00    +0.103 C 
ENDROOT
BRANCH   4   9
ATOM      1  O   UNL     1      22.981   5.348  20.086  0.00  0.00    -0.380 OA
ATOM      9  C   UNL     1      20.569   6.423  21.232  0.00  0.00    +0.082 C 
ATOM     13  C   UNL     1      21.577   7.291  20.478  0.00  0.00    +0.050 C 
ATOM     14  C   UNL     1      20.686   4.966  20.785  0.00  0.00    +0.050 C 
ATOM     16  C   UNL     1      22.974   6.693  20.566  0.00  0.00    +0.161 C 
ATOM     17  C   UNL     1      22.134   4.497  20.857  0.00  0.00    +0.161 C 
ENDBRANCH   4   9
BRANCH   5  15
ATOM     15  C   UNL     1      13.343   6.881  21.021  0.00  0.00    +0.085 C 
BRANCH  15  18
ATOM     18  C   UNL     1      12.408   7.104  19.833  0.00  0.00    +0.020 C 
BRANCH  18  19
ATOM     19  C   UNL     1      12.195   8.598  19.573  0.00  0.00    +0.036 C 
BRANCH  19  20
ATOM     20  C   UNL     1      12.026   8.889  18.104  0.00  0.00    -0.047 A 
ATOM     21  C   UNL     1      13.049   9.518  17.395  0.00  0.00    +0.003 A 
ATOM     22  C   UNL     1      10.845   8.531  17.453  0.00  0.00    +0.003 A 
ATOM     23  C   UNL     1      12.893   9.788  16.035  0.00  0.00    +0.000 A 
ATOM     24  C   UNL     1      10.688   8.802  16.095  0.00  0.00    +0.000 A 
ATOM     25  C   UNL     1      11.712   9.430  15.385  0.00  0.00    +0.000 A 
ENDBRANCH  19  20
ENDBRANCH  18  19
ENDBRANCH  15  18
ENDBRANCH   5  15
TORSDOF 5
ENDMDL
MODEL 4
REMARK VINA RESULT:      -6.4     27.054     30.280
REMARK  Name = 75368664
REMARK  5 active torsions:
REMARK  status: ('A' for Active; 'I' for Inactive)
REMARK    1  A    between atoms: N_4  and  C_9
REMARK    2  A    between atoms: N_5  and  C_15
REMARK    3  A    between atoms: C_15  and  C_18
REMARK    4  A    between atoms: C_18  and  C_19
REMARK    5  A    between atoms: C_19  and  C_20
REMARK                            x       y       z     vdW  Elec       q    Type
REMARK                         _______ _______ _______ _____ _____    ______ ____
ROOT
ATOM      2  O   UNL     1     -16.134   8.137  22.749  0.00  0.00    -0.252 OA
ATOM      3  N   UNL     1     -16.258   5.902  23.463  0.00  0.00    -0.278 N 
ATOM      4  N   UNL     1     -14.619   6.475  22.037  0.00  0.00    -0.280 N 
ATOM      5  N   UNL     1     -16.557   3.716  25.208  0.00  0.00    -0.299 NA
ATOM      6  C   UNL     1     -15.604   4.652  23.140  0.00  0.00    +0.109 C 
ATOM      7  C   UNL     1     -14.363   5.082  22.362  0.00  0.00    +0.133 C 
ATOM      8  C   UNL     1     -15.320   3.856  24.413  0.00  0.00    +0.108 C 
ATOM     10  C   UNL     1     -17.397   5.896  24.357  0.00  0.00    +0.125 C 
ATOM     11  C   UNL     1     -15.726   6.983  22.748  0.00  0.00    +0.305 C 
ATOM     12  C   UNL     1     -17.090   5.041  25.589  0.00  0.00    +0.103 C 
ENDROOT
BRANCH   4   9
ATOM      1  O   UNL     1     -12.109   7.419  18.830  0.00  0.00    -0.380 OA
ATOM      9  C   UNL     1     -13.729   7.242  21.202  0.00  0.00    +0.082 C 
ATOM     13  C   UNL     1     -14.330   7.452  19.812  0.00  0.00    +0.050 C 
ATOM     14  C   UNL     1     -12.360   6.570  21.092  0.00  0.00    +0.050 C 
ATOM     16  C   UNL     1     -13.334   8.149  18.895  0.00  0.00    +0.161 C 
ATOM     17  C   UNL     1     -11.474   7.318  20.104  0.00  0.00    +0.161 C 
ENDBRANCH   4   9
BRANCH   5  15
ATOM     15  C   UNL     1     -16.310   2.905  26.399  0.00  0.00    +0.085 C 
BRANCH  15  18
ATOM     18  C   UNL     1     -16.520   3.738  27.662  0.00  0.00    +0.020 C 
BRANCH  18  19
ATOM     19  C   UNL     1     -17.018   2.868  28.819  0.00  0.00    +0.036 C 
BRANCH  19  20
ATOM     20  C   UNL     1     -15.890   2.111  29.472  0.00  0.00    -0.047 A 
ATOM     21  C   UNL     1     -14.717   2.777  29.829  0.00  0.00    +0.003 A 
ATOM     22  C   UNL     1     -16.018   0.744  29.717  0.00  0.00    +0.003 A 
ATOM     23  C   UNL     1     -13.673   2.075  30.433  0.00  0.00    +0.000 A 
ATOM     24  C   UNL     1     -14.975   0.042  30.320  0.00  0.00    +0.000 A 
ATOM     25  C   UNL     1     -13.802   0.708  30.679  0.00  0.00    +0.000 A 
ENDBRANCH  19  20
ENDBRANCH  18  19
ENDBRANCH  15  18
ENDBRANCH   5  15
TORSDOF 5
ENDMDL
MODEL 5
REMARK VINA RESULT:      -6.4      1.600      2.901
REMARK  Name = 75368664
REMARK  5 active torsions:
REMARK  status: ('A' for Active; 'I' for Inactive)
REMARK    1  A    between atoms: N_4  and  C_9
REMARK    2  A    between atoms: N_5  and  C_15
REMARK    3  A    between atoms: C_15  and  C_18
REMARK    4  A    between atoms: C_18  and  C_19
REMARK    5  A    between atoms: C_19  and  C_20
REMARK                            x       y       z     vdW  Elec       q    Type
REMARK                         _______ _______ _______ _____ _____    ______ ____
ROOT
ATOM      2  O   UNL     1      11.097  10.990  25.349  0.00  0.00    -0.252 OA
ATOM      3  N   UNL     1      11.124  10.604  23.032  0.00  0.00    -0.278 N 
ATOM      4  N   UNL     1      11.643  12.659  23.774  0.00  0.00    -0.280 N 
ATOM      5  N   UNL     1      11.637   9.296  20.594  0.00  0.00    -0.299 NA
ATOM      6  C   UNL     1      11.279  11.395  21.830  0.00  0.00    +0.109 C 
ATOM      7  C   UNL     1      11.852  12.716  22.337  0.00  0.00    +0.133 C 
ATOM      8  C   UNL     1      12.158  10.660  20.818  0.00  0.00    +0.108 C 
ATOM     10  C   UNL     1      10.759   9.207  22.919  0.00  0.00    +0.125 C 
ATOM     11  C   UNL     1      11.262  11.369  24.197  0.00  0.00    +0.305 C 
ATOM     12  C   UNL     1      11.623   8.525  21.855  0.00  0.00    +0.103 C 
ENDROOT
BRANCH   4   9
ATOM      1  O   UNL     1      12.238  14.826  27.299  0.00  0.00    -0.380 OA
ATOM      9  C   UNL     1      11.950  13.773  24.637  0.00  0.00    +0.082 C 
ATOM     13  C   UNL     1      13.165  13.466  25.513  0.00  0.00    +0.050 C 
ATOM     14  C   UNL     1      10.748  14.143  25.506  0.00  0.00    +0.050 C 
ATOM     16  C   UNL     1      13.405  14.590  26.511  0.00  0.00    +0.161 C 
ATOM     17  C   UNL     1      11.124  15.231  26.505  0.00  0.00    +0.161 C 
ENDBRANCH   4   9
BRANCH   5  15
ATOM     15  C   UNL     1      12.436   8.605  19.583  0.00  0.00    +0.085 C 
BRANCH  15  18
ATOM     18  C   UNL     1      13.604   7.871  20.240  0.00  0.00    +0.020 C 
BRANCH  18  19
ATOM     19  C   UNL     1      14.923   8.611  20.001  0.00  0.00    +0.036 C 
BRANCH  19  20
ATOM     20  C   UNL     1      16.093   7.662  19.956  0.00  0.00    -0.047 A 
ATOM     21  C   UNL     1      17.168   7.837  20.826  0.00  0.00    +0.003 A 
ATOM     22  C   UNL     1      16.101   6.608  19.041  0.00  0.00    +0.003 A 
ATOM     23  C   UNL     1      18.252   6.958  20.783  0.00  0.00    +0.000 A 
ATOM     24  C   UNL     1      17.184   5.731  18.997  0.00  0.00    +0.000 A 
ATOM     25  C   UNL     1      18.259   5.905  19.869  0.00  0.00    +0.000 A 
ENDBRANCH  19  20
ENDBRANCH  18  19
ENDBRANCH  15  18
ENDBRANCH   5  15
TORSDOF 5
ENDMDL
MODEL 6
REMARK VINA RESULT:      -6.2     26.676     30.235
REMARK  Name = 75368664
REMARK  5 active torsions:
REMARK  status: ('A' for Active; 'I' for Inactive)
REMARK    1  A    between atoms: N_4  and  C_9
REMARK    2  A    between atoms: N_5  and  C_15
REMARK    3  A    between atoms: C_15  and  C_18
REMARK    4  A    between atoms: C_18  and  C_19
REMARK    5  A    between atoms: C_19  and  C_20
REMARK                            x       y       z     vdW  Elec       q    Type
REMARK                         _______ _______ _______ _____ _____    ______ ____
ROOT
ATOM      2  O   UNL     1      -4.515 -13.186  18.063  0.00  0.00    -0.252 OA
ATOM      3  N   UNL     1      -6.237 -11.653  18.512  0.00  0.00    -0.278 N 
ATOM      4  N   UNL     1      -4.837 -11.213  16.812  0.00  0.00    -0.280 N 
ATOM      5  N   UNL     1      -8.814 -10.704  19.123  0.00  0.00    -0.299 NA
ATOM      6  C   UNL     1      -6.629 -10.338  18.050  0.00  0.00    +0.109 C 
ATOM      7  C   UNL     1      -5.830 -10.154  16.762  0.00  0.00    +0.133 C 
ATOM      8  C   UNL     1      -8.145 -10.263  17.882  0.00  0.00    +0.108 C 
ATOM     10  C   UNL     1      -6.932 -12.245  19.635  0.00  0.00    +0.125 C 
ATOM     11  C   UNL     1      -5.118 -12.148  17.829  0.00  0.00    +0.305 C 
ATOM     12  C   UNL     1      -8.445 -12.096  19.453  0.00  0.00    +0.103 C 
ENDROOT
BRANCH   4   9
ATOM      1  O   UNL     1      -1.906 -10.064  14.060  0.00  0.00    -0.380 OA
ATOM      9  C   UNL     1      -3.795 -11.333  15.822  0.00  0.00    +0.082 C 
ATOM     13  C   UNL     1      -2.490 -10.718  16.326  0.00  0.00    +0.050 C 
ATOM     14  C   UNL     1      -4.212 -10.684  14.502  0.00  0.00    +0.050 C 
ATOM     16  C   UNL     1      -1.432 -10.730  15.231  0.00  0.00    +0.161 C 
ATOM     17  C   UNL     1      -3.058 -10.699  13.508  0.00  0.00    +0.161 C 
ENDBRANCH   4   9
BRANCH   5  15
ATOM     15  C   UNL     1     -10.265 -10.579  18.993  0.00  0.00    +0.085 C 
BRANCH  15  18
ATOM     18  C   UNL     1     -10.622  -9.891  17.676  0.00  0.00    +0.020 C 
BRANCH  18  19
ATOM     19  C   UNL     1     -11.921  -9.090  17.808  0.00  0.00    +0.036 C 
BRANCH  19  20
ATOM     20  C   UNL     1     -11.974  -7.949  16.825  0.00  0.00    -0.047 A 
ATOM     21  C   UNL     1     -13.105  -7.766  16.029  0.00  0.00    +0.003 A 
ATOM     22  C   UNL     1     -10.891  -7.078  16.708  0.00  0.00    +0.003 A 
ATOM     23  C   UNL     1     -13.154  -6.710  15.118  0.00  0.00    +0.000 A 
ATOM     24  C   UNL     1     -10.939  -6.023  15.798  0.00  0.00    +0.000 A 
ATOM     25  C   UNL     1     -12.071  -5.838  15.003  0.00  0.00    +0.000 A 
ENDBRANCH  19  20
ENDBRANCH  18  19
ENDBRANCH  15  18
ENDBRANCH   5  15
TORSDOF 5
ENDMDL
MODEL 7
REMARK VINA RESULT:      -6.1     26.342     29.408
REMARK  Name = 75368664
REMARK  5 active torsions:
REMARK  status: ('A' for Active; 'I' for Inactive)
REMARK    1  A    between atoms: N_4  and  C_9
REMARK    2  A    between atoms: N_5  and  C_15
REMARK    3  A    between atoms: C_15  and  C_18
REMARK    4  A    between atoms: C_18  and  C_19
REMARK    5  A    between atoms: C_19  and  C_20
REMARK                            x       y       z     vdW  Elec       q    Type
REMARK                         _______ _______ _______ _____ _____    ______ ____
ROOT
ATOM      2  O   UNL     1     -18.333   4.642  22.180  0.00  0.00    -0.252 OA
ATOM      3  N   UNL     1     -16.126   5.379  22.505  0.00  0.00    -0.278 N 
ATOM      4  N   UNL     1     -16.826   3.577  23.650  0.00  0.00    -0.280 N 
ATOM      5  N   UNL     1     -13.555   6.326  21.871  0.00  0.00    -0.299 NA
ATOM      6  C   UNL     1     -15.023   5.058  23.386  0.00  0.00    +0.109 C 
ATOM      7  C   UNL     1     -15.418   3.709  23.983  0.00  0.00    +0.133 C 
ATOM      8  C   UNL     1     -13.707   5.056  22.610  0.00  0.00    +0.108 C 
ATOM     10  C   UNL     1     -16.021   6.524  21.626  0.00  0.00    +0.125 C 
ATOM     11  C   UNL     1     -17.235   4.548  22.713  0.00  0.00    +0.305 C 
ATOM     12  C   UNL     1     -14.665   6.514  20.914  0.00  0.00    +0.103 C 
ENDROOT
BRANCH   4   9
ATOM      1  O   UNL     1     -17.865  -0.333  24.704  0.00  0.00    -0.380 OA
ATOM      9  C   UNL     1     -17.626   2.477  24.127  0.00  0.00    +0.082 C 
ATOM     13  C   UNL     1     -16.991   1.837  25.362  0.00  0.00    +0.050 C 
ATOM     14  C   UNL     1     -17.831   1.429  23.033  0.00  0.00    +0.050 C 
ATOM     16  C   UNL     1     -17.768   0.597  25.784  0.00  0.00    +0.161 C 
ATOM     17  C   UNL     1     -18.563   0.212  23.585  0.00  0.00    +0.161 C 
ENDBRANCH   4   9
BRANCH   5  15
ATOM     15  C   UNL     1     -12.270   6.359  21.174  0.00  0.00    +0.085 C 
BRANCH  15  18
ATOM     18  C   UNL     1     -12.246   7.501  20.160  0.00  0.00    +0.020 C 
BRANCH  18  19
ATOM     19  C   UNL     1     -11.307   7.183  18.993  0.00  0.00    +0.036 C 
BRANCH  19  20
ATOM     20  C   UNL     1     -10.869   8.433  18.273  0.00  0.00    -0.047 A 
ATOM     21  C   UNL     1     -10.732   8.426  16.885  0.00  0.00    +0.003 A 
ATOM     22  C   UNL     1     -10.600   9.596  18.996  0.00  0.00    +0.003 A 
ATOM     23  C   UNL     1     -10.327   9.584  16.219  0.00  0.00    +0.000 A 
ATOM     24  C   UNL     1     -10.194  10.752  18.330  0.00  0.00    +0.000 A 
ATOM     25  C   UNL     1     -10.058  10.746  16.942  0.00  0.00    +0.000 A 
ENDBRANCH  19  20
ENDBRANCH  18  19
ENDBRANCH  15  18
ENDBRANCH   5  15
TORSDOF 5
ENDMDL
MODEL 8
REMARK VINA RESULT:      -6.1     27.122     29.191
REMARK  Name = 75368664
REMARK  5 active torsions:
REMARK  status: ('A' for Active; 'I' for Inactive)
REMARK    1  A    between atoms: N_4  and  C_9
REMARK    2  A    between atoms: N_5  and  C_15
REMARK    3  A    between atoms: C_15  and  C_18
REMARK    4  A    between atoms: C_18  and  C_19
REMARK    5  A    between atoms: C_19  and  C_20
REMARK                            x       y       z     vdW  Elec       q    Type
REMARK                         _______ _______ _______ _____ _____    ______ ____
ROOT
ATOM      2  O   UNL     1      -4.876 -12.594   9.932  0.00  0.00    -0.252 OA
ATOM      3  N   UNL     1      -3.164 -11.942  11.402  0.00  0.00    -0.278 N 
ATOM      4  N   UNL     1      -3.894 -10.449   9.891  0.00  0.00    -0.280 N 
ATOM      5  N   UNL     1      -1.748 -11.640  13.814  0.00  0.00    -0.299 NA
ATOM      6  C   UNL     1      -2.285 -10.803  11.563  0.00  0.00    +0.109 C 
ATOM      7  C   UNL     1      -2.932  -9.721  10.700  0.00  0.00    +0.133 C 
ATOM      8  C   UNL     1      -2.142 -10.445  13.042  0.00  0.00    +0.108 C 
ATOM     10  C   UNL     1      -2.957 -13.118  12.221  0.00  0.00    +0.125 C 
ATOM     11  C   UNL     1      -4.076 -11.769  10.353  0.00  0.00    +0.305 C 
ATOM     12  C   UNL     1      -2.760 -12.709  13.684  0.00  0.00    +0.103 C 
ENDROOT
BRANCH   4   9
ATOM      1  O   UNL     1      -6.999  -9.762   7.176  0.00  0.00    -0.380 OA
ATOM      9  C   UNL     1      -4.656  -9.809   8.848  0.00  0.00    +0.082 C 
ATOM     13  C   UNL     1      -6.025  -9.366   9.366  0.00  0.00    +0.050 C 
ATOM     14  C   UNL     1      -4.820 -10.730   7.639  0.00  0.00    +0.050 C 
ATOM     16  C   UNL     1      -6.874  -8.809   8.232  0.00  0.00    +0.161 C 
ATOM     17  C   UNL     1      -5.736 -10.096   6.601  0.00  0.00    +0.161 C 
ENDBRANCH   4   9
BRANCH   5  15
ATOM     15  C   UNL     1      -1.551 -11.296  15.222  0.00  0.00    +0.085 C 
BRANCH  15  18
ATOM     18  C   UNL     1      -2.734 -10.480  15.739  0.00  0.00    +0.020 C 
BRANCH  18  19
ATOM     19  C   UNL     1      -3.287 -11.074  17.037  0.00  0.00    +0.036 C 
BRANCH  19  20
ATOM     20  C   UNL     1      -4.700 -10.620  17.299  0.00  0.00    -0.047 A 
ATOM     21  C   UNL     1      -5.292 -10.863  18.539  0.00  0.00    +0.003 A 
ATOM     22  C   UNL     1      -5.417  -9.959  16.302  0.00  0.00    +0.003 A 
ATOM     23  C   UNL     1      -6.601 -10.442  18.781  0.00  0.00    +0.000 A 
ATOM     24  C   UNL     1      -6.725  -9.540  16.543  0.00  0.00    +0.000 A 
ATOM     25  C   UNL     1      -7.317  -9.781  17.784  0.00  0.00    +0.000 A 
ENDBRANCH  19  20
ENDBRANCH  18  19
ENDBRANCH  15  18
ENDBRANCH   5  15
TORSDOF 5
ENDMDL
MODEL 9
REMARK VINA RESULT:      -6.1     27.287     29.174
REMARK  Name = 75368664
REMARK  5 active torsions:
REMARK  status: ('A' for Active; 'I' for Inactive)
REMARK    1  A    between atoms: N_4  and  C_9
REMARK    2  A    between atoms: N_5  and  C_15
REMARK    3  A    between atoms: C_15  and  C_18
REMARK    4  A    between atoms: C_18  and  C_19
REMARK    5  A    between atoms: C_19  and  C_20
REMARK                            x       y       z     vdW  Elec       q    Type
REMARK                         _______ _______ _______ _____ _____    ______ ____
ROOT
ATOM      2  O   UNL     1     -10.973  -9.603  19.115  0.00  0.00    -0.252 OA
ATOM      3  N   UNL     1      -8.978 -10.318  18.100  0.00  0.00    -0.278 N 
ATOM      4  N   UNL     1     -10.178  -8.717  17.078  0.00  0.00    -0.280 N 
ATOM      5  N   UNL     1      -6.285 -11.093  17.863  0.00  0.00    -0.299 NA
ATOM      6  C   UNL     1      -8.291 -10.095  16.845  0.00  0.00    +0.109 C 
ATOM      7  C   UNL     1      -8.977  -8.856  16.273  0.00  0.00    +0.133 C 
ATOM      8  C   UNL     1      -6.789  -9.946  17.081  0.00  0.00    +0.108 C 
ATOM     10  C   UNL     1      -8.477 -11.323  19.013  0.00  0.00    +0.125 C 
ATOM     11  C   UNL     1     -10.149  -9.556  18.211  0.00  0.00    +0.305 C 
ATOM     12  C   UNL     1      -6.962 -11.174  19.174  0.00  0.00    +0.103 C 
ENDROOT
BRANCH   4   9
ATOM      1  O   UNL     1     -12.960  -6.476  14.906  0.00  0.00    -0.380 OA
ATOM      9  C   UNL     1     -11.178  -7.718  16.794  0.00  0.00    +0.082 C 
ATOM     13  C   UNL     1     -12.490  -8.369  16.355  0.00  0.00    +0.050 C 
ATOM     14  C   UNL     1     -10.690  -6.737  15.728  0.00  0.00    +0.050 C 
ATOM     16  C   UNL     1     -13.500  -7.311  15.932  0.00  0.00    +0.161 C 
ATOM     17  C   UNL     1     -11.801  -5.768  15.342  0.00  0.00    +0.161 C 
ENDBRANCH   4   9
BRANCH   5  15
ATOM     15  C   UNL     1      -4.837 -10.992  18.043  0.00  0.00    +0.085 C 
BRANCH  15  18
ATOM     18  C   UNL     1      -4.217 -10.186  16.903  0.00  0.00    +0.020 C 
BRANCH  18  19
ATOM     19  C   UNL     1      -3.133 -10.994  16.184  0.00  0.00    +0.036 C 
BRANCH  19  20
ATOM     20  C   UNL     1      -3.168 -10.770  14.693  0.00  0.00    -0.047 A 
ATOM     21  C   UNL     1      -4.388 -10.772  14.016  0.00  0.00    +0.003 A 
ATOM     22  C   UNL     1      -1.981 -10.563  13.991  0.00  0.00    +0.003 A 
ATOM     23  C   UNL     1      -4.420 -10.565  12.636  0.00  0.00    +0.000 A 
ATOM     24  C   UNL     1      -2.013 -10.357  12.612  0.00  0.00    +0.000 A 
ATOM     25  C   UNL     1      -3.233 -10.358  11.935  0.00  0.00    +0.000 A 
ENDBRANCH  19  20
ENDBRANCH  18  19
ENDBRANCH  15  18
ENDBRANCH   5  15
TORSDOF 5
ENDMDL
MODEL 10
REMARK VINA RESULT:      -5.9     27.065     29.192
REMARK  Name = 75368664
REMARK  5 active torsions:
REMARK  status: ('A' for Active; 'I' for Inactive)
REMARK    1  A    between atoms: N_4  and  C_9
REMARK    2  A    between atoms: N_5  and  C_15
REMARK    3  A    between atoms: C_15  and  C_18
REMARK    4  A    between atoms: C_18  and  C_19
REMARK    5  A    between atoms: C_19  and  C_20
REMARK                            x       y       z     vdW  Elec       q    Type
REMARK                         _______ _______ _______ _____ _____    ______ ____
ROOT
ATOM      2  O   UNL     1      -1.786 -10.690  15.522  0.00  0.00    -0.252 OA
ATOM      3  N   UNL     1      -2.924 -10.742  13.468  0.00  0.00    -0.278 N 
ATOM      4  N   UNL     1      -4.137 -10.607  15.353  0.00  0.00    -0.280 N 
ATOM      5  N   UNL     1      -3.534 -10.140  10.789  0.00  0.00    -0.299 NA
ATOM      6  C   UNL     1      -4.298 -10.836  13.023  0.00  0.00    +0.109 C 
ATOM      7  C   UNL     1      -5.108 -10.513  14.276  0.00  0.00    +0.133 C 
ATOM      8  C   UNL     1      -4.540  -9.896  11.842  0.00  0.00    +0.108 C 
ATOM     10  C   UNL     1      -1.856 -10.819  12.493  0.00  0.00    +0.125 C 
ATOM     11  C   UNL     1      -2.817 -10.685  14.864  0.00  0.00    +0.305 C 
ATOM     12  C   UNL     1      -2.168  -9.908  11.303  0.00  0.00    +0.103 C 
ENDROOT
BRANCH   4   9
ATOM      1  O   UNL     1      -6.084 -11.406  18.966  0.00  0.00    -0.380 OA
ATOM      9  C   UNL     1      -4.516 -10.478  16.738  0.00  0.00    +0.082 C 
ATOM     13  C   UNL     1      -4.159 -11.740  17.522  0.00  0.00    +0.050 C 
ATOM     14  C   UNL     1      -6.008 -10.172  16.876  0.00  0.00    +0.050 C 
ATOM     16  C   UNL     1      -4.677 -11.651  18.951  0.00  0.00    +0.161 C 
ATOM     17  C   UNL     1      -6.423 -10.169  18.341  0.00  0.00    +0.161 C 
ENDBRANCH   4   9
BRANCH   5  15
ATOM     15  C   UNL     1      -3.793  -9.287   9.629  0.00  0.00    +0.085 C 
BRANCH  15  18
ATOM     18  C   UNL     1      -5.297  -9.121   9.418  0.00  0.00    +0.020 C 
BRANCH  18  19
ATOM     19  C   UNL     1      -5.788  -9.983   8.252  0.00  0.00    +0.036 C 
BRANCH  19  20
ATOM     20  C   UNL     1      -6.633  -9.188   7.290  0.00  0.00    -0.047 A 
ATOM     21  C   UNL     1      -6.510  -9.399   5.916  0.00  0.00    +0.003 A 
ATOM     22  C   UNL     1      -7.536  -8.241   7.772  0.00  0.00    +0.003 A 
ATOM     23  C   UNL     1      -7.293  -8.662   5.025  0.00  0.00    +0.000 A 
ATOM     24  C   UNL     1      -8.317  -7.505   6.882  0.00  0.00    +0.000 A 
ATOM     25  C   UNL     1      -8.196  -7.716   5.508  0.00  0.00    +0.000 A 
ENDBRANCH  19  20
ENDBRANCH  18  19
ENDBRANCH  15  18
ENDBRANCH   5  15
TORSDOF 5
ENDMDL
