MODEL 1
REMARK VINA RESULT:      -7.0      0.000      0.000
REMARK  Name = 11882060
REMARK  9 active torsions:
REMARK  status: ('A' for Active; 'I' for Inactive)
REMARK    1  A    between atoms: N_9  and  C_14
REMARK    2  A    between atoms: N_10  and  C_21
REMARK    3  A    between atoms: N_11  and  C_29
REMARK    4  A    between atoms: N_12  and  C_30
REMARK    5  A    between atoms: C_15  and  C_18
REMARK    6  A    between atoms: C_19  and  C_20
REMARK    7  A    between atoms: C_21  and  C_23
REMARK    8  A    between atoms: C_21  and  C_25
REMARK    9  A    between atoms: C_23  and  C_28
REMARK                            x       y       z     vdW  Elec       q    Type
REMARK                         _______ _______ _______ _____ _____    ______ ____
ROOT
ATOM      5  O   UNL     1      15.549  10.891  18.802  0.00  0.00    -0.268 OA
ATOM      8  N   UNL     1      15.238   9.423  20.553  0.00  0.00    -0.283 N 
ATOM     14  C   UNL     1      16.028   7.226  20.972  0.00  0.00    +0.105 C 
ATOM     15  C   UNL     1      15.820   8.270  19.873  0.00  0.00    +0.182 C 
ATOM     16  C   UNL     1      14.938   7.565  21.992  0.00  0.00    +0.043 C 
ATOM     17  C   UNL     1      14.838   9.083  21.919  0.00  0.00    +0.111 C 
ATOM     19  C   UNL     1      15.192  10.689  19.963  0.00  0.00    +0.264 C 
ENDROOT
BRANCH  14   9
ATOM      6  O   UNL     1      18.407   5.879  20.119  0.00  0.00    -0.252 OA
ATOM      9  N   UNL     1      17.342   7.340  21.559  0.00  0.00    -0.294 N 
ATOM     12  N   UNL     1      19.586   6.952  21.843  0.00  0.00    -0.267 N 
ATOM     22  C   UNL     1      18.456   6.644  21.080  0.00  0.00    +0.304 C 
ATOM     39  H   UNL     1      17.479   8.004  22.316  0.00  0.00    +0.151 HD
ATOM     41  H   UNL     1      19.457   7.607  22.611  0.00  0.00    +0.156 HD
BRANCH  12  30
ATOM      2  F   UNL     1      21.435   8.237  20.201  0.00  0.00    -0.203 F 
ATOM      3  F   UNL     1      24.744   5.017  21.228  0.00  0.00    -0.205 F 
ATOM     30  C   UNL     1      20.902   6.460  21.683  0.00  0.00    +0.070 A 
ATOM     32  C   UNL     1      21.805   7.127  20.855  0.00  0.00    +0.147 A 
ATOM     33  C   UNL     1      21.298   5.305  22.358  0.00  0.00    +0.029 A 
ATOM     36  C   UNL     1      23.102   6.639  20.700  0.00  0.00    +0.078 A 
ATOM     37  C   UNL     1      22.596   4.817  22.204  0.00  0.00    +0.040 A 
ATOM     38  C   UNL     1      23.498   5.484  21.375  0.00  0.00    +0.126 A 
ENDBRANCH  12  30
ENDBRANCH  14   9
BRANCH  19  20
ATOM     11  N   UNL     1      15.412  12.509  21.668  0.00  0.00    -0.346 N 
ATOM     20  C   UNL     1      14.667  11.771  20.786  0.00  0.00    +0.104 A 
ATOM     24  C   UNL     1      13.372  12.238  20.832  0.00  0.00    +0.032 A 
ATOM     26  C   UNL     1      14.612  13.441  22.277  0.00  0.00    +0.086 A 
ATOM     27  C   UNL     1      13.337  13.295  21.776  0.00  0.00    +0.020 A 
ATOM     29  C   UNL     1      16.825  12.345  21.929  0.00  0.00    +0.149 C 
ENDBRANCH  19  20
BRANCH  15  18
ATOM      4  O   UNL     1      15.013   6.829  18.149  0.00  0.00    -0.274 OA
ATOM     10  N   UNL     1      13.681   8.606  18.847  0.00  0.00    -0.302 N 
ATOM     18  C   UNL     1      14.809   7.805  18.866  0.00  0.00    +0.236 C 
ATOM     40  H   UNL     1      13.660   9.436  19.433  0.00  0.00    +0.150 HD
BRANCH  10  21
ATOM     21  C   UNL     1      12.570   8.385  17.951  0.00  0.00    +0.163 C 
BRANCH  21  25
ATOM      7  O   UNL     1      12.702   8.796  15.559  0.00  0.00    -0.274 OA
ATOM     13  N   UNL     1      13.166  10.525  16.998  0.00  0.00    -0.328 N 
ATOM     25  C   UNL     1      12.827   9.221  16.705  0.00  0.00    +0.231 C 
ATOM     42  H   UNL     1      13.348  11.194  16.257  0.00  0.00    +0.145 HD
ATOM     43  H   UNL     1      13.261  10.865  17.949  0.00  0.00    +0.145 HD
ENDBRANCH  21  25
BRANCH  21  23
ATOM     23  C   UNL     1      11.227   8.769  18.584  0.00  0.00    +0.074 C 
BRANCH  23  28
ATOM      1  S   UNL     1      11.333   7.086  20.802  0.00  0.00    -0.102 S 
ATOM     28  C   UNL     1      11.243   8.641  20.089  0.00  0.00    -0.008 A 
ATOM     31  C   UNL     1      11.195   9.642  21.035  0.00  0.00    +0.011 A 
ATOM     34  C   UNL     1      11.231   9.124  22.362  0.00  0.00    +0.008 A 
ATOM     35  C   UNL     1      11.305   7.748  22.380  0.00  0.00    +0.045 A 
ENDBRANCH  23  28
ENDBRANCH  21  23
ENDBRANCH  10  21
ENDBRANCH  15  18
TORSDOF 8
ENDMDL
MODEL 2
REMARK VINA RESULT:      -6.7      2.644      3.795
REMARK  Name = 11882060
REMARK  9 active torsions:
REMARK  status: ('A' for Active; 'I' for Inactive)
REMARK    1  A    between atoms: N_9  and  C_14
REMARK    2  A    between atoms: N_10  and  C_21
REMARK    3  A    between atoms: N_11  and  C_29
REMARK    4  A    between atoms: N_12  and  C_30
REMARK    5  A    between atoms: C_15  and  C_18
REMARK    6  A    between atoms: C_19  and  C_20
REMARK    7  A    between atoms: C_21  and  C_23
REMARK    8  A    between atoms: C_21  and  C_25
REMARK    9  A    between atoms: C_23  and  C_28
REMARK                            x       y       z     vdW  Elec       q    Type
REMARK                         _______ _______ _______ _____ _____    ______ ____
ROOT
ATOM      5  O   UNL     1      13.715  11.640  20.906  0.00  0.00    -0.268 OA
ATOM      8  N   UNL     1      13.080   9.454  21.271  0.00  0.00    -0.283 N 
ATOM     14  C   UNL     1      13.786   7.393  20.332  0.00  0.00    +0.105 C 
ATOM     15  C   UNL     1      13.789   8.908  20.118  0.00  0.00    +0.182 C 
ATOM     16  C   UNL     1      12.518   7.155  21.156  0.00  0.00    +0.043 C 
ATOM     17  C   UNL     1      12.425   8.393  22.039  0.00  0.00    +0.111 C 
ATOM     19  C   UNL     1      13.141  10.808  21.609  0.00  0.00    +0.264 C 
ENDROOT
BRANCH  14   9
ATOM      6  O   UNL     1      16.489   7.446  19.388  0.00  0.00    -0.252 OA
ATOM      9  N   UNL     1      14.961   6.966  21.054  0.00  0.00    -0.294 N 
ATOM     12  N   UNL     1      17.184   6.546  21.442  0.00  0.00    -0.267 N 
ATOM     22  C   UNL     1      16.252   7.025  20.518  0.00  0.00    +0.304 C 
ATOM     39  H   UNL     1      14.856   6.668  22.020  0.00  0.00    +0.151 HD
ATOM     41  H   UNL     1      16.821   6.231  22.339  0.00  0.00    +0.156 HD
BRANCH  12  30
ATOM      2  F   UNL     1      18.927   8.346  22.663  0.00  0.00    -0.203 F 
ATOM      3  F   UNL     1      22.677   6.121  20.828  0.00  0.00    -0.205 F 
ATOM     30  C   UNL     1      18.586   6.441  21.286  0.00  0.00    +0.070 A 
ATOM     32  C   UNL     1      19.432   7.358  21.911  0.00  0.00    +0.147 A 
ATOM     33  C   UNL     1      19.122   5.416  20.506  0.00  0.00    +0.029 A 
ATOM     36  C   UNL     1      20.813   7.250  21.756  0.00  0.00    +0.078 A 
ATOM     37  C   UNL     1      20.505   5.309  20.351  0.00  0.00    +0.040 A 
ATOM     38  C   UNL     1      21.350   6.225  20.976  0.00  0.00    +0.126 A 
ENDBRANCH  12  30
ENDBRANCH  14   9
BRANCH  19  20
ATOM     11  N   UNL     1      13.088  11.442  24.031  0.00  0.00    -0.346 N 
ATOM     20  C   UNL     1      12.461  11.204  22.836  0.00  0.00    +0.104 A 
ATOM     24  C   UNL     1      11.111  11.406  23.020  0.00  0.00    +0.032 A 
ATOM     26  C   UNL     1      12.158  11.792  24.976  0.00  0.00    +0.086 A 
ATOM     27  C   UNL     1      10.919  11.777  24.373  0.00  0.00    +0.020 A 
ATOM     29  C   UNL     1      14.510  11.344  24.276  0.00  0.00    +0.149 C 
ENDBRANCH  19  20
BRANCH  15  18
ATOM      4  O   UNL     1      11.839   8.901  18.740  0.00  0.00    -0.274 OA
ATOM     10  N   UNL     1      13.720  10.071  18.024  0.00  0.00    -0.302 N 
ATOM     18  C   UNL     1      12.994   9.285  18.902  0.00  0.00    +0.236 C 
ATOM     40  H   UNL     1      14.698  10.259  18.228  0.00  0.00    +0.150 HD
BRANCH  10  21
ATOM     21  C   UNL     1      13.190  10.549  16.768  0.00  0.00    +0.163 C 
BRANCH  21  25
ATOM      7  O   UNL     1      13.629   8.480  15.570  0.00  0.00    -0.274 OA
ATOM     13  N   UNL     1      11.464   9.234  15.705  0.00  0.00    -0.328 N 
ATOM     25  C   UNL     1      12.819   9.324  15.945  0.00  0.00    +0.231 C 
ATOM     42  H   UNL     1      11.079   8.454  15.179  0.00  0.00    +0.145 HD
ATOM     43  H   UNL     1      10.803   9.935  16.023  0.00  0.00    +0.145 HD
ENDBRANCH  21  25
BRANCH  21  23
ATOM     23  C   UNL     1      14.196  11.420  16.006  0.00  0.00    +0.074 C 
BRANCH  23  28
ATOM      1  S   UNL     1      14.009  13.688  17.613  0.00  0.00    -0.102 S 
ATOM     28  C   UNL     1      14.900  12.407  16.907  0.00  0.00    -0.008 A 
ATOM     31  C   UNL     1      16.228  12.438  17.272  0.00  0.00    +0.011 A 
ATOM     34  C   UNL     1      16.518  13.529  18.142  0.00  0.00    +0.008 A 
ATOM     35  C   UNL     1      15.401  14.290  18.409  0.00  0.00    +0.045 A 
ENDBRANCH  23  28
ENDBRANCH  21  23
ENDBRANCH  10  21
ENDBRANCH  15  18
TORSDOF 8
ENDMDL
MODEL 3
REMARK VINA RESULT:      -6.6     29.140     31.334
REMARK  Name = 11882060
REMARK  9 active torsions:
REMARK  status: ('A' for Active; 'I' for Inactive)
REMARK    1  A    between atoms: N_9  and  C_14
REMARK    2  A    between atoms: N_10  and  C_21
REMARK    3  A    between atoms: N_11  and  C_29
REMARK    4  A    between atoms: N_12  and  C_30
REMARK    5  A    between atoms: C_15  and  C_18
REMARK    6  A    between atoms: C_19  and  C_20
REMARK    7  A    between atoms: C_21  and  C_23
REMARK    8  A    between atoms: C_21  and  C_25
REMARK    9  A    between atoms: C_23  and  C_28
REMARK                            x       y       z     vdW  Elec       q    Type
REMARK                         _______ _______ _______ _____ _____    ______ ____
ROOT
ATOM      5  O   UNL     1      -7.238 -11.967   8.372  0.00  0.00    -0.268 OA
ATOM      8  N   UNL     1      -5.717 -10.365   9.034  0.00  0.00    -0.283 N 
ATOM     14  C   UNL     1      -5.527  -9.036  10.990  0.00  0.00    +0.105 C 
ATOM     15  C   UNL     1      -6.495  -9.898  10.178  0.00  0.00    +0.182 C 
ATOM     16  C   UNL     1      -4.553  -8.508   9.933  0.00  0.00    +0.043 C 
ATOM     17  C   UNL     1      -4.438  -9.659   8.943  0.00  0.00    +0.111 C 
ATOM     19  C   UNL     1      -6.142 -11.425   8.229  0.00  0.00    +0.264 C 
ENDROOT
BRANCH  14   9
ATOM      6  O   UNL     1      -6.424  -9.601  13.651  0.00  0.00    -0.252 OA
ATOM      9  N   UNL     1      -4.836  -9.822  11.985  0.00  0.00    -0.294 N 
ATOM     12  N   UNL     1      -4.463 -10.842  14.007  0.00  0.00    -0.267 N 
ATOM     22  C   UNL     1      -5.346 -10.050  13.267  0.00  0.00    +0.304 C 
ATOM     39  H   UNL     1      -3.970 -10.284  11.723  0.00  0.00    +0.151 HD
ATOM     41  H   UNL     1      -3.606 -11.132  13.541  0.00  0.00    +0.156 HD
BRANCH  12  30
ATOM      2  F   UNL     1      -4.835 -13.539  14.599  0.00  0.00    -0.203 F 
ATOM      3  F   UNL     1      -5.031 -12.604  19.232  0.00  0.00    -0.205 F 
ATOM     30  C   UNL     1      -4.609 -11.294  15.339  0.00  0.00    +0.070 A 
ATOM     32  C   UNL     1      -4.793 -12.652  15.602  0.00  0.00    +0.147 A 
ATOM     33  C   UNL     1      -4.568 -10.379  16.391  0.00  0.00    +0.029 A 
ATOM     36  C   UNL     1      -4.937 -13.094  16.917  0.00  0.00    +0.078 A 
ATOM     37  C   UNL     1      -4.711 -10.822  17.706  0.00  0.00    +0.040 A 
ATOM     38  C   UNL     1      -4.895 -12.179  17.969  0.00  0.00    +0.126 A 
ENDBRANCH  12  30
ENDBRANCH  14   9
BRANCH  19  20
ATOM     11  N   UNL     1      -4.335 -12.882   7.291  0.00  0.00    -0.346 N 
ATOM     20  C   UNL     1      -5.227 -11.849   7.176  0.00  0.00    +0.104 A 
ATOM     24  C   UNL     1      -5.092 -11.310   5.915  0.00  0.00    +0.032 A 
ATOM     26  C   UNL     1      -3.631 -13.012   6.121  0.00  0.00    +0.086 A 
ATOM     27  C   UNL     1      -4.081 -12.046   5.248  0.00  0.00    +0.020 A 
ATOM     29  C   UNL     1      -4.151 -13.718   8.457  0.00  0.00    +0.149 C 
ENDBRANCH  19  20
BRANCH  15  18
ATOM      4  O   UNL     1      -8.581  -8.744  10.323  0.00  0.00    -0.274 OA
ATOM     10  N   UNL     1      -7.451  -8.780   8.287  0.00  0.00    -0.302 N 
ATOM     18  C   UNL     1      -7.624  -9.077   9.628  0.00  0.00    +0.236 C 
ATOM     40  H   UNL     1      -6.656  -9.178   7.795  0.00  0.00    +0.150 HD
BRANCH  10  21
ATOM     21  C   UNL     1      -8.408  -8.020   7.517  0.00  0.00    +0.163 C 
BRANCH  21  25
ATOM      7  O   UNL     1      -8.967  -9.307   5.532  0.00  0.00    -0.274 OA
ATOM     13  N   UNL     1      -7.281  -7.753   5.395  0.00  0.00    -0.328 N 
ATOM     25  C   UNL     1      -8.261  -8.455   6.065  0.00  0.00    +0.231 C 
ATOM     42  H   UNL     1      -7.091  -7.933   4.414  0.00  0.00    +0.145 HD
ATOM     43  H   UNL     1      -6.708  -7.047   5.846  0.00  0.00    +0.145 HD
ENDBRANCH  21  25
BRANCH  21  23
ATOM     23  C   UNL     1      -8.189  -6.508   7.646  0.00  0.00    +0.074 C 
BRANCH  23  28
ATOM      1  S   UNL     1     -10.950  -6.544   8.013  0.00  0.00    -0.102 S 
ATOM     28  C   UNL     1      -9.419  -5.790   8.150  0.00  0.00    -0.008 A 
ATOM     31  C   UNL     1      -9.505  -4.548   8.740  0.00  0.00    +0.011 A 
ATOM     34  C   UNL     1     -10.846  -4.210   9.082  0.00  0.00    +0.008 A 
ATOM     35  C   UNL     1     -11.734  -5.207   8.741  0.00  0.00    +0.045 A 
ENDBRANCH  23  28
ENDBRANCH  21  23
ENDBRANCH  10  21
ENDBRANCH  15  18
TORSDOF 8
ENDMDL
MODEL 4
REMARK VINA RESULT:      -6.5     28.760     31.697
REMARK  Name = 11882060
REMARK  9 active torsions:
REMARK  status: ('A' for Active; 'I' for Inactive)
REMARK    1  A    between atoms: N_9  and  C_14
REMARK    2  A    between atoms: N_10  and  C_21
REMARK    3  A    between atoms: N_11  and  C_29
REMARK    4  A    between atoms: N_12  and  C_30
REMARK    5  A    between atoms: C_15  and  C_18
REMARK    6  A    between atoms: C_19  and  C_20
REMARK    7  A    between atoms: C_21  and  C_23
REMARK    8  A    between atoms: C_21  and  C_25
REMARK    9  A    between atoms: C_23  and  C_28
REMARK                            x       y       z     vdW  Elec       q    Type
REMARK                         _______ _______ _______ _____ _____    ______ ____
ROOT
ATOM      5  O   UNL     1      -4.970  -8.340  10.259  0.00  0.00    -0.268 OA
ATOM      8  N   UNL     1      -5.399 -10.529   9.677  0.00  0.00    -0.283 N 
ATOM     14  C   UNL     1      -5.660 -11.618   7.586  0.00  0.00    +0.105 C 
ATOM     15  C   UNL     1      -5.666 -10.250   8.269  0.00  0.00    +0.182 C 
ATOM     16  C   UNL     1      -6.095 -12.572   8.700  0.00  0.00    +0.043 C 
ATOM     17  C   UNL     1      -5.481 -11.964   9.954  0.00  0.00    +0.111 C 
ATOM     19  C   UNL     1      -5.014  -9.529  10.573  0.00  0.00    +0.264 C 
ENDROOT
BRANCH  14   9
ATOM      6  O   UNL     1      -5.031 -13.318   5.368  0.00  0.00    -0.252 OA
ATOM      9  N   UNL     1      -4.341 -11.953   7.101  0.00  0.00    -0.294 N 
ATOM     12  N   UNL     1      -2.750 -12.936   5.771  0.00  0.00    -0.267 N 
ATOM     22  C   UNL     1      -4.120 -12.795   6.006  0.00  0.00    +0.304 C 
ATOM     39  H   UNL     1      -3.537 -11.507   7.534  0.00  0.00    +0.151 HD
ATOM     41  H   UNL     1      -2.123 -12.434   6.396  0.00  0.00    +0.156 HD
BRANCH  12  30
ATOM      2  F   UNL     1      -2.685 -12.080   3.119  0.00  0.00    -0.203 F 
ATOM      3  F   UNL     1      -0.258 -15.930   1.827  0.00  0.00    -0.205 F 
ATOM     30  C   UNL     1      -2.116 -13.698   4.762  0.00  0.00    +0.070 A 
ATOM     32  C   UNL     1      -2.100 -13.242   3.444  0.00  0.00    +0.147 A 
ATOM     33  C   UNL     1      -1.504 -14.908   5.089  0.00  0.00    +0.029 A 
ATOM     36  C   UNL     1      -1.473 -13.996   2.452  0.00  0.00    +0.078 A 
ATOM     37  C   UNL     1      -0.877 -15.663   4.097  0.00  0.00    +0.040 A 
ATOM     38  C   UNL     1      -0.861 -15.206   2.779  0.00  0.00    +0.126 A 
ENDBRANCH  12  30
ENDBRANCH  14   9
BRANCH  19  20
ATOM     11  N   UNL     1      -3.432 -10.299  12.356  0.00  0.00    -0.346 N 
ATOM     20  C   UNL     1      -4.689  -9.960  11.928  0.00  0.00    +0.104 A 
ATOM     24  C   UNL     1      -5.551 -10.103  12.993  0.00  0.00    +0.032 A 
ATOM     26  C   UNL     1      -3.479 -10.657  13.679  0.00  0.00    +0.086 A 
ATOM     27  C   UNL     1      -4.786 -10.544  14.100  0.00  0.00    +0.020 A 
ATOM     29  C   UNL     1      -2.231 -10.287  11.551  0.00  0.00    +0.149 C 
ENDBRANCH  19  20
BRANCH  15  18
ATOM      4  O   UNL     1      -8.019 -10.170   8.671  0.00  0.00    -0.274 OA
ATOM     10  N   UNL     1      -7.005  -8.394   7.557  0.00  0.00    -0.302 N 
ATOM     18  C   UNL     1      -7.026  -9.617   8.205  0.00  0.00    +0.236 C 
ATOM     40  H   UNL     1      -6.135  -8.074   7.142  0.00  0.00    +0.150 HD
BRANCH  10  21
ATOM     21  C   UNL     1      -8.188  -7.593   7.344  0.00  0.00    +0.163 C 
BRANCH  21  25
ATOM      7  O   UNL     1      -9.438  -7.139   5.309  0.00  0.00    -0.274 OA
ATOM     13  N   UNL     1      -7.224  -7.725   5.131  0.00  0.00    -0.328 N 
ATOM     25  C   UNL     1      -8.381  -7.471   5.839  0.00  0.00    +0.231 C 
ATOM     42  H   UNL     1      -7.211  -7.662   4.118  0.00  0.00    +0.145 HD
ATOM     43  H   UNL     1      -6.355  -7.994   5.581  0.00  0.00    +0.145 HD
ENDBRANCH  21  25
BRANCH  21  23
ATOM     23  C   UNL     1      -8.072  -6.203   7.982  0.00  0.00    +0.074 C 
BRANCH  23  28
ATOM      1  S   UNL     1     -10.539  -6.887   9.081  0.00  0.00    -0.102 S 
ATOM     28  C   UNL     1      -9.379  -5.733   8.576  0.00  0.00    -0.008 A 
ATOM     31  C   UNL     1      -9.808  -4.441   8.788  0.00  0.00    +0.011 A 
ATOM     34  C   UNL     1     -11.107  -4.399   9.373  0.00  0.00    +0.008 A 
ATOM     35  C   UNL     1     -11.621  -5.660   9.585  0.00  0.00    +0.045 A 
ENDBRANCH  23  28
ENDBRANCH  21  23
ENDBRANCH  10  21
ENDBRANCH  15  18
TORSDOF 8
ENDMDL
MODEL 5
REMARK VINA RESULT:      -6.2     14.240     16.036
REMARK  Name = 11882060
REMARK  9 active torsions:
REMARK  status: ('A' for Active; 'I' for Inactive)
REMARK    1  A    between atoms: N_9  and  C_14
REMARK    2  A    between atoms: N_10  and  C_21
REMARK    3  A    between atoms: N_11  and  C_29
REMARK    4  A    between atoms: N_12  and  C_30
REMARK    5  A    between atoms: C_15  and  C_18
REMARK    6  A    between atoms: C_19  and  C_20
REMARK    7  A    between atoms: C_21  and  C_23
REMARK    8  A    between atoms: C_21  and  C_25
REMARK    9  A    between atoms: C_23  and  C_28
REMARK                            x       y       z     vdW  Elec       q    Type
REMARK                         _______ _______ _______ _____ _____    ______ ____
ROOT
ATOM      5  O   UNL     1      11.839   5.727   3.968  0.00  0.00    -0.268 OA
ATOM      8  N   UNL     1      12.285   7.833   4.795  0.00  0.00    -0.283 N 
ATOM     14  C   UNL     1      13.924   8.660   6.296  0.00  0.00    +0.105 C 
ATOM     15  C   UNL     1      13.228   7.386   5.816  0.00  0.00    +0.182 C 
ATOM     16  C   UNL     1      12.874   9.748   6.059  0.00  0.00    +0.043 C 
ATOM     17  C   UNL     1      12.165   9.292   4.790  0.00  0.00    +0.111 C 
ATOM     19  C   UNL     1      11.686   6.946   3.896  0.00  0.00    +0.264 C 
ENDROOT
BRANCH  14   9
ATOM      6  O   UNL     1      16.550   7.653   6.837  0.00  0.00    -0.252 OA
ATOM      9  N   UNL     1      15.123   8.920   5.534  0.00  0.00    -0.294 N 
ATOM     12  N   UNL     1      17.340   8.809   4.952  0.00  0.00    -0.267 N 
ATOM     22  C   UNL     1      16.372   8.386   5.867  0.00  0.00    +0.304 C 
ATOM     39  H   UNL     1      15.045   9.463   4.678  0.00  0.00    +0.151 HD
ATOM     41  H   UNL     1      17.027   9.420   4.202  0.00  0.00    +0.156 HD
BRANCH  12  30
ATOM      2  F   UNL     1      18.597   7.866   2.651  0.00  0.00    -0.203 F 
ATOM      3  F   UNL     1      22.744   7.575   4.908  0.00  0.00    -0.205 F 
ATOM     30  C   UNL     1      18.718   8.492   4.939  0.00  0.00    +0.070 A 
ATOM     32  C   UNL     1      19.318   8.023   3.770  0.00  0.00    +0.147 A 
ATOM     33  C   UNL     1      19.478   8.652   6.097  0.00  0.00    +0.029 A 
ATOM     36  C   UNL     1      20.678   7.712   3.760  0.00  0.00    +0.078 A 
ATOM     37  C   UNL     1      20.839   8.341   6.087  0.00  0.00    +0.040 A 
ATOM     38  C   UNL     1      21.438   7.872   4.919  0.00  0.00    +0.126 A 
ENDBRANCH  12  30
ENDBRANCH  14   9
BRANCH  19  20
ATOM     11  N   UNL     1      11.289   8.039   1.678  0.00  0.00    -0.346 N 
ATOM     20  C   UNL     1      10.836   7.536   2.869  0.00  0.00    +0.104 A 
ATOM     24  C   UNL     1       9.467   7.695   2.902  0.00  0.00    +0.032 A 
ATOM     26  C   UNL     1      10.231   8.517   0.949  0.00  0.00    +0.086 A 
ATOM     27  C   UNL     1       9.084   8.315   1.687  0.00  0.00    +0.020 A 
ATOM     29  C   UNL     1      12.667   8.070   1.240  0.00  0.00    +0.149 C 
ENDBRANCH  19  20
BRANCH  15  18
ATOM      4  O   UNL     1      12.941   6.199   7.868  0.00  0.00    -0.274 OA
ATOM     10  N   UNL     1      11.054   6.893   6.695  0.00  0.00    -0.302 N 
ATOM     18  C   UNL     1      12.415   6.764   6.913  0.00  0.00    +0.236 C 
ATOM     40  H   UNL     1      10.734   7.312   5.826  0.00  0.00    +0.150 HD
BRANCH  10  21
ATOM     21  C   UNL     1      10.056   6.361   7.593  0.00  0.00    +0.163 C 
BRANCH  21  25
ATOM      7  O   UNL     1       9.557   4.495   6.116  0.00  0.00    -0.274 OA
ATOM     13  N   UNL     1      10.144   4.048   8.291  0.00  0.00    -0.328 N 
ATOM     25  C   UNL     1       9.871   4.892   7.235  0.00  0.00    +0.231 C 
ATOM     42  H   UNL     1      10.075   3.041   8.182  0.00  0.00    +0.145 HD
ATOM     43  H   UNL     1      10.407   4.388   9.210  0.00  0.00    +0.145 HD
ENDBRANCH  21  25
BRANCH  21  23
ATOM     23  C   UNL     1       8.721   7.108   7.489  0.00  0.00    +0.074 C 
BRANCH  23  28
ATOM      1  S   UNL     1       9.615   9.645   8.213  0.00  0.00    -0.102 S 
ATOM     28  C   UNL     1       8.902   8.556   7.100  0.00  0.00    -0.008 A 
ATOM     31  C   UNL     1       8.562   9.175   5.916  0.00  0.00    +0.011 A 
ATOM     34  C   UNL     1       8.892  10.561   5.924  0.00  0.00    +0.008 A 
ATOM     35  C   UNL     1       9.470  10.949   7.113  0.00  0.00    +0.045 A 
ENDBRANCH  23  28
ENDBRANCH  21  23
ENDBRANCH  10  21
ENDBRANCH  15  18
TORSDOF 8
ENDMDL
MODEL 6
REMARK VINA RESULT:      -6.2     14.756     17.967
REMARK  Name = 11882060
REMARK  9 active torsions:
REMARK  status: ('A' for Active; 'I' for Inactive)
REMARK    1  A    between atoms: N_9  and  C_14
REMARK    2  A    between atoms: N_10  and  C_21
REMARK    3  A    between atoms: N_11  and  C_29
REMARK    4  A    between atoms: N_12  and  C_30
REMARK    5  A    between atoms: C_15  and  C_18
REMARK    6  A    between atoms: C_19  and  C_20
REMARK    7  A    between atoms: C_21  and  C_23
REMARK    8  A    between atoms: C_21  and  C_25
REMARK    9  A    between atoms: C_23  and  C_28
REMARK                            x       y       z     vdW  Elec       q    Type
REMARK                         _______ _______ _______ _____ _____    ______ ____
ROOT
ATOM      5  O   UNL     1      12.777   4.792   2.369  0.00  0.00    -0.268 OA
ATOM      8  N   UNL     1      13.985   6.732   2.057  0.00  0.00    -0.283 N 
ATOM     14  C   UNL     1      15.283   8.074   3.520  0.00  0.00    +0.105 C 
ATOM     15  C   UNL     1      14.205   6.989   3.477  0.00  0.00    +0.182 C 
ATOM     16  C   UNL     1      15.077   8.829   2.204  0.00  0.00    +0.043 C 
ATOM     17  C   UNL     1      14.648   7.741   1.229  0.00  0.00    +0.111 C 
ATOM     19  C   UNL     1      13.310   5.596   1.603  0.00  0.00    +0.264 C 
ENDROOT
BRANCH  14   9
ATOM      6  O   UNL     1      17.659   9.336   4.502  0.00  0.00    -0.252 OA
ATOM      9  N   UNL     1      16.604   7.495   3.585  0.00  0.00    -0.294 N 
ATOM     12  N   UNL     1      18.854   7.373   4.021  0.00  0.00    -0.267 N 
ATOM     22  C   UNL     1      17.717   8.182   4.081  0.00  0.00    +0.304 C 
ATOM     39  H   UNL     1      16.721   6.521   3.319  0.00  0.00    +0.151 HD
ATOM     41  H   UNL     1      18.732   6.437   3.641  0.00  0.00    +0.156 HD
BRANCH  12  30
ATOM      2  F   UNL     1      21.024   7.056   2.301  0.00  0.00    -0.203 F 
ATOM      3  F   UNL     1      24.012   8.643   5.608  0.00  0.00    -0.205 F 
ATOM     30  C   UNL     1      20.171   7.695   4.423  0.00  0.00    +0.070 A 
ATOM     32  C   UNL     1      21.237   7.526   3.538  0.00  0.00    +0.147 A 
ATOM     33  C   UNL     1      20.404   8.184   5.709  0.00  0.00    +0.029 A 
ATOM     36  C   UNL     1      22.534   7.845   3.939  0.00  0.00    +0.078 A 
ATOM     37  C   UNL     1      21.702   8.504   6.110  0.00  0.00    +0.040 A 
ATOM     38  C   UNL     1      22.766   8.334   5.225  0.00  0.00    +0.126 A 
ENDBRANCH  12  30
ENDBRANCH  14   9
BRANCH  19  20
ATOM     11  N   UNL     1      14.182   4.761  -0.591  0.00  0.00    -0.346 N 
ATOM     20  C   UNL     1      13.239   5.415   0.158  0.00  0.00    +0.104 A 
ATOM     24  C   UNL     1      12.250   5.852  -0.695  0.00  0.00    +0.032 A 
ATOM     26  C   UNL     1      13.809   4.774  -1.910  0.00  0.00    +0.086 A 
ATOM     27  C   UNL     1      12.610   5.447  -2.003  0.00  0.00    +0.020 A 
ATOM     29  C   UNL     1      15.389   4.146  -0.085  0.00  0.00    +0.149 C 
ENDBRANCH  19  20
BRANCH  15  18
ATOM      4  O   UNL     1      12.486   8.619   3.777  0.00  0.00    -0.274 OA
ATOM     10  N   UNL     1      12.289   6.563   4.852  0.00  0.00    -0.302 N 
ATOM     18  C   UNL     1      12.906   7.493   4.033  0.00  0.00    +0.236 C 
ATOM     40  H   UNL     1      12.772   5.692   5.054  0.00  0.00    +0.150 HD
BRANCH  10  21
ATOM     21  C   UNL     1      11.037   6.812   5.527  0.00  0.00    +0.163 C 
BRANCH  21  25
ATOM      7  O   UNL     1      10.199   5.748   7.546  0.00  0.00    -0.274 OA
ATOM     13  N   UNL     1      12.450   6.176   7.383  0.00  0.00    -0.328 N 
ATOM     25  C   UNL     1      11.151   6.205   6.919  0.00  0.00    +0.231 C 
ATOM     42  H   UNL     1      12.668   5.781   8.293  0.00  0.00    +0.145 HD
ATOM     43  H   UNL     1      13.229   6.553   6.853  0.00  0.00    +0.145 HD
ENDBRANCH  21  25
BRANCH  21  23
ATOM     23  C   UNL     1       9.842   6.209   4.778  0.00  0.00    +0.074 C 
BRANCH  23  28
ATOM      1  S   UNL     1       9.370   7.541   2.378  0.00  0.00    -0.102 S 
ATOM     28  C   UNL     1       9.045   7.253   4.034  0.00  0.00    -0.008 A 
ATOM     31  C   UNL     1       8.034   8.060   4.510  0.00  0.00    +0.011 A 
ATOM     34  C   UNL     1       7.521   8.925   3.500  0.00  0.00    +0.008 A 
ATOM     35  C   UNL     1       8.159   8.748   2.292  0.00  0.00    +0.045 A 
ENDBRANCH  23  28
ENDBRANCH  21  23
ENDBRANCH  10  21
ENDBRANCH  15  18
TORSDOF 8
ENDMDL
MODEL 7
REMARK VINA RESULT:      -6.2     28.999     32.923
REMARK  Name = 11882060
REMARK  9 active torsions:
REMARK  status: ('A' for Active; 'I' for Inactive)
REMARK    1  A    between atoms: N_9  and  C_14
REMARK    2  A    between atoms: N_10  and  C_21
REMARK    3  A    between atoms: N_11  and  C_29
REMARK    4  A    between atoms: N_12  and  C_30
REMARK    5  A    between atoms: C_15  and  C_18
REMARK    6  A    between atoms: C_19  and  C_20
REMARK    7  A    between atoms: C_21  and  C_23
REMARK    8  A    between atoms: C_21  and  C_25
REMARK    9  A    between atoms: C_23  and  C_28
REMARK                            x       y       z     vdW  Elec       q    Type
REMARK                         _______ _______ _______ _____ _____    ______ ____
ROOT
ATOM      5  O   UNL     1      -9.705 -12.510  16.427  0.00  0.00    -0.268 OA
ATOM      8  N   UNL     1     -10.231 -10.365  17.089  0.00  0.00    -0.283 N 
ATOM     14  C   UNL     1      -9.653  -8.229  16.236  0.00  0.00    +0.105 C 
ATOM     15  C   UNL     1      -9.264  -9.708  16.216  0.00  0.00    +0.182 C 
ATOM     16  C   UNL     1     -10.309  -8.055  17.608  0.00  0.00    +0.043 C 
ATOM     17  C   UNL     1     -11.017  -9.384  17.839  0.00  0.00    +0.111 C 
ATOM     19  C   UNL     1     -10.412 -11.750  17.089  0.00  0.00    +0.264 C 
ENDROOT
BRANCH  14   9
ATOM      6  O   UNL     1     -11.006  -5.740  15.818  0.00  0.00    -0.252 OA
ATOM      9  N   UNL     1     -10.581  -7.918  15.174  0.00  0.00    -0.294 N 
ATOM     12  N   UNL     1     -12.042  -6.664  13.925  0.00  0.00    -0.267 N 
ATOM     22  C   UNL     1     -11.201  -6.671  15.041  0.00  0.00    +0.304 C 
ATOM     39  H   UNL     1     -10.743  -8.615  14.452  0.00  0.00    +0.151 HD
ATOM     41  H   UNL     1     -12.093  -7.524  13.383  0.00  0.00    +0.156 HD
BRANCH  12  30
ATOM      2  F   UNL     1     -14.785  -6.574  14.411  0.00  0.00    -0.203 F 
ATOM      3  F   UNL     1     -15.173  -2.488  12.058  0.00  0.00    -0.205 F 
ATOM     30  C   UNL     1     -12.844  -5.601  13.449  0.00  0.00    +0.070 A 
ATOM     32  C   UNL     1     -14.214  -5.584  13.710  0.00  0.00    +0.147 A 
ATOM     33  C   UNL     1     -12.260  -4.566  12.718  0.00  0.00    +0.029 A 
ATOM     36  C   UNL     1     -15.001  -4.533  13.239  0.00  0.00    +0.078 A 
ATOM     37  C   UNL     1     -13.048  -3.514  12.247  0.00  0.00    +0.040 A 
ATOM     38  C   UNL     1     -14.418  -3.498  12.508  0.00  0.00    +0.126 A 
ENDBRANCH  12  30
ENDBRANCH  14   9
BRANCH  19  20
ATOM     11  N   UNL     1     -11.328 -12.563  19.274  0.00  0.00    -0.346 N 
ATOM     20  C   UNL     1     -11.474 -12.268  17.944  0.00  0.00    +0.104 A 
ATOM     24  C   UNL     1     -12.775 -12.548  17.589  0.00  0.00    +0.032 A 
ATOM     26  C   UNL     1     -12.517 -13.029  19.774  0.00  0.00    +0.086 A 
ATOM     27  C   UNL     1     -13.435 -13.029  18.746  0.00  0.00    +0.020 A 
ATOM     29  C   UNL     1     -10.115 -12.414  20.047  0.00  0.00    +0.149 C 
ENDBRANCH  19  20
BRANCH  15  18
ATOM      4  O   UNL     1      -7.507  -9.231  17.761  0.00  0.00    -0.274 OA
ATOM     10  N   UNL     1      -7.210 -10.943  16.210  0.00  0.00    -0.302 N 
ATOM     18  C   UNL     1      -7.911  -9.922  16.829  0.00  0.00    +0.236 C 
ATOM     40  H   UNL     1      -7.616 -11.392  15.394  0.00  0.00    +0.150 HD
BRANCH  10  21
ATOM     21  C   UNL     1      -5.874 -11.332  16.598  0.00  0.00    +0.163 C 
BRANCH  21  25
ATOM      7  O   UNL     1      -6.552 -12.868  18.357  0.00  0.00    -0.274 OA
ATOM     13  N   UNL     1      -5.244 -11.065  18.917  0.00  0.00    -0.328 N 
ATOM     25  C   UNL     1      -5.956 -11.845  18.029  0.00  0.00    +0.231 C 
ATOM     42  H   UNL     1      -5.202 -11.305  19.902  0.00  0.00    +0.145 HD
ATOM     43  H   UNL     1      -4.751 -10.224  18.633  0.00  0.00    +0.145 HD
ENDBRANCH  21  25
BRANCH  21  23
ATOM     23  C   UNL     1      -4.879 -10.170  16.503  0.00  0.00    +0.074 C 
BRANCH  23  28
ATOM      1  S   UNL     1      -3.638 -10.851  14.104  0.00  0.00    -0.102 S 
ATOM     28  C   UNL     1      -3.606 -10.561  15.792  0.00  0.00    -0.008 A 
ATOM     31  C   UNL     1      -2.345 -10.730  16.322  0.00  0.00    +0.011 A 
ATOM     34  C   UNL     1      -1.393 -11.103  15.328  0.00  0.00    +0.008 A 
ATOM     35  C   UNL     1      -1.963 -11.206  14.078  0.00  0.00    +0.045 A 
ENDBRANCH  23  28
ENDBRANCH  21  23
ENDBRANCH  10  21
ENDBRANCH  15  18
TORSDOF 8
ENDMDL
MODEL 8
REMARK VINA RESULT:      -6.1      1.676      2.204
REMARK  Name = 11882060
REMARK  9 active torsions:
REMARK  status: ('A' for Active; 'I' for Inactive)
REMARK    1  A    between atoms: N_9  and  C_14
REMARK    2  A    between atoms: N_10  and  C_21
REMARK    3  A    between atoms: N_11  and  C_29
REMARK    4  A    between atoms: N_12  and  C_30
REMARK    5  A    between atoms: C_15  and  C_18
REMARK    6  A    between atoms: C_19  and  C_20
REMARK    7  A    between atoms: C_21  and  C_23
REMARK    8  A    between atoms: C_21  and  C_25
REMARK    9  A    between atoms: C_23  and  C_28
REMARK                            x       y       z     vdW  Elec       q    Type
REMARK                         _______ _______ _______ _____ _____    ______ ____
ROOT
ATOM      5  O   UNL     1      14.538  12.392  20.864  0.00  0.00    -0.268 OA
ATOM      8  N   UNL     1      14.773  10.162  21.404  0.00  0.00    -0.283 N 
ATOM     14  C   UNL     1      15.978   8.381  20.402  0.00  0.00    +0.105 C 
ATOM     15  C   UNL     1      15.419   9.782  20.150  0.00  0.00    +0.182 C 
ATOM     16  C   UNL     1      15.033   7.808  21.461  0.00  0.00    +0.043 C 
ATOM     17  C   UNL     1      14.670   9.018  22.311  0.00  0.00    +0.111 C 
ATOM     19  C   UNL     1      14.419  11.483  21.687  0.00  0.00    +0.264 C 
ENDROOT
BRANCH  14   9
ATOM      6  O   UNL     1      17.886   6.245  20.431  0.00  0.00    -0.252 OA
ATOM      9  N   UNL     1      17.334   8.441  20.895  0.00  0.00    -0.294 N 
ATOM     12  N   UNL     1      19.444   7.701  21.412  0.00  0.00    -0.267 N 
ATOM     22  C   UNL     1      18.205   7.347  20.872  0.00  0.00    +0.304 C 
ATOM     39  H   UNL     1      17.696   9.336  21.214  0.00  0.00    +0.151 HD
ATOM     41  H   UNL     1      19.547   8.660  21.737  0.00  0.00    +0.156 HD
BRANCH  12  30
ATOM      2  F   UNL     1      20.150   6.636  23.888  0.00  0.00    -0.203 F 
ATOM      3  F   UNL     1      23.930   4.499  22.011  0.00  0.00    -0.205 F 
ATOM     30  C   UNL     1      20.589   6.885  21.568  0.00  0.00    +0.070 A 
ATOM     32  C   UNL     1      20.915   6.366  22.821  0.00  0.00    +0.147 A 
ATOM     33  C   UNL     1      21.392   6.598  20.464  0.00  0.00    +0.029 A 
ATOM     36  C   UNL     1      22.044   5.561  22.971  0.00  0.00    +0.078 A 
ATOM     37  C   UNL     1      22.521   5.792  20.614  0.00  0.00    +0.040 A 
ATOM     38  C   UNL     1      22.847   5.274  21.867  0.00  0.00    +0.126 A 
ENDBRANCH  12  30
ENDBRANCH  14   9
BRANCH  19  20
ATOM     11  N   UNL     1      12.527  11.845  23.288  0.00  0.00    -0.346 N 
ATOM     20  C   UNL     1      13.865  11.739  23.011  0.00  0.00    +0.104 A 
ATOM     24  C   UNL     1      14.556  11.916  24.190  0.00  0.00    +0.032 A 
ATOM     26  C   UNL     1      12.353  12.088  24.626  0.00  0.00    +0.086 A 
ATOM     27  C   UNL     1      13.600  12.137  25.212  0.00  0.00    +0.020 A 
ATOM     29  C   UNL     1      11.451  11.722  22.330  0.00  0.00    +0.149 C 
ENDBRANCH  19  20
BRANCH  15  18
ATOM      4  O   UNL     1      13.717  10.768  18.796  0.00  0.00    -0.274 OA
ATOM     10  N   UNL     1      14.161   8.494  18.570  0.00  0.00    -0.302 N 
ATOM     18  C   UNL     1      14.346   9.758  19.101  0.00  0.00    +0.236 C 
ATOM     40  H   UNL     1      14.687   7.716  18.959  0.00  0.00    +0.150 HD
BRANCH  10  21
ATOM     21  C   UNL     1      13.172   8.199  17.558  0.00  0.00    +0.163 C 
BRANCH  21  25
ATOM      7  O   UNL     1      14.502   8.938  15.663  0.00  0.00    -0.274 OA
ATOM     13  N   UNL     1      12.505   9.992  16.081  0.00  0.00    -0.328 N 
ATOM     25  C   UNL     1      13.493   9.070  16.352  0.00  0.00    +0.231 C 
ATOM     42  H   UNL     1      12.586  10.626  15.292  0.00  0.00    +0.145 HD
ATOM     43  H   UNL     1      11.674  10.088  16.656  0.00  0.00    +0.145 HD
ENDBRANCH  21  25
BRANCH  21  23
ATOM     23  C   UNL     1      11.744   8.468  18.046  0.00  0.00    +0.074 C 
BRANCH  23  28
ATOM      1  S   UNL     1      12.009   6.416  19.911  0.00  0.00    -0.102 S 
ATOM     28  C   UNL     1      11.522   7.995  19.463  0.00  0.00    -0.008 A 
ATOM     31  C   UNL     1      10.953   8.679  20.516  0.00  0.00    +0.011 A 
ATOM     34  C   UNL     1      10.918   7.896  21.705  0.00  0.00    +0.008 A 
ATOM     35  C   UNL     1      11.459   6.643  21.517  0.00  0.00    +0.045 A 
ENDBRANCH  23  28
ENDBRANCH  21  23
ENDBRANCH  10  21
ENDBRANCH  15  18
TORSDOF 8
ENDMDL
MODEL 9
REMARK VINA RESULT:      -6.1     28.162     31.162
REMARK  Name = 11882060
REMARK  9 active torsions:
REMARK  status: ('A' for Active; 'I' for Inactive)
REMARK    1  A    between atoms: N_9  and  C_14
REMARK    2  A    between atoms: N_10  and  C_21
REMARK    3  A    between atoms: N_11  and  C_29
REMARK    4  A    between atoms: N_12  and  C_30
REMARK    5  A    between atoms: C_15  and  C_18
REMARK    6  A    between atoms: C_19  and  C_20
REMARK    7  A    between atoms: C_21  and  C_23
REMARK    8  A    between atoms: C_21  and  C_25
REMARK    9  A    between atoms: C_23  and  C_28
REMARK                            x       y       z     vdW  Elec       q    Type
REMARK                         _______ _______ _______ _____ _____    ______ ____
ROOT
ATOM      5  O   UNL     1      -4.236 -14.096  12.387  0.00  0.00    -0.268 OA
ATOM      8  N   UNL     1      -2.996 -12.574  13.595  0.00  0.00    -0.283 N 
ATOM     14  C   UNL     1      -3.395 -10.330  14.251  0.00  0.00    +0.105 C 
ATOM     15  C   UNL     1      -3.838 -11.425  13.279  0.00  0.00    +0.182 C 
ATOM     16  C   UNL     1      -1.930 -10.675  14.528  0.00  0.00    +0.043 C 
ATOM     17  C   UNL     1      -1.908 -12.198  14.500  0.00  0.00    +0.111 C 
ATOM     19  C   UNL     1      -3.299 -13.863  13.150  0.00  0.00    +0.264 C 
ENDROOT
BRANCH  14   9
ATOM      6  O   UNL     1      -6.204  -9.827  14.498  0.00  0.00    -0.252 OA
ATOM      9  N   UNL     1      -4.174 -10.363  15.466  0.00  0.00    -0.294 N 
ATOM     12  N   UNL     1      -6.030 -10.208  16.808  0.00  0.00    -0.267 N 
ATOM     22  C   UNL     1      -5.549 -10.104  15.500  0.00  0.00    +0.304 C 
ATOM     39  H   UNL     1      -3.718 -10.650  16.327  0.00  0.00    +0.151 HD
ATOM     41  H   UNL     1      -5.352 -10.445  17.529  0.00  0.00    +0.156 HD
BRANCH  12  30
ATOM      2  F   UNL     1      -7.306 -12.106  18.401  0.00  0.00    -0.203 F 
ATOM      3  F   UNL     1     -11.227  -9.466  18.588  0.00  0.00    -0.205 F 
ATOM     30  C   UNL     1      -7.356 -10.022  17.262  0.00  0.00    +0.070 A 
ATOM     32  C   UNL     1      -7.967 -10.991  18.060  0.00  0.00    +0.147 A 
ATOM     33  C   UNL     1      -8.053  -8.866  16.913  0.00  0.00    +0.029 A 
ATOM     36  C   UNL     1      -9.275 -10.803  18.506  0.00  0.00    +0.078 A 
ATOM     37  C   UNL     1      -9.362  -8.678  17.361  0.00  0.00    +0.040 A 
ATOM     38  C   UNL     1      -9.972  -9.646  18.157  0.00  0.00    +0.126 A 
ENDBRANCH  12  30
ENDBRANCH  14   9
BRANCH  19  20
ATOM     11  N   UNL     1      -2.680 -15.732  14.697  0.00  0.00    -0.346 N 
ATOM     20  C   UNL     1      -2.425 -14.934  13.613  0.00  0.00    +0.104 A 
ATOM     24  C   UNL     1      -1.222 -15.330  13.070  0.00  0.00    +0.032 A 
ATOM     26  C   UNL     1      -1.658 -16.632  14.855  0.00  0.00    +0.086 A 
ATOM     27  C   UNL     1      -0.737 -16.404  13.856  0.00  0.00    +0.020 A 
ATOM     29  C   UNL     1      -3.842 -15.652  15.554  0.00  0.00    +0.149 C 
ENDBRANCH  19  20
BRANCH  15  18
ATOM      4  O   UNL     1      -2.435 -10.619  11.523  0.00  0.00    -0.274 OA
ATOM     10  N   UNL     1      -4.631 -11.213  11.028  0.00  0.00    -0.302 N 
ATOM     18  C   UNL     1      -3.537 -11.045  11.859  0.00  0.00    +0.236 C 
ATOM     40  H   UNL     1      -5.518 -11.497  11.436  0.00  0.00    +0.150 HD
BRANCH  10  21
ATOM     21  C   UNL     1      -4.608 -10.897   9.619  0.00  0.00    +0.163 C 
BRANCH  21  25
ATOM      7  O   UNL     1      -6.208  -9.095   9.938  0.00  0.00    -0.274 OA
ATOM     13  N   UNL     1      -4.265  -8.651   8.795  0.00  0.00    -0.328 N 
ATOM     25  C   UNL     1      -5.139  -9.478   9.469  0.00  0.00    +0.231 C 
ATOM     42  H   UNL     1      -4.490  -7.673   8.641  0.00  0.00    +0.145 HD
ATOM     43  H   UNL     1      -3.383  -8.978   8.417  0.00  0.00    +0.145 HD
ENDBRANCH  21  25
BRANCH  21  23
ATOM     23  C   UNL     1      -5.453 -11.873   8.790  0.00  0.00    +0.074 C 
BRANCH  23  28
ATOM      1  S   UNL     1      -4.018 -13.653   7.199  0.00  0.00    -0.102 S 
ATOM     28  C   UNL     1      -4.835 -12.168   7.444  0.00  0.00    -0.008 A 
ATOM     31  C   UNL     1      -4.826 -11.379   6.314  0.00  0.00    +0.011 A 
ATOM     34  C   UNL     1      -4.138 -12.004   5.232  0.00  0.00    +0.008 A 
ATOM     35  C   UNL     1      -3.648 -13.244   5.578  0.00  0.00    +0.045 A 
ENDBRANCH  23  28
ENDBRANCH  21  23
ENDBRANCH  10  21
ENDBRANCH  15  18
TORSDOF 8
ENDMDL
MODEL 10
REMARK VINA RESULT:      -6.0     29.577     32.026
REMARK  Name = 11882060
REMARK  9 active torsions:
REMARK  status: ('A' for Active; 'I' for Inactive)
REMARK    1  A    between atoms: N_9  and  C_14
REMARK    2  A    between atoms: N_10  and  C_21
REMARK    3  A    between atoms: N_11  and  C_29
REMARK    4  A    between atoms: N_12  and  C_30
REMARK    5  A    between atoms: C_15  and  C_18
REMARK    6  A    between atoms: C_19  and  C_20
REMARK    7  A    between atoms: C_21  and  C_23
REMARK    8  A    between atoms: C_21  and  C_25
REMARK    9  A    between atoms: C_23  and  C_28
REMARK                            x       y       z     vdW  Elec       q    Type
REMARK                         _______ _______ _______ _____ _____    ______ ____
ROOT
ATOM      5  O   UNL     1     -12.243 -10.797  14.841  0.00  0.00    -0.268 OA
ATOM      8  N   UNL     1     -10.636  -9.596  15.978  0.00  0.00    -0.283 N 
ATOM     14  C   UNL     1      -8.293  -9.874  16.226  0.00  0.00    +0.105 C 
ATOM     15  C   UNL     1      -9.581 -10.594  15.826  0.00  0.00    +0.182 C 
ATOM     16  C   UNL     1      -8.776  -8.812  17.218  0.00  0.00    +0.043 C 
ATOM     17  C   UNL     1     -10.141  -8.408  16.676  0.00  0.00    +0.111 C 
ATOM     19  C   UNL     1     -11.904  -9.762  15.415  0.00  0.00    +0.264 C 
ENDROOT
BRANCH  14   9
ATOM      6  O   UNL     1      -7.139 -11.231  13.983  0.00  0.00    -0.252 OA
ATOM      9  N   UNL     1      -7.658  -9.264  15.082  0.00  0.00    -0.294 N 
ATOM     12  N   UNL     1      -6.572  -9.147  13.063  0.00  0.00    -0.267 N 
ATOM     22  C   UNL     1      -7.117 -10.003  14.024  0.00  0.00    +0.304 C 
ATOM     39  H   UNL     1      -7.660  -8.251  15.008  0.00  0.00    +0.151 HD
ATOM     41  H   UNL     1      -6.634  -8.148  13.249  0.00  0.00    +0.156 HD
BRANCH  12  30
ATOM      2  F   UNL     1      -3.948 -10.084  13.011  0.00  0.00    -0.203 F 
ATOM      3  F   UNL     1      -4.085 -10.520   8.303  0.00  0.00    -0.205 F 
ATOM     30  C   UNL     1      -5.935  -9.497  11.850  0.00  0.00    +0.070 A 
ATOM     32  C   UNL     1      -4.620  -9.964  11.858  0.00  0.00    +0.147 A 
ATOM     33  C   UNL     1      -6.625  -9.375  10.644  0.00  0.00    +0.029 A 
ATOM     36  C   UNL     1      -3.995 -10.308  10.660  0.00  0.00    +0.078 A 
ATOM     37  C   UNL     1      -5.999  -9.721   9.445  0.00  0.00    +0.040 A 
ATOM     38  C   UNL     1      -4.685 -10.187   9.453  0.00  0.00    +0.126 A 
ENDBRANCH  12  30
ENDBRANCH  14   9
BRANCH  19  20
ATOM     11  N   UNL     1     -12.966  -7.620  14.669  0.00  0.00    -0.346 N 
ATOM     20  C   UNL     1     -12.833  -8.648  15.565  0.00  0.00    +0.104 A 
ATOM     24  C   UNL     1     -13.718  -8.427  16.598  0.00  0.00    +0.032 A 
ATOM     26  C   UNL     1     -13.923  -6.745  15.114  0.00  0.00    +0.086 A 
ATOM     27  C   UNL     1     -14.408  -7.223  16.312  0.00  0.00    +0.020 A 
ATOM     29  C   UNL     1     -12.220  -7.465  13.439  0.00  0.00    +0.149 C 
ENDBRANCH  19  20
BRANCH  15  18
ATOM      4  O   UNL     1     -10.524 -12.705  16.425  0.00  0.00    -0.274 OA
ATOM     10  N   UNL     1      -9.431 -11.455  18.057  0.00  0.00    -0.302 N 
ATOM     18  C   UNL     1      -9.900 -11.708  16.779  0.00  0.00    +0.236 C 
ATOM     40  H   UNL     1      -8.997 -10.557  18.251  0.00  0.00    +0.150 HD
BRANCH  10  21
ATOM     21  C   UNL     1      -9.628 -12.361  19.165  0.00  0.00    +0.163 C 
BRANCH  21  25
ATOM      7  O   UNL     1     -11.434 -12.190  20.783  0.00  0.00    -0.274 OA
ATOM     13  N   UNL     1     -10.145 -10.333  20.375  0.00  0.00    -0.328 N 
ATOM     25  C   UNL     1     -10.515 -11.646  20.175  0.00  0.00    +0.231 C 
ATOM     42  H   UNL     1     -10.645  -9.747  21.037  0.00  0.00    +0.145 HD
ATOM     43  H   UNL     1      -9.381  -9.896  19.870  0.00  0.00    +0.145 HD
ENDBRANCH  21  25
BRANCH  21  23
ATOM     23  C   UNL     1      -8.304 -12.778  19.817  0.00  0.00    +0.074 C 
BRANCH  23  28
ATOM      1  S   UNL     1      -6.353 -12.850  17.831  0.00  0.00    -0.102 S 
ATOM     28  C   UNL     1      -7.112 -12.110  19.175  0.00  0.00    -0.008 A 
ATOM     31  C   UNL     1      -6.503 -10.924  19.524  0.00  0.00    +0.011 A 
ATOM     34  C   UNL     1      -5.398 -10.620  18.676  0.00  0.00    +0.008 A 
ATOM     35  C   UNL     1      -5.205 -11.586  17.712  0.00  0.00    +0.045 A 
ENDBRANCH  23  28
ENDBRANCH  21  23
ENDBRANCH  10  21
ENDBRANCH  15  18
TORSDOF 8
ENDMDL
