MODEL 1
REMARK VINA RESULT:      -6.8      0.000      0.000
REMARK  Name = 11885944
REMARK  6 active torsions:
REMARK  status: ('A' for Active; 'I' for Inactive)
REMARK    1  A    between atoms: O_3  and  C_12
REMARK    2  A    between atoms: O_3  and  C_16
REMARK    3  A    between atoms: N_6  and  C_11
REMARK    4  A    between atoms: N_7  and  C_18
REMARK    5  A    between atoms: C_15  and  C_17
REMARK    6  A    between atoms: C_18  and  C_21
REMARK                            x       y       z     vdW  Elec       q    Type
REMARK                         _______ _______ _______ _____ _____    ______ ____
ROOT
ATOM      1  O   UNL     1      13.462   7.613  19.121  0.00  0.00    -0.368 OA
ATOM      2  O   UNL     1      10.581   8.466  19.735  0.00  0.00    -0.368 OA
ATOM      9  C   UNL     1      11.699   9.198  19.190  0.00  0.00    +0.173 C 
ATOM     10  C   UNL     1      12.939   8.700  19.904  0.00  0.00    +0.192 C 
ATOM     11  C   UNL     1      11.926   8.803  17.750  0.00  0.00    +0.130 C 
ATOM     12  C   UNL     1      12.386   8.221  21.225  0.00  0.00    +0.235 C 
ATOM     13  C   UNL     1      12.727   7.519  17.891  0.00  0.00    +0.185 C 
ATOM     14  C   UNL     1      11.045   7.651  20.821  0.00  0.00    +0.207 C 
ENDROOT
BRANCH  11   6
ATOM      4  O   UNL     1      12.971   8.609  15.082  0.00  0.00    -0.269 OA
ATOM      6  N   UNL     1      12.673   9.813  17.042  0.00  0.00    -0.302 N 
ATOM     15  C   UNL     1      13.139   9.627  15.748  0.00  0.00    +0.263 C 
ATOM     24  H   UNL     1      12.906  10.674  17.529  0.00  0.00    +0.150 HD
BRANCH  15  17
ATOM      8  N   UNL     1      13.271  11.437  14.214  0.00  0.00    -0.250 NA
ATOM     17  C   UNL     1      13.915  10.754  15.168  0.00  0.00    +0.125 A 
ATOM     19  C   UNL     1      15.179  10.998  15.633  0.00  0.00    +0.033 A 
ATOM     20  C   UNL     1      15.863  12.063  15.056  0.00  0.00    +0.004 A 
ATOM     22  C   UNL     1      13.966  12.465  13.678  0.00  0.00    +0.111 A 
ATOM     23  C   UNL     1      15.251  12.816  14.059  0.00  0.00    +0.020 A 
ENDBRANCH  15  17
ENDBRANCH  11   6
BRANCH  12   3
ATOM      3  O   UNL     1      13.200   7.262  21.862  0.00  0.00    -0.442 OA
BRANCH   3  16
ATOM      5  O   UNL     1      14.985   8.561  22.494  0.00  0.00    -0.226 OA
ATOM      7  N   UNL     1      15.293   6.563  21.357  0.00  0.00    -0.281 N 
ATOM     16  C   UNL     1      14.542   7.553  21.954  0.00  0.00    +0.401 C 
ATOM     25  H   UNL     1      14.804   5.775  20.943  0.00  0.00    +0.152 HD
BRANCH   7  18
ATOM     18  C   UNL     1      16.736   6.581  21.290  0.00  0.00    +0.104 C 
ATOM     21  C   UNL     1      17.225   6.501  19.858  0.00  0.00    +0.024 C 
ENDBRANCH   7  18
ENDBRANCH   3  16
ENDBRANCH  12   3
TORSDOF 5
ENDMDL
MODEL 2
REMARK VINA RESULT:      -6.7      4.009      6.950
REMARK  Name = 11885944
REMARK  6 active torsions:
REMARK  status: ('A' for Active; 'I' for Inactive)
REMARK    1  A    between atoms: O_3  and  C_12
REMARK    2  A    between atoms: O_3  and  C_16
REMARK    3  A    between atoms: N_6  and  C_11
REMARK    4  A    between atoms: N_7  and  C_18
REMARK    5  A    between atoms: C_15  and  C_17
REMARK    6  A    between atoms: C_18  and  C_21
REMARK                            x       y       z     vdW  Elec       q    Type
REMARK                         _______ _______ _______ _____ _____    ______ ____
ROOT
ATOM      1  O   UNL     1      10.592   8.137  20.497  0.00  0.00    -0.368 OA
ATOM      2  O   UNL     1      13.275   7.687  21.911  0.00  0.00    -0.368 OA
ATOM      9  C   UNL     1      12.501   8.884  21.687  0.00  0.00    +0.173 C 
ATOM     10  C   UNL     1      11.877   8.754  20.313  0.00  0.00    +0.192 C 
ATOM     11  C   UNL     1      11.316   8.919  22.623  0.00  0.00    +0.130 C 
ATOM     12  C   UNL     1      12.840   7.833  19.602  0.00  0.00    +0.235 C 
ATOM     13  C   UNL     1      10.311   8.035  21.902  0.00  0.00    +0.185 C 
ATOM     14  C   UNL     1      13.265   6.898  20.712  0.00  0.00    +0.207 C 
ENDROOT
BRANCH  11   6
ATOM      4  O   UNL     1      12.749  11.170  23.682  0.00  0.00    -0.269 OA
ATOM      6  N   UNL     1      10.814  10.261  22.782  0.00  0.00    -0.302 N 
ATOM     15  C   UNL     1      11.586  11.289  23.307  0.00  0.00    +0.263 C 
ATOM     24  H   UNL     1       9.843  10.447  22.545  0.00  0.00    +0.150 HD
BRANCH  15  17
ATOM      8  N   UNL     1      10.678  12.995  24.690  0.00  0.00    -0.250 NA
ATOM     17  C   UNL     1      10.913  12.609  23.430  0.00  0.00    +0.125 A 
ATOM     19  C   UNL     1      10.596  13.301  22.292  0.00  0.00    +0.033 A 
ATOM     20  C   UNL     1       9.966  14.529  22.464  0.00  0.00    +0.004 A 
ATOM     22  C   UNL     1      10.066  14.193  24.816  0.00  0.00    +0.111 A 
ATOM     23  C   UNL     1       9.693  14.991  23.747  0.00  0.00    +0.020 A 
ENDBRANCH  15  17
ENDBRANCH  11   6
BRANCH  12   3
ATOM      3  O   UNL     1      12.264   7.142  18.517  0.00  0.00    -0.442 OA
BRANCH   3  16
ATOM      5  O   UNL     1      10.890   7.834  16.812  0.00  0.00    -0.226 OA
ATOM      7  N   UNL     1      13.038   8.679  17.047  0.00  0.00    -0.281 N 
ATOM     16  C   UNL     1      11.966   7.886  17.398  0.00  0.00    +0.401 C 
ATOM     25  H   UNL     1      13.877   8.631  17.616  0.00  0.00    +0.152 HD
BRANCH   7  18
ATOM     18  C   UNL     1      13.035   9.575  15.914  0.00  0.00    +0.104 C 
ATOM     21  C   UNL     1      14.442   9.971  15.516  0.00  0.00    +0.024 C 
ENDBRANCH   7  18
ENDBRANCH   3  16
ENDBRANCH  12   3
TORSDOF 5
ENDMDL
MODEL 3
REMARK VINA RESULT:      -6.4      2.711      7.280
REMARK  Name = 11885944
REMARK  6 active torsions:
REMARK  status: ('A' for Active; 'I' for Inactive)
REMARK    1  A    between atoms: O_3  and  C_12
REMARK    2  A    between atoms: O_3  and  C_16
REMARK    3  A    between atoms: N_6  and  C_11
REMARK    4  A    between atoms: N_7  and  C_18
REMARK    5  A    between atoms: C_15  and  C_17
REMARK    6  A    between atoms: C_18  and  C_21
REMARK                            x       y       z     vdW  Elec       q    Type
REMARK                         _______ _______ _______ _____ _____    ______ ____
ROOT
ATOM      1  O   UNL     1      14.931   7.380  19.392  0.00  0.00    -0.368 OA
ATOM      2  O   UNL     1      13.923   8.375  22.112  0.00  0.00    -0.368 OA
ATOM      9  C   UNL     1      14.920   7.391  21.763  0.00  0.00    +0.173 C 
ATOM     10  C   UNL     1      14.413   6.671  20.530  0.00  0.00    +0.192 C 
ATOM     11  C   UNL     1      16.181   8.076  21.292  0.00  0.00    +0.130 C 
ATOM     12  C   UNL     1      12.916   6.827  20.652  0.00  0.00    +0.235 C 
ATOM     13  C   UNL     1      15.857   8.384  19.839  0.00  0.00    +0.185 C 
ATOM     14  C   UNL     1      12.788   8.210  21.250  0.00  0.00    +0.207 C 
ENDROOT
BRANCH  11   6
ATOM      4  O   UNL     1      18.911   8.862  21.712  0.00  0.00    -0.269 OA
ATOM      6  N   UNL     1      17.323   7.201  21.400  0.00  0.00    -0.302 N 
ATOM     15  C   UNL     1      18.611   7.676  21.605  0.00  0.00    +0.263 C 
ATOM     24  H   UNL     1      17.182   6.202  21.274  0.00  0.00    +0.150 HD
BRANCH  15  17
ATOM      8  N   UNL     1      20.409   6.672  22.790  0.00  0.00    -0.250 NA
ATOM     17  C   UNL     1      19.681   6.648  21.667  0.00  0.00    +0.125 A 
ATOM     19  C   UNL     1      19.838   5.787  20.614  0.00  0.00    +0.033 A 
ATOM     20  C   UNL     1      20.855   4.845  20.722  0.00  0.00    +0.004 A 
ATOM     22  C   UNL     1      21.386   5.742  22.860  0.00  0.00    +0.111 A 
ATOM     23  C   UNL     1      21.648   4.815  21.864  0.00  0.00    +0.020 A 
ENDBRANCH  15  17
ENDBRANCH  11   6
BRANCH  12   3
ATOM      3  O   UNL     1      12.236   6.715  19.422  0.00  0.00    -0.442 OA
BRANCH   3  16
ATOM      5  O   UNL     1      10.772   8.458  19.121  0.00  0.00    -0.226 OA
ATOM      7  N   UNL     1      12.741   8.315  17.903  0.00  0.00    -0.281 N 
ATOM     16  C   UNL     1      11.821   7.889  18.836  0.00  0.00    +0.401 C 
ATOM     25  H   UNL     1      13.573   7.752  17.759  0.00  0.00    +0.152 HD
BRANCH   7  18
ATOM     18  C   UNL     1      12.589   9.519  17.118  0.00  0.00    +0.104 C 
ATOM     21  C   UNL     1      13.549  10.600  17.569  0.00  0.00    +0.024 C 
ENDBRANCH   7  18
ENDBRANCH   3  16
ENDBRANCH  12   3
TORSDOF 5
ENDMDL
MODEL 4
REMARK VINA RESULT:      -6.4     25.577     27.908
REMARK  Name = 11885944
REMARK  6 active torsions:
REMARK  status: ('A' for Active; 'I' for Inactive)
REMARK    1  A    between atoms: O_3  and  C_12
REMARK    2  A    between atoms: O_3  and  C_16
REMARK    3  A    between atoms: N_6  and  C_11
REMARK    4  A    between atoms: N_7  and  C_18
REMARK    5  A    between atoms: C_15  and  C_17
REMARK    6  A    between atoms: C_18  and  C_21
REMARK                            x       y       z     vdW  Elec       q    Type
REMARK                         _______ _______ _______ _____ _____    ______ ____
ROOT
ATOM      1  O   UNL     1      -4.003 -12.073  14.349  0.00  0.00    -0.368 OA
ATOM      2  O   UNL     1      -2.066 -10.938  16.437  0.00  0.00    -0.368 OA
ATOM      9  C   UNL     1      -3.434 -10.605  16.122  0.00  0.00    +0.173 C 
ATOM     10  C   UNL     1      -3.580 -10.726  14.619  0.00  0.00    +0.192 C 
ATOM     11  C   UNL     1      -4.365 -11.665  16.664  0.00  0.00    +0.130 C 
ATOM     12  C   UNL     1      -2.173 -10.476  14.132  0.00  0.00    +0.235 C 
ATOM     13  C   UNL     1      -4.290 -12.738  15.590  0.00  0.00    +0.185 C 
ATOM     14  C   UNL     1      -1.341 -11.127  15.213  0.00  0.00    +0.207 C 
ENDROOT
BRANCH  11   6
ATOM      4  O   UNL     1      -5.514 -10.499  19.023  0.00  0.00    -0.269 OA
ATOM      6  N   UNL     1      -5.707 -11.158  16.808  0.00  0.00    -0.302 N 
ATOM     15  C   UNL     1      -6.175 -10.609  17.994  0.00  0.00    +0.263 C 
ATOM     24  H   UNL     1      -6.347 -11.251  16.024  0.00  0.00    +0.150 HD
BRANCH  15  17
ATOM      8  N   UNL     1      -8.398 -10.851  18.797  0.00  0.00    -0.250 NA
ATOM     17  C   UNL     1      -7.590 -10.157  17.987  0.00  0.00    +0.125 A 
ATOM     19  C   UNL     1      -7.948  -9.107  17.185  0.00  0.00    +0.033 A 
ATOM     20  C   UNL     1      -9.285  -8.724  17.214  0.00  0.00    +0.004 A 
ATOM     22  C   UNL     1      -9.689 -10.451  18.800  0.00  0.00    +0.111 A 
ATOM     23  C   UNL     1     -10.178  -9.404  18.035  0.00  0.00    +0.020 A 
ENDBRANCH  15  17
ENDBRANCH  11   6
BRANCH  12   3
ATOM      3  O   UNL     1      -1.911 -11.022  12.859  0.00  0.00    -0.442 OA
BRANCH   3  16
ATOM      5  O   UNL     1      -0.988  -9.414  11.505  0.00  0.00    -0.226 OA
ATOM      7  N   UNL     1      -3.129 -10.221  11.127  0.00  0.00    -0.281 N 
ATOM     16  C   UNL     1      -1.926 -10.148  11.796  0.00  0.00    +0.401 C 
ATOM     25  H   UNL     1      -3.829 -10.872  11.470  0.00  0.00    +0.152 HD
BRANCH   7  18
ATOM     18  C   UNL     1      -3.451  -9.425   9.966  0.00  0.00    +0.104 C 
ATOM     21  C   UNL     1      -4.608  -8.486  10.239  0.00  0.00    +0.024 C 
ENDBRANCH   7  18
ENDBRANCH   3  16
ENDBRANCH  12   3
TORSDOF 5
ENDMDL
MODEL 5
REMARK VINA RESULT:      -6.3     11.270     13.108
REMARK  Name = 11885944
REMARK  6 active torsions:
REMARK  status: ('A' for Active; 'I' for Inactive)
REMARK    1  A    between atoms: O_3  and  C_12
REMARK    2  A    between atoms: O_3  and  C_16
REMARK    3  A    between atoms: N_6  and  C_11
REMARK    4  A    between atoms: N_7  and  C_18
REMARK    5  A    between atoms: C_15  and  C_17
REMARK    6  A    between atoms: C_18  and  C_21
REMARK                            x       y       z     vdW  Elec       q    Type
REMARK                         _______ _______ _______ _____ _____    ______ ____
ROOT
ATOM      1  O   UNL     1      13.424   7.217   4.761  0.00  0.00    -0.368 OA
ATOM      2  O   UNL     1      12.925   9.169   7.073  0.00  0.00    -0.368 OA
ATOM      9  C   UNL     1      14.068   8.354   6.739  0.00  0.00    +0.173 C 
ATOM     10  C   UNL     1      13.532   7.050   6.185  0.00  0.00    +0.192 C 
ATOM     11  C   UNL     1      14.818   8.962   5.577  0.00  0.00    +0.130 C 
ATOM     12  C   UNL     1      12.175   6.950   6.839  0.00  0.00    +0.235 C 
ATOM     13  C   UNL     1      14.015   8.471   4.384  0.00  0.00    +0.185 C 
ATOM     14  C   UNL     1      11.732   8.395   6.878  0.00  0.00    +0.207 C 
ENDROOT
BRANCH  11   6
ATOM      4  O   UNL     1      17.169  10.401   6.382  0.00  0.00    -0.269 OA
ATOM      6  N   UNL     1      16.179   8.487   5.526  0.00  0.00    -0.302 N 
ATOM     15  C   UNL     1      17.255   9.259   5.939  0.00  0.00    +0.263 C 
ATOM     24  H   UNL     1      16.357   7.569   5.126  0.00  0.00    +0.150 HD
BRANCH  15  17
ATOM      8  N   UNL     1      18.819   8.064   4.608  0.00  0.00    -0.250 NA
ATOM     17  C   UNL     1      18.596   8.634   5.798  0.00  0.00    +0.125 A 
ATOM     19  C   UNL     1      19.467   8.684   6.853  0.00  0.00    +0.033 A 
ATOM     20  C   UNL     1      20.707   8.082   6.669  0.00  0.00    +0.004 A 
ATOM     22  C   UNL     1      20.034   7.490   4.466  0.00  0.00    +0.111 A 
ATOM     23  C   UNL     1      21.005   7.472   5.455  0.00  0.00    +0.020 A 
ENDBRANCH  15  17
ENDBRANCH  11   6
BRANCH  12   3
ATOM      3  O   UNL     1      11.267   6.135   6.133  0.00  0.00    -0.442 OA
BRANCH   3  16
ATOM      5  O   UNL     1       9.029   6.029   6.637  0.00  0.00    -0.226 OA
ATOM      7  N   UNL     1      10.584   4.742   7.780  0.00  0.00    -0.281 N 
ATOM     16  C   UNL     1      10.182   5.664   6.837  0.00  0.00    +0.401 C 
ATOM     25  H   UNL     1      11.573   4.524   7.848  0.00  0.00    +0.152 HD
BRANCH   7  18
ATOM     18  C   UNL     1       9.676   4.066   8.679  0.00  0.00    +0.104 C 
ATOM     21  C   UNL     1       9.443   4.870   9.941  0.00  0.00    +0.024 C 
ENDBRANCH   7  18
ENDBRANCH   3  16
ENDBRANCH  12   3
TORSDOF 5
ENDMDL
MODEL 6
REMARK VINA RESULT:      -6.2     28.391     31.917
REMARK  Name = 11885944
REMARK  6 active torsions:
REMARK  status: ('A' for Active; 'I' for Inactive)
REMARK    1  A    between atoms: O_3  and  C_12
REMARK    2  A    between atoms: O_3  and  C_16
REMARK    3  A    between atoms: N_6  and  C_11
REMARK    4  A    between atoms: N_7  and  C_18
REMARK    5  A    between atoms: C_15  and  C_17
REMARK    6  A    between atoms: C_18  and  C_21
REMARK                            x       y       z     vdW  Elec       q    Type
REMARK                         _______ _______ _______ _____ _____    ______ ____
ROOT
ATOM      1  O   UNL     1     -16.789   4.672  25.608  0.00  0.00    -0.368 OA
ATOM      2  O   UNL     1     -17.062   2.129  23.917  0.00  0.00    -0.368 OA
ATOM      9  C   UNL     1     -16.337   2.393  25.136  0.00  0.00    +0.173 C 
ATOM     10  C   UNL     1     -15.798   3.805  25.030  0.00  0.00    +0.192 C 
ATOM     11  C   UNL     1     -17.291   2.455  26.305  0.00  0.00    +0.130 C 
ATOM     12  C   UNL     1     -15.688   4.002  23.536  0.00  0.00    +0.235 C 
ATOM     13  C   UNL     1     -17.820   3.877  26.213  0.00  0.00    +0.185 C 
ATOM     14  C   UNL     1     -16.890   3.241  23.025  0.00  0.00    +0.207 C 
ENDROOT
BRANCH  11   6
ATOM      4  O   UNL     1     -17.637   0.219  28.072  0.00  0.00    -0.269 OA
ATOM      6  N   UNL     1     -16.605   2.230  27.553  0.00  0.00    -0.302 N 
ATOM     15  C   UNL     1     -16.840   1.113  28.343  0.00  0.00    +0.263 C 
ATOM     24  H   UNL     1     -15.961   2.941  27.887  0.00  0.00    +0.150 HD
BRANCH  15  17
ATOM      8  N   UNL     1     -15.846  -0.202  30.054  0.00  0.00    -0.250 NA
ATOM     17  C   UNL     1     -16.071   1.041  29.613  0.00  0.00    +0.125 A 
ATOM     19  C   UNL     1     -15.669   2.205  30.212  0.00  0.00    +0.033 A 
ATOM     20  C   UNL     1     -14.954   2.082  31.399  0.00  0.00    +0.004 A 
ATOM     22  C   UNL     1     -15.148  -0.281  31.209  0.00  0.00    +0.111 A 
ATOM     23  C   UNL     1     -14.684   0.818  31.913  0.00  0.00    +0.020 A 
ENDBRANCH  15  17
ENDBRANCH  11   6
BRANCH  12   3
ATOM      3  O   UNL     1     -15.711   5.356  23.143  0.00  0.00    -0.442 OA
BRANCH   3  16
ATOM      5  O   UNL     1     -15.491   5.133  20.868  0.00  0.00    -0.226 OA
ATOM      7  N   UNL     1     -14.159   6.605  22.068  0.00  0.00    -0.281 N 
ATOM     16  C   UNL     1     -15.147   5.654  21.923  0.00  0.00    +0.401 C 
ATOM     25  H   UNL     1     -13.967   6.959  23.000  0.00  0.00    +0.152 HD
BRANCH   7  18
ATOM     18  C   UNL     1     -13.380   7.126  20.969  0.00  0.00    +0.104 C 
ATOM     21  C   UNL     1     -11.969   6.575  20.978  0.00  0.00    +0.024 C 
ENDBRANCH   7  18
ENDBRANCH   3  16
ENDBRANCH  12   3
TORSDOF 5
ENDMDL
MODEL 7
REMARK VINA RESULT:      -6.1      1.732      6.802
REMARK  Name = 11885944
REMARK  6 active torsions:
REMARK  status: ('A' for Active; 'I' for Inactive)
REMARK    1  A    between atoms: O_3  and  C_12
REMARK    2  A    between atoms: O_3  and  C_16
REMARK    3  A    between atoms: N_6  and  C_11
REMARK    4  A    between atoms: N_7  and  C_18
REMARK    5  A    between atoms: C_15  and  C_17
REMARK    6  A    between atoms: C_18  and  C_21
REMARK                            x       y       z     vdW  Elec       q    Type
REMARK                         _______ _______ _______ _____ _____    ______ ____
ROOT
ATOM      1  O   UNL     1      13.940   9.365  19.076  0.00  0.00    -0.368 OA
ATOM      2  O   UNL     1      11.788   7.381  19.989  0.00  0.00    -0.368 OA
ATOM      9  C   UNL     1      13.175   7.193  19.638  0.00  0.00    +0.173 C 
ATOM     10  C   UNL     1      13.470   8.139  18.492  0.00  0.00    +0.192 C 
ATOM     11  C   UNL     1      14.065   7.686  20.755  0.00  0.00    +0.130 C 
ATOM     12  C   UNL     1      12.114   8.310  17.851  0.00  0.00    +0.235 C 
ATOM     13  C   UNL     1      14.115   9.181  20.490  0.00  0.00    +0.185 C 
ATOM     14  C   UNL     1      11.191   8.285  19.048  0.00  0.00    +0.207 C 
ENDROOT
BRANCH  11   6
ATOM      4  O   UNL     1      16.498   8.766  21.830  0.00  0.00    -0.269 OA
ATOM      6  N   UNL     1      15.378   7.095  20.676  0.00  0.00    -0.302 N 
ATOM     15  C   UNL     1      16.501   7.695  21.230  0.00  0.00    +0.263 C 
ATOM     24  H   UNL     1      15.490   6.230  20.154  0.00  0.00    +0.150 HD
BRANCH  15  17
ATOM      8  N   UNL     1      18.745   7.308  21.909  0.00  0.00    -0.250 NA
ATOM     17  C   UNL     1      17.785   6.971  21.040  0.00  0.00    +0.125 A 
ATOM     19  C   UNL     1      17.886   6.051  20.031  0.00  0.00    +0.033 A 
ATOM     20  C   UNL     1      19.109   5.404  19.895  0.00  0.00    +0.004 A 
ATOM     22  C   UNL     1      19.918   6.658  21.747  0.00  0.00    +0.111 A 
ATOM     23  C   UNL     1      20.150   5.707  20.767  0.00  0.00    +0.020 A 
ENDBRANCH  15  17
ENDBRANCH  11   6
BRANCH  12   3
ATOM      3  O   UNL     1      11.988   9.502  17.108  0.00  0.00    -0.442 OA
BRANCH   3  16
ATOM      5  O   UNL     1      12.899   8.797  15.122  0.00  0.00    -0.226 OA
ATOM      7  N   UNL     1      13.497  10.829  16.067  0.00  0.00    -0.281 N 
ATOM     16  C   UNL     1      12.808   9.636  16.011  0.00  0.00    +0.401 C 
ATOM     25  H   UNL     1      13.333  11.440  16.861  0.00  0.00    +0.152 HD
BRANCH   7  18
ATOM     18  C   UNL     1      14.438  11.259  15.059  0.00  0.00    +0.104 C 
ATOM     21  C   UNL     1      13.772  12.128  14.012  0.00  0.00    +0.024 C 
ENDBRANCH   7  18
ENDBRANCH   3  16
ENDBRANCH  12   3
TORSDOF 5
ENDMDL
MODEL 8
REMARK VINA RESULT:      -6.0     26.580     28.970
REMARK  Name = 11885944
REMARK  6 active torsions:
REMARK  status: ('A' for Active; 'I' for Inactive)
REMARK    1  A    between atoms: O_3  and  C_12
REMARK    2  A    between atoms: O_3  and  C_16
REMARK    3  A    between atoms: N_6  and  C_11
REMARK    4  A    between atoms: N_7  and  C_18
REMARK    5  A    between atoms: C_15  and  C_17
REMARK    6  A    between atoms: C_18  and  C_21
REMARK                            x       y       z     vdW  Elec       q    Type
REMARK                         _______ _______ _______ _____ _____    ______ ____
ROOT
ATOM      1  O   UNL     1      -7.237 -11.657  17.002  0.00  0.00    -0.368 OA
ATOM      2  O   UNL     1      -6.431 -10.826  19.841  0.00  0.00    -0.368 OA
ATOM      9  C   UNL     1      -7.063 -10.091  18.773  0.00  0.00    +0.173 C 
ATOM     10  C   UNL     1      -6.433 -10.566  17.480  0.00  0.00    +0.192 C 
ATOM     11  C   UNL     1      -8.511 -10.503  18.646  0.00  0.00    +0.130 C 
ATOM     12  C   UNL     1      -5.070 -11.033  17.932  0.00  0.00    +0.235 C 
ATOM     13  C   UNL     1      -8.411 -11.776  17.822  0.00  0.00    +0.185 C 
ATOM     14  C   UNL     1      -5.370 -11.621  19.292  0.00  0.00    +0.207 C 
ENDROOT
BRANCH  11   6
ATOM      4  O   UNL     1     -11.370 -10.240  18.646  0.00  0.00    -0.269 OA
ATOM      6  N   UNL     1      -9.283  -9.494  17.962  0.00  0.00    -0.302 N 
ATOM     15  C   UNL     1     -10.669  -9.448  18.022  0.00  0.00    +0.263 C 
ATOM     24  H   UNL     1      -8.794  -8.823  17.377  0.00  0.00    +0.150 HD
BRANCH  15  17
ATOM      8  N   UNL     1     -12.599  -8.593  16.930  0.00  0.00    -0.250 NA
ATOM     17  C   UNL     1     -11.318  -8.363  17.241  0.00  0.00    +0.125 A 
ATOM     19  C   UNL     1     -10.585  -7.254  16.910  0.00  0.00    +0.033 A 
ATOM     20  C   UNL     1     -11.239  -6.269  16.177  0.00  0.00    +0.004 A 
ATOM     22  C   UNL     1     -13.200  -7.614  16.219  0.00  0.00    +0.111 A 
ATOM     23  C   UNL     1     -12.572  -6.445  15.821  0.00  0.00    +0.020 A 
ENDBRANCH  15  17
ENDBRANCH  11   6
BRANCH  12   3
ATOM      3  O   UNL     1      -4.481 -11.974  17.064  0.00  0.00    -0.442 OA
BRANCH   3  16
ATOM      5  O   UNL     1      -4.311 -10.958  15.012  0.00  0.00    -0.226 OA
ATOM      7  N   UNL     1      -2.425 -11.633  16.180  0.00  0.00    -0.281 N 
ATOM     16  C   UNL     1      -3.781 -11.472  15.990  0.00  0.00    +0.401 C 
ATOM     25  H   UNL     1      -2.110 -12.076  17.038  0.00  0.00    +0.152 HD
BRANCH   7  18
ATOM     18  C   UNL     1      -1.425 -11.206  15.229  0.00  0.00    +0.104 C 
ATOM     21  C   UNL     1      -0.976  -9.784  15.496  0.00  0.00    +0.024 C 
ENDBRANCH   7  18
ENDBRANCH   3  16
ENDBRANCH  12   3
TORSDOF 5
ENDMDL
MODEL 9
REMARK VINA RESULT:      -5.8      3.889      6.932
REMARK  Name = 11885944
REMARK  6 active torsions:
REMARK  status: ('A' for Active; 'I' for Inactive)
REMARK    1  A    between atoms: O_3  and  C_12
REMARK    2  A    between atoms: O_3  and  C_16
REMARK    3  A    between atoms: N_6  and  C_11
REMARK    4  A    between atoms: N_7  and  C_18
REMARK    5  A    between atoms: C_15  and  C_17
REMARK    6  A    between atoms: C_18  and  C_21
REMARK                            x       y       z     vdW  Elec       q    Type
REMARK                         _______ _______ _______ _____ _____    ______ ____
ROOT
ATOM      1  O   UNL     1      11.486   9.155  20.174  0.00  0.00    -0.368 OA
ATOM      2  O   UNL     1      11.775   6.634  21.894  0.00  0.00    -0.368 OA
ATOM      9  C   UNL     1      12.445   7.911  21.950  0.00  0.00    +0.173 C 
ATOM     10  C   UNL     1      12.638   8.368  20.519  0.00  0.00    +0.192 C 
ATOM     11  C   UNL     1      11.525   8.953  22.543  0.00  0.00    +0.130 C 
ATOM     12  C   UNL     1      12.670   7.063  19.759  0.00  0.00    +0.235 C 
ATOM     13  C   UNL     1      10.680   9.354  21.346  0.00  0.00    +0.185 C 
ATOM     14  C   UNL     1      11.667   6.227  20.522  0.00  0.00    +0.207 C 
ENDROOT
BRANCH  11   6
ATOM      4  O   UNL     1      10.514  11.065  24.204  0.00  0.00    -0.269 OA
ATOM      6  N   UNL     1      12.271  10.074  23.060  0.00  0.00    -0.302 N 
ATOM     15  C   UNL     1      11.692  11.050  23.859  0.00  0.00    +0.263 C 
ATOM     24  H   UNL     1      13.244  10.176  22.786  0.00  0.00    +0.150 HD
BRANCH  15  17
ATOM      8  N   UNL     1      12.839  12.187  25.602  0.00  0.00    -0.250 NA
ATOM     17  C   UNL     1      12.589  12.155  24.288  0.00  0.00    +0.125 A 
ATOM     19  C   UNL     1      13.071  13.023  23.345  0.00  0.00    +0.033 A 
ATOM     20  C   UNL     1      13.904  14.039  23.800  0.00  0.00    +0.004 A 
ATOM     22  C   UNL     1      13.652  13.187  26.006  0.00  0.00    +0.111 A 
ATOM     23  C   UNL     1      14.206  14.130  25.154  0.00  0.00    +0.020 A 
ENDBRANCH  15  17
ENDBRANCH  11   6
BRANCH  12   3
ATOM      3  O   UNL     1      12.326   7.194  18.398  0.00  0.00    -0.442 OA
BRANCH   3  16
ATOM      5  O   UNL     1      14.356   7.449  17.356  0.00  0.00    -0.226 OA
ATOM      7  N   UNL     1      12.673   9.027  17.116  0.00  0.00    -0.281 N 
ATOM     16  C   UNL     1      13.225   7.859  17.595  0.00  0.00    +0.401 C 
ATOM     25  H   UNL     1      11.722   9.255  17.389  0.00  0.00    +0.152 HD
BRANCH   7  18
ATOM     18  C   UNL     1      13.369   9.945  16.244  0.00  0.00    +0.104 C 
ATOM     21  C   UNL     1      14.039  11.054  17.029  0.00  0.00    +0.024 C 
ENDBRANCH   7  18
ENDBRANCH   3  16
ENDBRANCH  12   3
TORSDOF 5
ENDMDL
MODEL 10
REMARK VINA RESULT:      -5.7     27.583     29.951
REMARK  Name = 11885944
REMARK  6 active torsions:
REMARK  status: ('A' for Active; 'I' for Inactive)
REMARK    1  A    between atoms: O_3  and  C_12
REMARK    2  A    between atoms: O_3  and  C_16
REMARK    3  A    between atoms: N_6  and  C_11
REMARK    4  A    between atoms: N_7  and  C_18
REMARK    5  A    between atoms: C_15  and  C_17
REMARK    6  A    between atoms: C_18  and  C_21
REMARK                            x       y       z     vdW  Elec       q    Type
REMARK                         _______ _______ _______ _____ _____    ______ ____
ROOT
ATOM      1  O   UNL     1     -10.803  -6.474  16.301  0.00  0.00    -0.368 OA
ATOM      2  O   UNL     1     -12.531  -8.701  15.094  0.00  0.00    -0.368 OA
ATOM      9  C   UNL     1     -11.100  -8.525  15.150  0.00  0.00    +0.173 C 
ATOM     10  C   UNL     1     -10.832  -7.044  14.981  0.00  0.00    +0.192 C 
ATOM     11  C   UNL     1     -10.593  -8.831  16.540  0.00  0.00    +0.130 C 
ATOM     12  C   UNL     1     -12.038  -6.580  14.200  0.00  0.00    +0.235 C 
ATOM     13  C   UNL     1     -10.865  -7.528  17.274  0.00  0.00    +0.185 C 
ATOM     14  C   UNL     1     -13.140  -7.441  14.774  0.00  0.00    +0.207 C 
ENDROOT
BRANCH  11   6
ATOM      4  O   UNL     1      -9.133 -10.253  18.562  0.00  0.00    -0.269 OA
ATOM      6  N   UNL     1      -9.185  -9.142  16.527  0.00  0.00    -0.302 N 
ATOM     15  C   UNL     1      -8.565  -9.838  17.556  0.00  0.00    +0.263 C 
ATOM     24  H   UNL     1      -8.619  -8.796  15.757  0.00  0.00    +0.150 HD
BRANCH  15  17
ATOM      8  N   UNL     1      -6.609  -9.694  16.214  0.00  0.00    -0.250 NA
ATOM     17  C   UNL     1      -7.103 -10.055  17.404  0.00  0.00    +0.125 A 
ATOM     19  C   UNL     1      -6.399 -10.589  18.451  0.00  0.00    +0.033 A 
ATOM     20  C   UNL     1      -5.034 -10.774  18.257  0.00  0.00    +0.004 A 
ATOM     22  C   UNL     1      -5.280  -9.888  16.063  0.00  0.00    +0.111 A 
ATOM     23  C   UNL     1      -4.456 -10.419  17.043  0.00  0.00    +0.020 A 
ENDBRANCH  15  17
ENDBRANCH  11   6
BRANCH  12   3
ATOM      3  O   UNL     1     -12.309  -5.204  14.345  0.00  0.00    -0.442 OA
BRANCH   3  16
ATOM      5  O   UNL     1     -13.525  -3.572  13.283  0.00  0.00    -0.226 OA
ATOM      7  N   UNL     1     -12.307  -5.140  12.083  0.00  0.00    -0.281 N 
ATOM     16  C   UNL     1     -12.783  -4.547  13.233  0.00  0.00    +0.401 C 
ATOM     25  H   UNL     1     -11.697  -5.945  12.176  0.00  0.00    +0.152 HD
BRANCH   7  18
ATOM     18  C   UNL     1     -12.627  -4.679  10.751  0.00  0.00    +0.104 C 
ATOM     21  C   UNL     1     -11.646  -3.626  10.278  0.00  0.00    +0.024 C 
ENDBRANCH   7  18
ENDBRANCH   3  16
ENDBRANCH  12   3
TORSDOF 5
ENDMDL
