MODEL 1
REMARK VINA RESULT:      -7.4      0.000      0.000
REMARK  Name = 44716364
REMARK  14 active torsions:
REMARK  status: ('A' for Active; 'I' for Inactive)
REMARK    1  A    between atoms: O_1  and  C_17
REMARK    2  A    between atoms: O_1  and  C_22
REMARK    3  A    between atoms: O_3  and  C_25
REMARK    4  A    between atoms: O_3  and  C_35
REMARK    5  A    between atoms: O_4  and  C_28
REMARK    6  A    between atoms: O_4  and  C_36
REMARK    7  A    between atoms: N_6  and  C_20
REMARK    8  A    between atoms: N_8  and  C_27
REMARK    9  A    between atoms: C_10  and  C_16
REMARK   10  A    between atoms: C_11  and  C_17
REMARK   11  A    between atoms: C_19  and  C_21
REMARK   12  A    between atoms: C_31  and  C_34
REMARK   13  A    between atoms: C_34  and  C_37
REMARK   14  A    between atoms: C_34  and  C_38
REMARK                            x       y       z     vdW  Elec       q    Type
REMARK                         _______ _______ _______ _____ _____    ______ ____
ROOT
ATOM      5  N   UNL     1      12.552   6.770  20.961  0.00  0.00    -0.296 NA
ATOM      9  C   UNL     1      11.820   9.233  20.533  0.00  0.00    +0.002 C 
ATOM     10  C   UNL     1      11.924   8.456  19.192  0.00  0.00    +0.055 C 
ATOM     11  C   UNL     1      13.464   7.702  21.674  0.00  0.00    +0.095 C 
ATOM     12  C   UNL     1      13.176   9.164  21.269  0.00  0.00    +0.026 C 
ATOM     13  C   UNL     1      10.793   8.480  21.405  0.00  0.00    +0.019 C 
ATOM     14  C   UNL     1      12.555   7.070  19.507  0.00  0.00    +0.094 C 
ATOM     15  C   UNL     1      11.180   6.993  21.476  0.00  0.00    +0.085 C 
ENDROOT
BRANCH  10  16
ATOM      6  N   UNL     1      12.043   9.204  16.770  0.00  0.00    -0.270 N 
ATOM      7  N   UNL     1      12.799   9.854  15.869  0.00  0.00    -0.171 NA
ATOM     16  C   UNL     1      12.600   9.144  18.014  0.00  0.00    +0.044 A 
ATOM     18  C   UNL     1      13.803   9.799  17.920  0.00  0.00    +0.053 A 
ATOM     19  C   UNL     1      13.873  10.215  16.577  0.00  0.00    +0.093 A 
ATOM     20  C   UNL     1      10.773   8.654  16.360  0.00  0.00    +0.172 C 
BRANCH  19  21
ATOM     21  C   UNL     1      14.946  10.950  15.957  0.00  0.00    +0.006 A 
ATOM     23  C   UNL     1      15.683  11.869  16.703  0.00  0.00    +0.059 A 
ATOM     24  C   UNL     1      15.246  10.741  14.611  0.00  0.00    +0.014 A 
ATOM     25  C   UNL     1      16.722  12.580  16.103  0.00  0.00    +0.162 A 
ATOM     26  C   UNL     1      16.284  11.453  14.010  0.00  0.00    +0.050 A 
ATOM     28  C   UNL     1      17.023  12.372  14.756  0.00  0.00    +0.162 A 
BRANCH  25   3
ATOM      3  O   UNL     1      17.435  13.476  16.841  0.00  0.00    -0.491 OA
ATOM     35  C   UNL     1      18.471  12.955  17.670  0.00  0.00    +0.277 C 
ENDBRANCH  25   3
BRANCH  28   4
ATOM      4  O   UNL     1      18.035  13.061  14.158  0.00  0.00    -0.491 OA
ATOM     36  C   UNL     1      19.123  12.297  13.643  0.00  0.00    +0.277 C 
ENDBRANCH  28   4
ENDBRANCH  19  21
ENDBRANCH  10  16
BRANCH  11  17
ATOM     17  C   UNL     1      14.937   7.338  21.482  0.00  0.00    +0.252 C 
BRANCH  17   1
ATOM      1  O   UNL     1      15.679   8.534  21.348  0.00  0.00    -0.449 OA
BRANCH   1  22
ATOM      2  O   UNL     1      17.771   9.325  20.871  0.00  0.00    -0.226 OA
ATOM      8  N   UNL     1      17.417   7.120  21.572  0.00  0.00    -0.251 N 
ATOM     22  C   UNL     1      17.046   8.406  21.229  0.00  0.00    +0.405 C 
ATOM     39  H   UNL     1      16.665   6.493  21.847  0.00  0.00    +0.158 HD
BRANCH   8  27
ATOM     27  C   UNL     1      18.717   6.565  21.588  0.00  0.00    +0.036 A 
ATOM     29  C   UNL     1      19.174   5.830  20.494  0.00  0.00    +0.024 A 
ATOM     30  C   UNL     1      19.541   6.751  22.697  0.00  0.00    +0.024 A 
ATOM     31  C   UNL     1      21.282   5.469  21.619  0.00  0.00    -0.045 A 
ATOM     32  C   UNL     1      20.457   5.282  20.509  0.00  0.00    +0.006 A 
ATOM     33  C   UNL     1      20.824   6.203  22.712  0.00  0.00    +0.006 A 
BRANCH  31  34
ATOM     34  C   UNL     1      22.653   4.884  21.635  0.00  0.00    +0.013 C 
ATOM     37  C   UNL     1      23.305   4.872  20.240  0.00  0.00    +0.012 C 
ATOM     38  C   UNL     1      22.683   3.466  22.237  0.00  0.00    +0.012 C 
ENDBRANCH  31  34
ENDBRANCH   8  27
ENDBRANCH   1  22
ENDBRANCH  17   1
ENDBRANCH  11  17
TORSDOF 9
ENDMDL
MODEL 2
REMARK VINA RESULT:      -7.4     27.438     30.957
REMARK  Name = 44716364
REMARK  14 active torsions:
REMARK  status: ('A' for Active; 'I' for Inactive)
REMARK    1  A    between atoms: O_1  and  C_17
REMARK    2  A    between atoms: O_1  and  C_22
REMARK    3  A    between atoms: O_3  and  C_25
REMARK    4  A    between atoms: O_3  and  C_35
REMARK    5  A    between atoms: O_4  and  C_28
REMARK    6  A    between atoms: O_4  and  C_36
REMARK    7  A    between atoms: N_6  and  C_20
REMARK    8  A    between atoms: N_8  and  C_27
REMARK    9  A    between atoms: C_10  and  C_16
REMARK   10  A    between atoms: C_11  and  C_17
REMARK   11  A    between atoms: C_19  and  C_21
REMARK   12  A    between atoms: C_31  and  C_34
REMARK   13  A    between atoms: C_34  and  C_37
REMARK   14  A    between atoms: C_34  and  C_38
REMARK                            x       y       z     vdW  Elec       q    Type
REMARK                         _______ _______ _______ _____ _____    ______ ____
ROOT
ATOM      5  N   UNL     1      -5.927 -10.743  18.469  0.00  0.00    -0.296 NA
ATOM      9  C   UNL     1      -4.769 -12.619  17.083  0.00  0.00    +0.002 C 
ATOM     10  C   UNL     1      -4.139 -11.237  16.758  0.00  0.00    +0.055 C 
ATOM     11  C   UNL     1      -6.952 -11.582  17.794  0.00  0.00    +0.095 C 
ATOM     12  C   UNL     1      -6.287 -12.567  16.807  0.00  0.00    +0.026 C 
ATOM     13  C   UNL     1      -4.591 -12.844  18.599  0.00  0.00    +0.019 C 
ATOM     14  C   UNL     1      -5.008 -10.155  17.461  0.00  0.00    +0.094 C 
ATOM     15  C   UNL     1      -5.134 -11.622  19.360  0.00  0.00    +0.085 C 
ENDROOT
BRANCH  10  16
ATOM      6  N   UNL     1      -2.608 -10.700  14.807  0.00  0.00    -0.270 N 
ATOM      7  N   UNL     1      -2.579 -10.409  13.495  0.00  0.00    -0.171 NA
ATOM     16  C   UNL     1      -3.864 -10.898  15.299  0.00  0.00    +0.044 A 
ATOM     18  C   UNL     1      -4.717 -10.723  14.236  0.00  0.00    +0.053 A 
ATOM     19  C   UNL     1      -3.870 -10.425  13.152  0.00  0.00    +0.093 A 
ATOM     20  C   UNL     1      -1.366 -10.772  15.541  0.00  0.00    +0.172 C 
BRANCH  19  21
ATOM     21  C   UNL     1      -4.270 -10.153  11.796  0.00  0.00    +0.006 A 
ATOM     23  C   UNL     1      -5.611 -10.267  11.428  0.00  0.00    +0.059 A 
ATOM     24  C   UNL     1      -3.316  -9.778  10.850  0.00  0.00    +0.014 A 
ATOM     25  C   UNL     1      -5.998 -10.004  10.116  0.00  0.00    +0.162 A 
ATOM     26  C   UNL     1      -3.704  -9.515   9.535  0.00  0.00    +0.050 A 
ATOM     28  C   UNL     1      -5.045  -9.628   9.169  0.00  0.00    +0.162 A 
BRANCH  25   3
ATOM      3  O   UNL     1      -7.311 -10.119   9.768  0.00  0.00    -0.491 OA
ATOM     35  C   UNL     1      -8.199  -9.112  10.248  0.00  0.00    +0.277 C 
ENDBRANCH  25   3
BRANCH  28   4
ATOM      4  O   UNL     1      -5.411  -9.369   7.882  0.00  0.00    -0.491 OA
ATOM     36  C   UNL     1      -5.328 -10.450   6.955  0.00  0.00    +0.277 C 
ENDBRANCH  28   4
ENDBRANCH  19  21
ENDBRANCH  10  16
BRANCH  11  17
ATOM     17  C   UNL     1      -8.038 -10.744  17.117  0.00  0.00    +0.252 C 
BRANCH  17   1
ATOM      1  O   UNL     1      -7.885 -10.862  15.716  0.00  0.00    -0.449 OA
BRANCH   1  22
ATOM      2  O   UNL     1      -8.097  -9.622  13.806  0.00  0.00    -0.226 OA
ATOM      8  N   UNL     1      -9.486  -9.279  15.659  0.00  0.00    -0.251 N 
ATOM     22  C   UNL     1      -8.467  -9.879  14.945  0.00  0.00    +0.405 C 
ATOM     39  H   UNL     1      -9.646  -9.634  16.599  0.00  0.00    +0.158 HD
BRANCH   8  27
ATOM     27  C   UNL     1     -10.337  -8.229  15.245  0.00  0.00    +0.036 A 
ATOM     29  C   UNL     1     -11.272  -8.449  14.233  0.00  0.00    +0.024 A 
ATOM     30  C   UNL     1     -10.242  -6.975  15.846  0.00  0.00    +0.024 A 
ATOM     31  C   UNL     1     -12.018  -6.159  14.426  0.00  0.00    -0.045 A 
ATOM     32  C   UNL     1     -12.113  -7.414  13.824  0.00  0.00    +0.006 A 
ATOM     33  C   UNL     1     -11.083  -5.940  15.437  0.00  0.00    +0.006 A 
BRANCH  31  34
ATOM     34  C   UNL     1     -12.917  -5.053  13.989  0.00  0.00    +0.013 C 
ATOM     37  C   UNL     1     -14.334  -5.547  13.642  0.00  0.00    +0.012 C 
ATOM     38  C   UNL     1     -12.338  -4.255  12.806  0.00  0.00    +0.012 C 
ENDBRANCH  31  34
ENDBRANCH   8  27
ENDBRANCH   1  22
ENDBRANCH  17   1
ENDBRANCH  11  17
TORSDOF 9
ENDMDL
MODEL 3
REMARK VINA RESULT:      -7.1     28.338     30.790
REMARK  Name = 44716364
REMARK  14 active torsions:
REMARK  status: ('A' for Active; 'I' for Inactive)
REMARK    1  A    between atoms: O_1  and  C_17
REMARK    2  A    between atoms: O_1  and  C_22
REMARK    3  A    between atoms: O_3  and  C_25
REMARK    4  A    between atoms: O_3  and  C_35
REMARK    5  A    between atoms: O_4  and  C_28
REMARK    6  A    between atoms: O_4  and  C_36
REMARK    7  A    between atoms: N_6  and  C_20
REMARK    8  A    between atoms: N_8  and  C_27
REMARK    9  A    between atoms: C_10  and  C_16
REMARK   10  A    between atoms: C_11  and  C_17
REMARK   11  A    between atoms: C_19  and  C_21
REMARK   12  A    between atoms: C_31  and  C_34
REMARK   13  A    between atoms: C_34  and  C_37
REMARK   14  A    between atoms: C_34  and  C_38
REMARK                            x       y       z     vdW  Elec       q    Type
REMARK                         _______ _______ _______ _____ _____    ______ ____
ROOT
ATOM      5  N   UNL     1      -3.869  -8.952  10.056  0.00  0.00    -0.296 NA
ATOM      9  C   UNL     1      -5.794 -10.652   9.620  0.00  0.00    +0.002 C 
ATOM     10  C   UNL     1      -6.336  -9.393  10.351  0.00  0.00    +0.055 C 
ATOM     11  C   UNL     1      -3.465 -10.307  10.518  0.00  0.00    +0.095 C 
ATOM     12  C   UNL     1      -4.661 -11.282  10.459  0.00  0.00    +0.026 C 
ATOM     13  C   UNL     1      -5.161 -10.162   8.300  0.00  0.00    +0.019 C 
ATOM     14  C   UNL     1      -5.108  -8.526  10.753  0.00  0.00    +0.094 C 
ATOM     15  C   UNL     1      -4.160  -9.034   8.605  0.00  0.00    +0.085 C 
ENDROOT
BRANCH  10  16
ATOM      6  N   UNL     1      -8.634  -9.837  11.330  0.00  0.00    -0.270 N 
ATOM      7  N   UNL     1      -9.317  -9.985  12.479  0.00  0.00    -0.171 NA
ATOM     16  C   UNL     1      -7.304  -9.595  11.509  0.00  0.00    +0.044 A 
ATOM     18  C   UNL     1      -7.102  -9.584  12.867  0.00  0.00    +0.053 A 
ATOM     19  C   UNL     1      -8.376  -9.830  13.414  0.00  0.00    +0.093 A 
ATOM     20  C   UNL     1      -9.337  -9.940  10.073  0.00  0.00    +0.172 C 
BRANCH  19  21
ATOM     21  C   UNL     1      -8.711  -9.918  14.811  0.00  0.00    +0.006 A 
ATOM     23  C   UNL     1      -9.154  -8.785  15.495  0.00  0.00    +0.059 A 
ATOM     24  C   UNL     1      -8.593 -11.136  15.481  0.00  0.00    +0.014 A 
ATOM     25  C   UNL     1      -9.479  -8.871  16.848  0.00  0.00    +0.162 A 
ATOM     26  C   UNL     1      -8.917 -11.221  16.835  0.00  0.00    +0.050 A 
ATOM     28  C   UNL     1      -9.361 -10.089  17.518  0.00  0.00    +0.162 A 
BRANCH  25   3
ATOM      3  O   UNL     1      -9.908  -7.757  17.506  0.00  0.00    -0.491 OA
ATOM     35  C   UNL     1     -10.908  -6.970  16.862  0.00  0.00    +0.277 C 
ENDBRANCH  25   3
BRANCH  28   4
ATOM      4  O   UNL     1      -9.674 -10.185  18.841  0.00  0.00    -0.491 OA
ATOM     36  C   UNL     1     -10.938 -10.758  19.167  0.00  0.00    +0.277 C 
ENDBRANCH  28   4
ENDBRANCH  19  21
ENDBRANCH  10  16
BRANCH  11  17
ATOM     17  C   UNL     1      -2.818 -10.281  11.903  0.00  0.00    +0.252 C 
BRANCH  17   1
ATOM      1  O   UNL     1      -2.560 -11.614  12.300  0.00  0.00    -0.449 OA
BRANCH   1  22
ATOM      2  O   UNL     1      -1.810 -12.474  14.282  0.00  0.00    -0.226 OA
ATOM      8  N   UNL     1      -3.896 -11.425  14.103  0.00  0.00    -0.251 N 
ATOM     22  C   UNL     1      -2.680 -11.895  13.643  0.00  0.00    +0.405 C 
ATOM     39  H   UNL     1      -4.489 -10.966  13.416  0.00  0.00    +0.158 HD
BRANCH   8  27
ATOM     27  C   UNL     1      -4.419 -11.504  15.414  0.00  0.00    +0.036 A 
ATOM     29  C   UNL     1      -5.016 -12.684  15.856  0.00  0.00    +0.024 A 
ATOM     30  C   UNL     1      -4.340 -10.401  16.263  0.00  0.00    +0.024 A 
ATOM     31  C   UNL     1      -5.453 -11.659  18.000  0.00  0.00    -0.045 A 
ATOM     32  C   UNL     1      -5.532 -12.763  17.149  0.00  0.00    +0.006 A 
ATOM     33  C   UNL     1      -4.856 -10.480  17.557  0.00  0.00    +0.006 A 
BRANCH  31  34
ATOM     34  C   UNL     1      -6.004 -11.743  19.383  0.00  0.00    +0.013 C 
ATOM     37  C   UNL     1      -7.234 -12.665  19.472  0.00  0.00    +0.012 C 
ATOM     38  C   UNL     1      -6.345 -10.359  19.966  0.00  0.00    +0.012 C 
ENDBRANCH  31  34
ENDBRANCH   8  27
ENDBRANCH   1  22
ENDBRANCH  17   1
ENDBRANCH  11  17
TORSDOF 9
ENDMDL
MODEL 4
REMARK VINA RESULT:      -7.1     27.104     31.119
REMARK  Name = 44716364
REMARK  14 active torsions:
REMARK  status: ('A' for Active; 'I' for Inactive)
REMARK    1  A    between atoms: O_1  and  C_17
REMARK    2  A    between atoms: O_1  and  C_22
REMARK    3  A    between atoms: O_3  and  C_25
REMARK    4  A    between atoms: O_3  and  C_35
REMARK    5  A    between atoms: O_4  and  C_28
REMARK    6  A    between atoms: O_4  and  C_36
REMARK    7  A    between atoms: N_6  and  C_20
REMARK    8  A    between atoms: N_8  and  C_27
REMARK    9  A    between atoms: C_10  and  C_16
REMARK   10  A    between atoms: C_11  and  C_17
REMARK   11  A    between atoms: C_19  and  C_21
REMARK   12  A    between atoms: C_31  and  C_34
REMARK   13  A    between atoms: C_34  and  C_37
REMARK   14  A    between atoms: C_34  and  C_38
REMARK                            x       y       z     vdW  Elec       q    Type
REMARK                         _______ _______ _______ _____ _____    ______ ____
ROOT
ATOM      5  N   UNL     1      -6.483 -11.238  18.276  0.00  0.00    -0.296 NA
ATOM      9  C   UNL     1      -4.079 -12.117  17.798  0.00  0.00    +0.002 C 
ATOM     10  C   UNL     1      -4.348 -10.811  17.001  0.00  0.00    +0.055 C 
ATOM     11  C   UNL     1      -6.531 -12.680  17.920  0.00  0.00    +0.095 C 
ATOM     12  C   UNL     1      -5.149 -13.168  17.434  0.00  0.00    +0.026 C 
ATOM     13  C   UNL     1      -4.270 -11.775  19.291  0.00  0.00    +0.019 C 
ATOM     14  C   UNL     1      -5.854 -10.463  17.177  0.00  0.00    +0.094 C 
ATOM     15  C   UNL     1      -5.637 -11.096  19.485  0.00  0.00    +0.085 C 
ENDROOT
BRANCH  10  16
ATOM      6  N   UNL     1      -2.609 -10.586  15.166  0.00  0.00    -0.270 N 
ATOM      7  N   UNL     1      -2.431 -10.563  13.835  0.00  0.00    -0.171 NA
ATOM     16  C   UNL     1      -3.909 -10.755  15.544  0.00  0.00    +0.044 A 
ATOM     18  C   UNL     1      -4.630 -10.848  14.379  0.00  0.00    +0.053 A 
ATOM     19  C   UNL     1      -3.668 -10.723  13.359  0.00  0.00    +0.093 A 
ATOM     20  C   UNL     1      -1.465 -10.435  16.035  0.00  0.00    +0.172 C 
BRANCH  19  21
ATOM     21  C   UNL     1      -3.909 -10.753  11.940  0.00  0.00    +0.006 A 
ATOM     23  C   UNL     1      -4.407  -9.622  11.293  0.00  0.00    +0.059 A 
ATOM     24  C   UNL     1      -3.645 -11.914  11.212  0.00  0.00    +0.014 A 
ATOM     25  C   UNL     1      -4.640  -9.651   9.919  0.00  0.00    +0.162 A 
ATOM     26  C   UNL     1      -3.879 -11.943   9.837  0.00  0.00    +0.050 A 
ATOM     28  C   UNL     1      -4.376 -10.812   9.191  0.00  0.00    +0.162 A 
BRANCH  25   3
ATOM      3  O   UNL     1      -5.127  -8.540   9.298  0.00  0.00    -0.491 OA
ATOM     35  C   UNL     1      -6.538  -8.337   9.347  0.00  0.00    +0.277 C 
ENDBRANCH  25   3
BRANCH  28   4
ATOM      4  O   UNL     1      -4.600 -10.853   7.847  0.00  0.00    -0.491 OA
ATOM     36  C   UNL     1      -4.669 -12.142   7.241  0.00  0.00    +0.277 C 
ENDBRANCH  28   4
ENDBRANCH  19  21
ENDBRANCH  10  16
BRANCH  11  17
ATOM     17  C   UNL     1      -7.634 -12.994  16.908  0.00  0.00    +0.252 C 
BRANCH  17   1
ATOM      1  O   UNL     1      -8.820 -13.294  17.618  0.00  0.00    -0.449 OA
BRANCH   1  22
ATOM      2  O   UNL     1     -10.607 -12.274  18.615  0.00  0.00    -0.226 OA
ATOM      8  N   UNL     1      -9.491 -11.307  16.798  0.00  0.00    -0.251 N 
ATOM     22  C   UNL     1      -9.734 -12.273  17.756  0.00  0.00    +0.405 C 
ATOM     39  H   UNL     1      -8.713 -11.485  16.168  0.00  0.00    +0.158 HD
BRANCH   8  27
ATOM     27  C   UNL     1     -10.191 -10.098  16.585  0.00  0.00    +0.036 A 
ATOM     29  C   UNL     1     -11.477 -10.124  16.046  0.00  0.00    +0.024 A 
ATOM     30  C   UNL     1      -9.597  -8.880  16.914  0.00  0.00    +0.024 A 
ATOM     31  C   UNL     1     -11.574  -7.712  16.164  0.00  0.00    -0.045 A 
ATOM     32  C   UNL     1     -12.169  -8.931  15.835  0.00  0.00    +0.006 A 
ATOM     33  C   UNL     1     -10.289  -7.688  16.704  0.00  0.00    +0.006 A 
BRANCH  31  34
ATOM     34  C   UNL     1     -12.314  -6.437  15.941  0.00  0.00    +0.013 C 
ATOM     37  C   UNL     1     -13.829  -6.657  15.772  0.00  0.00    +0.012 C 
ATOM     38  C   UNL     1     -11.765  -5.640  14.742  0.00  0.00    +0.012 C 
ENDBRANCH  31  34
ENDBRANCH   8  27
ENDBRANCH   1  22
ENDBRANCH  17   1
ENDBRANCH  11  17
TORSDOF 9
ENDMDL
MODEL 5
REMARK VINA RESULT:      -7.1     28.498     31.332
REMARK  Name = 44716364
REMARK  14 active torsions:
REMARK  status: ('A' for Active; 'I' for Inactive)
REMARK    1  A    between atoms: O_1  and  C_17
REMARK    2  A    between atoms: O_1  and  C_22
REMARK    3  A    between atoms: O_3  and  C_25
REMARK    4  A    between atoms: O_3  and  C_35
REMARK    5  A    between atoms: O_4  and  C_28
REMARK    6  A    between atoms: O_4  and  C_36
REMARK    7  A    between atoms: N_6  and  C_20
REMARK    8  A    between atoms: N_8  and  C_27
REMARK    9  A    between atoms: C_10  and  C_16
REMARK   10  A    between atoms: C_11  and  C_17
REMARK   11  A    between atoms: C_19  and  C_21
REMARK   12  A    between atoms: C_31  and  C_34
REMARK   13  A    between atoms: C_34  and  C_37
REMARK   14  A    between atoms: C_34  and  C_38
REMARK                            x       y       z     vdW  Elec       q    Type
REMARK                         _______ _______ _______ _____ _____    ______ ____
ROOT
ATOM      5  N   UNL     1      -5.333 -12.573  16.733  0.00  0.00    -0.296 NA
ATOM      9  C   UNL     1      -5.892 -11.009  18.738  0.00  0.00    +0.002 C 
ATOM     10  C   UNL     1      -7.192 -11.623  18.149  0.00  0.00    +0.055 C 
ATOM     11  C   UNL     1      -4.653 -11.262  16.559  0.00  0.00    +0.095 C 
ATOM     12  C   UNL     1      -5.134 -10.254  17.626  0.00  0.00    +0.026 C 
ATOM     13  C   UNL     1      -5.000 -12.190  19.174  0.00  0.00    +0.019 C 
ATOM     14  C   UNL     1      -6.800 -12.373  16.845  0.00  0.00    +0.094 C 
ATOM     15  C   UNL     1      -4.850 -13.172  17.999  0.00  0.00    +0.085 C 
ENDROOT
BRANCH  10  16
ATOM      6  N   UNL     1      -9.478 -10.716  18.777  0.00  0.00    -0.270 N 
ATOM      7  N   UNL     1     -10.431  -9.834  18.429  0.00  0.00    -0.171 NA
ATOM     16  C   UNL     1      -8.393 -10.708  17.950  0.00  0.00    +0.044 A 
ATOM     18  C   UNL     1      -8.655  -9.756  16.995  0.00  0.00    +0.053 A 
ATOM     19  C   UNL     1      -9.922  -9.251  17.341  0.00  0.00    +0.093 A 
ATOM     20  C   UNL     1      -9.680 -11.552  19.937  0.00  0.00    +0.172 C 
BRANCH  19  21
ATOM     21  C   UNL     1     -10.658  -8.223  16.650  0.00  0.00    +0.006 A 
ATOM     23  C   UNL     1     -12.047  -8.301  16.559  0.00  0.00    +0.059 A 
ATOM     24  C   UNL     1      -9.979  -7.150  16.072  0.00  0.00    +0.014 A 
ATOM     25  C   UNL     1     -12.759  -7.306  15.891  0.00  0.00    +0.162 A 
ATOM     26  C   UNL     1     -10.691  -6.155  15.402  0.00  0.00    +0.050 A 
ATOM     28  C   UNL     1     -12.081  -6.232  15.312  0.00  0.00    +0.162 A 
BRANCH  25   3
ATOM      3  O   UNL     1     -14.116  -7.394  15.807  0.00  0.00    -0.491 OA
ATOM     35  C   UNL     1     -14.649  -8.266  14.812  0.00  0.00    +0.277 C 
ENDBRANCH  25   3
BRANCH  28   4
ATOM      4  O   UNL     1     -12.765  -5.254  14.655  0.00  0.00    -0.491 OA
ATOM     36  C   UNL     1     -12.364  -4.971  13.316  0.00  0.00    +0.277 C 
ENDBRANCH  28   4
ENDBRANCH  19  21
ENDBRANCH  10  16
BRANCH  11  17
ATOM     17  C   UNL     1      -4.806 -10.708  15.142  0.00  0.00    +0.252 C 
BRANCH  17   1
ATOM      1  O   UNL     1      -3.517 -10.444  14.624  0.00  0.00    -0.449 OA
BRANCH   1  22
ATOM      2  O   UNL     1      -2.352 -11.168  12.794  0.00  0.00    -0.226 OA
ATOM      8  N   UNL     1      -4.436 -10.119  12.594  0.00  0.00    -0.251 N 
ATOM     22  C   UNL     1      -3.343 -10.628  13.270  0.00  0.00    +0.405 C 
ATOM     39  H   UNL     1      -5.167  -9.706  13.168  0.00  0.00    +0.158 HD
BRANCH   8  27
ATOM     27  C   UNL     1      -4.665 -10.101  11.199  0.00  0.00    +0.036 A 
ATOM     29  C   UNL     1      -4.127  -9.079  10.419  0.00  0.00    +0.024 A 
ATOM     30  C   UNL     1      -5.429 -11.105  10.605  0.00  0.00    +0.024 A 
ATOM     31  C   UNL     1      -5.117 -10.065   8.447  0.00  0.00    -0.045 A 
ATOM     32  C   UNL     1      -4.352  -9.060   9.042  0.00  0.00    +0.006 A 
ATOM     33  C   UNL     1      -5.654 -11.087   9.229  0.00  0.00    +0.006 A 
BRANCH  31  34
ATOM     34  C   UNL     1      -5.356 -10.046   6.976  0.00  0.00    +0.013 C 
ATOM     37  C   UNL     1      -6.743  -9.484   6.612  0.00  0.00    +0.012 C 
ATOM     38  C   UNL     1      -5.169 -11.432   6.331  0.00  0.00    +0.012 C 
ENDBRANCH  31  34
ENDBRANCH   8  27
ENDBRANCH   1  22
ENDBRANCH  17   1
ENDBRANCH  11  17
TORSDOF 9
ENDMDL
MODEL 6
REMARK VINA RESULT:      -7.0     13.250     17.677
REMARK  Name = 44716364
REMARK  14 active torsions:
REMARK  status: ('A' for Active; 'I' for Inactive)
REMARK    1  A    between atoms: O_1  and  C_17
REMARK    2  A    between atoms: O_1  and  C_22
REMARK    3  A    between atoms: O_3  and  C_25
REMARK    4  A    between atoms: O_3  and  C_35
REMARK    5  A    between atoms: O_4  and  C_28
REMARK    6  A    between atoms: O_4  and  C_36
REMARK    7  A    between atoms: N_6  and  C_20
REMARK    8  A    between atoms: N_8  and  C_27
REMARK    9  A    between atoms: C_10  and  C_16
REMARK   10  A    between atoms: C_11  and  C_17
REMARK   11  A    between atoms: C_19  and  C_21
REMARK   12  A    between atoms: C_31  and  C_34
REMARK   13  A    between atoms: C_34  and  C_37
REMARK   14  A    between atoms: C_34  and  C_38
REMARK                            x       y       z     vdW  Elec       q    Type
REMARK                         _______ _______ _______ _____ _____    ______ ____
ROOT
ATOM      5  N   UNL     1      13.725   5.156  -1.103  0.00  0.00    -0.296 NA
ATOM      9  C   UNL     1      12.182   3.469   0.145  0.00  0.00    +0.002 C 
ATOM     10  C   UNL     1      11.541   4.884   0.132  0.00  0.00    +0.055 C 
ATOM     11  C   UNL     1      14.511   4.400  -0.093  0.00  0.00    +0.095 C 
ATOM     12  C   UNL     1      13.580   3.547   0.796  0.00  0.00    +0.026 C 
ATOM     13  C   UNL     1      12.391   3.061  -1.328  0.00  0.00    +0.019 C 
ATOM     14  C   UNL     1      12.600   5.867  -0.444  0.00  0.00    +0.094 C 
ATOM     15  C   UNL     1      13.156   4.178  -2.061  0.00  0.00    +0.085 C 
ENDROOT
BRANCH  10  16
ATOM      6  N   UNL     1      10.141   6.523   1.471  0.00  0.00    -0.270 N 
ATOM      7  N   UNL     1       9.684   6.811   2.701  0.00  0.00    -0.171 NA
ATOM     16  C   UNL     1      10.915   5.401   1.420  0.00  0.00    +0.044 A 
ATOM     18  C   UNL     1      10.967   4.922   2.706  0.00  0.00    +0.053 A 
ATOM     19  C   UNL     1      10.191   5.829   3.451  0.00  0.00    +0.093 A 
ATOM     20  C   UNL     1       9.791   7.387   0.368  0.00  0.00    +0.172 C 
BRANCH  19  21
ATOM     21  C   UNL     1       9.927   5.777   4.866  0.00  0.00    +0.006 A 
ATOM     23  C   UNL     1       9.551   6.935   5.548  0.00  0.00    +0.059 A 
ATOM     24  C   UNL     1      10.047   4.570   5.553  0.00  0.00    +0.014 A 
ATOM     25  C   UNL     1       9.295   6.884   6.917  0.00  0.00    +0.162 A 
ATOM     26  C   UNL     1       9.792   4.519   6.924  0.00  0.00    +0.050 A 
ATOM     28  C   UNL     1       9.415   5.677   7.606  0.00  0.00    +0.162 A 
BRANCH  25   3
ATOM      3  O   UNL     1       8.930   8.022   7.573  0.00  0.00    -0.491 OA
ATOM     35  C   UNL     1       8.906   9.228   6.814  0.00  0.00    +0.277 C 
ENDBRANCH  25   3
BRANCH  28   4
ATOM      4  O   UNL     1       9.169   5.615   8.945  0.00  0.00    -0.491 OA
ATOM     36  C   UNL     1       9.417   4.368   9.592  0.00  0.00    +0.277 C 
ENDBRANCH  28   4
ENDBRANCH  19  21
ENDBRANCH  10  16
BRANCH  11  17
ATOM     17  C   UNL     1      15.418   5.309   0.739  0.00  0.00    +0.252 C 
BRANCH  17   1
ATOM      1  O   UNL     1      14.925   5.338   2.064  0.00  0.00    -0.449 OA
BRANCH   1  22
ATOM      2  O   UNL     1      15.631   7.487   2.406  0.00  0.00    -0.226 OA
ATOM      8  N   UNL     1      13.827   6.579   3.590  0.00  0.00    -0.251 N 
ATOM     22  C   UNL     1      14.862   6.572   2.674  0.00  0.00    +0.405 C 
ATOM     39  H   UNL     1      13.294   5.716   3.672  0.00  0.00    +0.158 HD
BRANCH   8  27
ATOM     27  C   UNL     1      13.415   7.639   4.430  0.00  0.00    +0.036 A 
ATOM     29  C   UNL     1      12.598   8.649   3.925  0.00  0.00    +0.024 A 
ATOM     30  C   UNL     1      13.827   7.674   5.761  0.00  0.00    +0.024 A 
ATOM     31  C   UNL     1      12.603   9.731   6.086  0.00  0.00    -0.045 A 
ATOM     32  C   UNL     1      12.190   9.695   4.753  0.00  0.00    +0.006 A 
ATOM     33  C   UNL     1      13.420   8.720   6.589  0.00  0.00    +0.006 A 
BRANCH  31  34
ATOM     34  C   UNL     1      12.167  10.849   6.971  0.00  0.00    +0.013 C 
ATOM     37  C   UNL     1      11.317  11.894   6.226  0.00  0.00    +0.012 C 
ATOM     38  C   UNL     1      13.351  11.541   7.672  0.00  0.00    +0.012 C 
ENDBRANCH  31  34
ENDBRANCH   8  27
ENDBRANCH   1  22
ENDBRANCH  17   1
ENDBRANCH  11  17
TORSDOF 9
ENDMDL
MODEL 7
REMARK VINA RESULT:      -7.0     12.567     15.869
REMARK  Name = 44716364
REMARK  14 active torsions:
REMARK  status: ('A' for Active; 'I' for Inactive)
REMARK    1  A    between atoms: O_1  and  C_17
REMARK    2  A    between atoms: O_1  and  C_22
REMARK    3  A    between atoms: O_3  and  C_25
REMARK    4  A    between atoms: O_3  and  C_35
REMARK    5  A    between atoms: O_4  and  C_28
REMARK    6  A    between atoms: O_4  and  C_36
REMARK    7  A    between atoms: N_6  and  C_20
REMARK    8  A    between atoms: N_8  and  C_27
REMARK    9  A    between atoms: C_10  and  C_16
REMARK   10  A    between atoms: C_11  and  C_17
REMARK   11  A    between atoms: C_19  and  C_21
REMARK   12  A    between atoms: C_31  and  C_34
REMARK   13  A    between atoms: C_34  and  C_37
REMARK   14  A    between atoms: C_34  and  C_38
REMARK                            x       y       z     vdW  Elec       q    Type
REMARK                         _______ _______ _______ _____ _____    ______ ____
ROOT
ATOM      5  N   UNL     1      12.228   9.461   7.330  0.00  0.00    -0.296 NA
ATOM      9  C   UNL     1      10.112   9.212   5.832  0.00  0.00    +0.002 C 
ATOM     10  C   UNL     1      10.631   7.816   6.276  0.00  0.00    +0.055 C 
ATOM     11  C   UNL     1      12.388  10.262   6.087  0.00  0.00    +0.095 C 
ATOM     12  C   UNL     1      11.241   9.966   5.097  0.00  0.00    +0.026 C 
ATOM     13  C   UNL     1       9.804  10.003   7.121  0.00  0.00    +0.019 C 
ATOM     14  C   UNL     1      11.996   8.035   6.989  0.00  0.00    +0.094 C 
ATOM     15  C   UNL     1      11.033   9.966   8.046  0.00  0.00    +0.085 C 
ENDROOT
BRANCH  10  16
ATOM      6  N   UNL     1      10.296   5.428   5.486  0.00  0.00    -0.270 N 
ATOM      7  N   UNL     1      10.433   4.601   4.436  0.00  0.00    -0.171 NA
ATOM     16  C   UNL     1      10.695   6.708   5.234  0.00  0.00    +0.044 A 
ATOM     18  C   UNL     1      11.123   6.719   3.930  0.00  0.00    +0.053 A 
ATOM     19  C   UNL     1      10.939   5.395   3.488  0.00  0.00    +0.093 A 
ATOM     20  C   UNL     1       9.766   4.912   6.726  0.00  0.00    +0.172 C 
BRANCH  19  21
ATOM     21  C   UNL     1      11.237   4.874   2.179  0.00  0.00    +0.006 A 
ATOM     23  C   UNL     1      12.492   4.324   1.917  0.00  0.00    +0.059 A 
ATOM     24  C   UNL     1      10.271   4.920   1.174  0.00  0.00    +0.014 A 
ATOM     25  C   UNL     1      12.781   3.819   0.650  0.00  0.00    +0.162 A 
ATOM     26  C   UNL     1      10.561   4.416  -0.094  0.00  0.00    +0.050 A 
ATOM     28  C   UNL     1      11.815   3.865  -0.356  0.00  0.00    +0.162 A 
BRANCH  25   3
ATOM      3  O   UNL     1      14.011   3.286   0.406  0.00  0.00    -0.491 OA
ATOM     35  C   UNL     1      15.059   3.633   1.308  0.00  0.00    +0.277 C 
ENDBRANCH  25   3
BRANCH  28   4
ATOM      4  O   UNL     1      12.086   3.376  -1.599  0.00  0.00    -0.491 OA
ATOM     36  C   UNL     1      10.999   3.313  -2.520  0.00  0.00    +0.277 C 
ENDBRANCH  28   4
ENDBRANCH  19  21
ENDBRANCH  10  16
BRANCH  11  17
ATOM     17  C   UNL     1      13.761  10.070   5.442  0.00  0.00    +0.252 C 
BRANCH  17   1
ATOM      1  O   UNL     1      14.714   9.877   6.469  0.00  0.00    -0.449 OA
BRANCH   1  22
ATOM      2  O   UNL     1      15.422   7.710   6.289  0.00  0.00    -0.226 OA
ATOM      8  N   UNL     1      16.887   9.514   6.002  0.00  0.00    -0.251 N 
ATOM     22  C   UNL     1      15.670   8.909   6.254  0.00  0.00    +0.405 C 
ATOM     39  H   UNL     1      16.894  10.531   6.014  0.00  0.00    +0.158 HD
BRANCH   8  27
ATOM     27  C   UNL     1      18.128   8.894   5.730  0.00  0.00    +0.036 A 
ATOM     29  C   UNL     1      18.381   8.370   4.463  0.00  0.00    +0.024 A 
ATOM     30  C   UNL     1      19.096   8.804   6.729  0.00  0.00    +0.024 A 
ATOM     31  C   UNL     1      20.575   7.668   5.193  0.00  0.00    -0.045 A 
ATOM     32  C   UNL     1      19.605   7.758   4.193  0.00  0.00    +0.006 A 
ATOM     33  C   UNL     1      20.320   8.192   6.460  0.00  0.00    +0.006 A 
BRANCH  31  34
ATOM     34  C   UNL     1      21.884   7.014   4.905  0.00  0.00    +0.013 C 
ATOM     37  C   UNL     1      23.056   8.013   4.917  0.00  0.00    +0.012 C 
ATOM     38  C   UNL     1      21.874   6.237   3.575  0.00  0.00    +0.012 C 
ENDBRANCH  31  34
ENDBRANCH   8  27
ENDBRANCH   1  22
ENDBRANCH  17   1
ENDBRANCH  11  17
TORSDOF 9
ENDMDL
MODEL 8
REMARK VINA RESULT:      -7.0      3.754      8.507
REMARK  Name = 44716364
REMARK  14 active torsions:
REMARK  status: ('A' for Active; 'I' for Inactive)
REMARK    1  A    between atoms: O_1  and  C_17
REMARK    2  A    between atoms: O_1  and  C_22
REMARK    3  A    between atoms: O_3  and  C_25
REMARK    4  A    between atoms: O_3  and  C_35
REMARK    5  A    between atoms: O_4  and  C_28
REMARK    6  A    between atoms: O_4  and  C_36
REMARK    7  A    between atoms: N_6  and  C_20
REMARK    8  A    between atoms: N_8  and  C_27
REMARK    9  A    between atoms: C_10  and  C_16
REMARK   10  A    between atoms: C_11  and  C_17
REMARK   11  A    between atoms: C_19  and  C_21
REMARK   12  A    between atoms: C_31  and  C_34
REMARK   13  A    between atoms: C_34  and  C_37
REMARK   14  A    between atoms: C_34  and  C_38
REMARK                            x       y       z     vdW  Elec       q    Type
REMARK                         _______ _______ _______ _____ _____    ______ ____
ROOT
ATOM      5  N   UNL     1      22.462   8.695  22.650  0.00  0.00    -0.296 NA
ATOM      9  C   UNL     1      20.851   6.981  23.767  0.00  0.00    +0.002 C 
ATOM     10  C   UNL     1      20.802   6.845  22.220  0.00  0.00    +0.055 C 
ATOM     11  C   UNL     1      21.596   9.385  23.643  0.00  0.00    +0.095 C 
ATOM     12  C   UNL     1      20.499   8.431  24.164  0.00  0.00    +0.026 C 
ATOM     13  C   UNL     1      22.316   6.739  24.189  0.00  0.00    +0.019 C 
ATOM     14  C   UNL     1      21.625   8.023  21.625  0.00  0.00    +0.094 C 
ATOM     15  C   UNL     1      23.238   7.657  23.368  0.00  0.00    +0.085 C 
ENDROOT
BRANCH  10  16
ATOM      6  N   UNL     1      19.193   5.795  20.562  0.00  0.00    -0.270 N 
ATOM      7  N   UNL     1      17.928   5.824  20.107  0.00  0.00    -0.171 NA
ATOM     16  C   UNL     1      19.440   6.698  21.555  0.00  0.00    +0.044 A 
ATOM     18  C   UNL     1      18.257   7.363  21.763  0.00  0.00    +0.053 A 
ATOM     19  C   UNL     1      17.362   6.783  20.844  0.00  0.00    +0.093 A 
ATOM     20  C   UNL     1      20.129   4.859  19.986  0.00  0.00    +0.172 C 
BRANCH  19  21
ATOM     21  C   UNL     1      15.976   7.128  20.656  0.00  0.00    +0.006 A 
ATOM     23  C   UNL     1      15.421   7.113  19.377  0.00  0.00    +0.059 A 
ATOM     24  C   UNL     1      15.190   7.479  21.754  0.00  0.00    +0.014 A 
ATOM     25  C   UNL     1      14.080   7.447  19.195  0.00  0.00    +0.162 A 
ATOM     26  C   UNL     1      13.848   7.815  21.572  0.00  0.00    +0.050 A 
ATOM     28  C   UNL     1      13.293   7.798  20.292  0.00  0.00    +0.162 A 
BRANCH  25   3
ATOM      3  O   UNL     1      13.549   7.429  17.940  0.00  0.00    -0.491 OA
ATOM     35  C   UNL     1      14.095   8.344  16.993  0.00  0.00    +0.277 C 
ENDBRANCH  25   3
BRANCH  28   4
ATOM      4  O   UNL     1      11.981   8.128  20.128  0.00  0.00    -0.491 OA
ATOM     36  C   UNL     1      11.164   8.135  21.296  0.00  0.00    +0.277 C 
ENDBRANCH  28   4
ENDBRANCH  19  21
ENDBRANCH  10  16
BRANCH  11  17
ATOM     17  C   UNL     1      21.007  10.687  23.098  0.00  0.00    +0.252 C 
BRANCH  17   1
ATOM      1  O   UNL     1      19.976  11.109  23.970  0.00  0.00    -0.449 OA
BRANCH   1  22
ATOM      2  O   UNL     1      18.657  12.903  23.450  0.00  0.00    -0.226 OA
ATOM      8  N   UNL     1      18.116  10.733  22.757  0.00  0.00    -0.251 N 
ATOM     22  C   UNL     1      18.876  11.700  23.387  0.00  0.00    +0.405 C 
ATOM     39  H   UNL     1      18.465   9.779  22.815  0.00  0.00    +0.158 HD
BRANCH   8  27
ATOM     27  C   UNL     1      16.910  10.905  22.040  0.00  0.00    +0.036 A 
ATOM     29  C   UNL     1      16.894  10.738  20.655  0.00  0.00    +0.024 A 
ATOM     30  C   UNL     1      15.739  11.242  22.716  0.00  0.00    +0.024 A 
ATOM     31  C   UNL     1      14.532  11.245  20.623  0.00  0.00    -0.045 A 
ATOM     32  C   UNL     1      15.705  10.907  19.947  0.00  0.00    +0.006 A 
ATOM     33  C   UNL     1      14.549  11.411  22.007  0.00  0.00    +0.006 A 
BRANCH  31  34
ATOM     34  C   UNL     1      13.260  11.425  19.866  0.00  0.00    +0.013 C 
ATOM     37  C   UNL     1      13.499  11.802  18.393  0.00  0.00    +0.012 C 
ATOM     38  C   UNL     1      12.324  12.457  20.524  0.00  0.00    +0.012 C 
ENDBRANCH  31  34
ENDBRANCH   8  27
ENDBRANCH   1  22
ENDBRANCH  17   1
ENDBRANCH  11  17
TORSDOF 9
ENDMDL
MODEL 9
REMARK VINA RESULT:      -6.8      3.426      8.401
REMARK  Name = 44716364
REMARK  14 active torsions:
REMARK  status: ('A' for Active; 'I' for Inactive)
REMARK    1  A    between atoms: O_1  and  C_17
REMARK    2  A    between atoms: O_1  and  C_22
REMARK    3  A    between atoms: O_3  and  C_25
REMARK    4  A    between atoms: O_3  and  C_35
REMARK    5  A    between atoms: O_4  and  C_28
REMARK    6  A    between atoms: O_4  and  C_36
REMARK    7  A    between atoms: N_6  and  C_20
REMARK    8  A    between atoms: N_8  and  C_27
REMARK    9  A    between atoms: C_10  and  C_16
REMARK   10  A    between atoms: C_11  and  C_17
REMARK   11  A    between atoms: C_19  and  C_21
REMARK   12  A    between atoms: C_31  and  C_34
REMARK   13  A    between atoms: C_34  and  C_37
REMARK   14  A    between atoms: C_34  and  C_38
REMARK                            x       y       z     vdW  Elec       q    Type
REMARK                         _______ _______ _______ _____ _____    ______ ____
ROOT
ATOM      5  N   UNL     1      22.226   9.081  22.622  0.00  0.00    -0.296 NA
ATOM      9  C   UNL     1      20.648   7.331  23.730  0.00  0.00    +0.002 C 
ATOM     10  C   UNL     1      20.795   7.044  22.211  0.00  0.00    +0.055 C 
ATOM     11  C   UNL     1      21.191   9.773  23.435  0.00  0.00    +0.095 C 
ATOM     12  C   UNL     1      20.127   8.770  23.930  0.00  0.00    +0.026 C 
ATOM     13  C   UNL     1      22.067   7.275  24.334  0.00  0.00    +0.019 C 
ATOM     14  C   UNL     1      21.578   8.235  21.588  0.00  0.00    +0.094 C 
ATOM     15  C   UNL     1      22.998   8.196  23.526  0.00  0.00    +0.085 C 
ENDROOT
BRANCH  10  16
ATOM      6  N   UNL     1      19.488   5.679  20.517  0.00  0.00    -0.270 N 
ATOM      7  N   UNL     1      18.290   5.542  19.923  0.00  0.00    -0.171 NA
ATOM     16  C   UNL     1      19.541   6.701  21.419  0.00  0.00    +0.044 A 
ATOM     18  C   UNL     1      18.292   7.272  21.415  0.00  0.00    +0.053 A 
ATOM     19  C   UNL     1      17.564   6.517  20.475  0.00  0.00    +0.093 A 
ATOM     20  C   UNL     1      20.559   4.778  20.162  0.00  0.00    +0.172 C 
BRANCH  19  21
ATOM     21  C   UNL     1      16.188   6.711  20.095  0.00  0.00    +0.006 A 
ATOM     23  C   UNL     1      15.209   6.870  21.076  0.00  0.00    +0.059 A 
ATOM     24  C   UNL     1      15.836   6.737  18.745  0.00  0.00    +0.014 A 
ATOM     25  C   UNL     1      13.878   7.058  20.707  0.00  0.00    +0.162 A 
ATOM     26  C   UNL     1      14.504   6.924  18.377  0.00  0.00    +0.050 A 
ATOM     28  C   UNL     1      13.525   7.085  19.357  0.00  0.00    +0.162 A 
BRANCH  25   3
ATOM      3  O   UNL     1      12.930   7.211  21.674  0.00  0.00    -0.491 OA
ATOM     35  C   UNL     1      12.619   8.545  22.070  0.00  0.00    +0.277 C 
ENDBRANCH  25   3
BRANCH  28   4
ATOM      4  O   UNL     1      12.227   7.266  18.984  0.00  0.00    -0.491 OA
ATOM     36  C   UNL     1      11.889   8.526  18.406  0.00  0.00    +0.277 C 
ENDBRANCH  28   4
ENDBRANCH  19  21
ENDBRANCH  10  16
BRANCH  11  17
ATOM     17  C   UNL     1      20.561  10.954  22.694  0.00  0.00    +0.252 C 
BRANCH  17   1
ATOM      1  O   UNL     1      19.451  11.408  23.441  0.00  0.00    -0.449 OA
BRANCH   1  22
ATOM      2  O   UNL     1      17.625  12.745  23.108  0.00  0.00    -0.226 OA
ATOM      8  N   UNL     1      18.251  11.103  21.560  0.00  0.00    -0.251 N 
ATOM     22  C   UNL     1      18.356  11.840  22.724  0.00  0.00    +0.405 C 
ATOM     39  H   UNL     1      18.960  10.389  21.415  0.00  0.00    +0.158 HD
BRANCH   8  27
ATOM     27  C   UNL     1      17.276  11.219  20.543  0.00  0.00    +0.036 A 
ATOM     29  C   UNL     1      16.254  10.274  20.447  0.00  0.00    +0.024 A 
ATOM     30  C   UNL     1      17.336  12.276  19.636  0.00  0.00    +0.024 A 
ATOM     31  C   UNL     1      15.353  11.445  18.536  0.00  0.00    -0.045 A 
ATOM     32  C   UNL     1      15.292  10.388  19.444  0.00  0.00    +0.006 A 
ATOM     33  C   UNL     1      16.374  12.389  18.633  0.00  0.00    +0.006 A 
BRANCH  31  34
ATOM     34  C   UNL     1      14.323  11.567  17.464  0.00  0.00    +0.013 C 
ATOM     37  C   UNL     1      14.356  10.385  16.478  0.00  0.00    +0.012 C 
ATOM     38  C   UNL     1      14.433  12.896  16.691  0.00  0.00    +0.012 C 
ENDBRANCH  31  34
ENDBRANCH   8  27
ENDBRANCH   1  22
ENDBRANCH  17   1
ENDBRANCH  11  17
TORSDOF 9
ENDMDL
MODEL 10
REMARK VINA RESULT:      -6.8     28.245     30.962
REMARK  Name = 44716364
REMARK  14 active torsions:
REMARK  status: ('A' for Active; 'I' for Inactive)
REMARK    1  A    between atoms: O_1  and  C_17
REMARK    2  A    between atoms: O_1  and  C_22
REMARK    3  A    between atoms: O_3  and  C_25
REMARK    4  A    between atoms: O_3  and  C_35
REMARK    5  A    between atoms: O_4  and  C_28
REMARK    6  A    between atoms: O_4  and  C_36
REMARK    7  A    between atoms: N_6  and  C_20
REMARK    8  A    between atoms: N_8  and  C_27
REMARK    9  A    between atoms: C_10  and  C_16
REMARK   10  A    between atoms: C_11  and  C_17
REMARK   11  A    between atoms: C_19  and  C_21
REMARK   12  A    between atoms: C_31  and  C_34
REMARK   13  A    between atoms: C_34  and  C_37
REMARK   14  A    between atoms: C_34  and  C_38
REMARK                            x       y       z     vdW  Elec       q    Type
REMARK                         _______ _______ _______ _____ _____    ______ ____
ROOT
ATOM      5  N   UNL     1      -5.231 -10.336  11.089  0.00  0.00    -0.296 NA
ATOM      9  C   UNL     1      -4.782  -8.792   9.039  0.00  0.00    +0.002 C 
ATOM     10  C   UNL     1      -5.591 -10.047   8.608  0.00  0.00    +0.055 C 
ATOM     11  C   UNL     1      -3.788  -9.980  11.027  0.00  0.00    +0.095 C 
ATOM     12  C   UNL     1      -3.465  -9.239   9.711  0.00  0.00    +0.026 C 
ATOM     13  C   UNL     1      -5.619  -8.072  10.118  0.00  0.00    +0.019 C 
ATOM     14  C   UNL     1      -5.643 -11.007   9.830  0.00  0.00    +0.094 C 
ATOM     15  C   UNL     1      -6.005  -9.078  11.216  0.00  0.00    +0.085 C 
ENDROOT
BRANCH  10  16
ATOM      6  N   UNL     1      -5.698 -10.452   6.105  0.00  0.00    -0.270 N 
ATOM      7  N   UNL     1      -5.205 -11.200   5.103  0.00  0.00    -0.171 NA
ATOM     16  C   UNL     1      -5.179 -10.762   7.329  0.00  0.00    +0.044 A 
ATOM     18  C   UNL     1      -4.287 -11.783   7.112  0.00  0.00    +0.053 A 
ATOM     19  C   UNL     1      -4.344 -12.011   5.724  0.00  0.00    +0.093 A 
ATOM     20  C   UNL     1      -6.684  -9.439   5.811  0.00  0.00    +0.172 C 
BRANCH  19  21
ATOM     21  C   UNL     1      -3.593 -12.989   4.980  0.00  0.00    +0.006 A 
ATOM     23  C   UNL     1      -3.589 -14.323   5.388  0.00  0.00    +0.059 A 
ATOM     24  C   UNL     1      -2.870 -12.602   3.852  0.00  0.00    +0.014 A 
ATOM     25  C   UNL     1      -2.862 -15.269   4.667  0.00  0.00    +0.162 A 
ATOM     26  C   UNL     1      -2.142 -13.549   3.131  0.00  0.00    +0.050 A 
ATOM     28  C   UNL     1      -2.139 -14.883   3.539  0.00  0.00    +0.162 A 
BRANCH  25   3
ATOM      3  O   UNL     1      -2.865 -16.570   5.076  0.00  0.00    -0.491 OA
ATOM     35  C   UNL     1      -3.248 -16.824   6.426  0.00  0.00    +0.277 C 
ENDBRANCH  25   3
BRANCH  28   4
ATOM      4  O   UNL     1      -1.423 -15.798   2.827  0.00  0.00    -0.491 OA
ATOM     36  C   UNL     1      -1.312 -15.582   1.421  0.00  0.00    +0.277 C 
ENDBRANCH  28   4
ENDBRANCH  19  21
ENDBRANCH  10  16
BRANCH  11  17
ATOM     17  C   UNL     1      -2.879 -11.192  11.237  0.00  0.00    +0.252 C 
BRANCH  17   1
ATOM      1  O   UNL     1      -2.379 -11.150  12.559  0.00  0.00    -0.449 OA
BRANCH   1  22
ATOM      2  O   UNL     1      -3.794 -12.642  13.560  0.00  0.00    -0.226 OA
ATOM      8  N   UNL     1      -3.342 -10.547  14.503  0.00  0.00    -0.251 N 
ATOM     22  C   UNL     1      -3.237 -11.551  13.559  0.00  0.00    +0.405 C 
ATOM     39  H   UNL     1      -2.797  -9.706  14.327  0.00  0.00    +0.158 HD
BRANCH   8  27
ATOM     27  C   UNL     1      -4.114 -10.543  15.687  0.00  0.00    +0.036 A 
ATOM     29  C   UNL     1      -3.593 -11.089  16.860  0.00  0.00    +0.024 A 
ATOM     30  C   UNL     1      -5.396  -9.994  15.682  0.00  0.00    +0.024 A 
ATOM     31  C   UNL     1      -5.637 -10.536  18.024  0.00  0.00    -0.045 A 
ATOM     32  C   UNL     1      -4.354 -11.085  18.029  0.00  0.00    +0.006 A 
ATOM     33  C   UNL     1      -6.157  -9.990  16.851  0.00  0.00    +0.006 A 
BRANCH  31  34
ATOM     34  C   UNL     1      -6.451 -10.531  19.273  0.00  0.00    +0.013 C 
ATOM     37  C   UNL     1      -5.931 -11.536  20.319  0.00  0.00    +0.012 C 
ATOM     38  C   UNL     1      -7.946 -10.785  19.003  0.00  0.00    +0.012 C 
ENDBRANCH  31  34
ENDBRANCH   8  27
ENDBRANCH   1  22
ENDBRANCH  17   1
ENDBRANCH  11  17
TORSDOF 9
ENDMDL
