MODEL 1
REMARK VINA RESULT:      -7.3      0.000      0.000
REMARK  Name = 7155616
REMARK  3 active torsions:
REMARK  status: ('A' for Active; 'I' for Inactive)
REMARK    1  A    between atoms: N_7  and  C_22
REMARK    2  A    between atoms: N_8  and  C_20
REMARK    3  A    between atoms: C_23  and  C_26
REMARK                            x       y       z     vdW  Elec       q    Type
REMARK                         _______ _______ _______ _____ _____    ______ ____
ROOT
ATOM      2  O   UNL     1      14.088   6.570   7.205  0.00  0.00    -0.266 OA
ATOM      3  O   UNL     1      10.168   4.022   4.872  0.00  0.00    -0.252 OA
ATOM      5  N   UNL     1       9.447   6.166   5.359  0.00  0.00    -0.284 N 
ATOM      6  N   UNL     1      12.034   7.528   6.637  0.00  0.00    -0.310 N 
ATOM      7  N   UNL     1      10.143   5.602   3.176  0.00  0.00    -0.269 N 
ATOM     10  C   UNL     1       9.830   6.835   7.737  0.00  0.00    +0.027 C 
ATOM     11  C   UNL     1       9.826   8.549   5.976  0.00  0.00    +0.054 C 
ATOM     12  C   UNL     1       9.377   8.251   7.404  0.00  0.00    +0.018 C 
ATOM     13  C   UNL     1       9.197   5.828   6.763  0.00  0.00    +0.114 C 
ATOM     14  C   UNL     1      11.362   6.781   7.707  0.00  0.00    +0.130 C 
ATOM     15  C   UNL     1       9.151   7.565   4.998  0.00  0.00    +0.119 C 
ATOM     16  C   UNL     1      11.335   8.444   5.845  0.00  0.00    +0.027 A 
ATOM     17  C   UNL     1      11.991   9.202   4.949  0.00  0.00    +0.024 A 
ATOM     18  C   UNL     1      13.428   7.351   6.519  0.00  0.00    +0.273 A 
ATOM     19  C   UNL     1       9.946   5.173   4.487  0.00  0.00    +0.306 C 
ATOM     20  C   UNL     1      14.116   8.195   5.492  0.00  0.00    +0.099 A 
ATOM     21  C   UNL     1      13.410   9.072   4.771  0.00  0.00    +0.030 A 
ATOM     34  H   UNL     1       9.565   6.358   2.825  0.00  0.00    +0.156 HD
ENDROOT
BRANCH   7  22
ATOM      1  F   UNL     1      13.663   3.488  -0.545  0.00  0.00    -0.205 F 
ATOM     22  C   UNL     1      11.043   5.062   2.224  0.00  0.00    +0.035 A 
ATOM     24  C   UNL     1      10.551   4.486   1.056  0.00  0.00    +0.026 A 
ATOM     25  C   UNL     1      12.413   5.109   2.464  0.00  0.00    +0.026 A 
ATOM     27  C   UNL     1      11.437   3.953   0.119  0.00  0.00    +0.040 A 
ATOM     28  C   UNL     1      13.299   4.577   1.527  0.00  0.00    +0.040 A 
ATOM     29  C   UNL     1      12.811   3.999   0.355  0.00  0.00    +0.124 A 
ENDBRANCH   7  22
BRANCH  20   8
ATOM      4  O   UNL     1      16.136   9.960   6.469  0.00  0.00    -0.270 OA
ATOM      8  N   UNL     1      15.463   8.042   5.337  0.00  0.00    -0.277 N 
ATOM     23  C   UNL     1      16.398   8.939   5.836  0.00  0.00    +0.248 C 
ATOM     35  H   UNL     1      15.743   7.306   4.698  0.00  0.00    +0.155 HD
BRANCH  23  26
ATOM      9  N   UNL     1      20.467   7.946   5.124  0.00  0.00    -0.263 NA
ATOM     26  C   UNL     1      17.821   8.592   5.587  0.00  0.00    +0.040 A 
ATOM     30  C   UNL     1      18.741   8.793   6.589  0.00  0.00    +0.033 A 
ATOM     31  C   UNL     1      18.176   8.078   4.363  0.00  0.00    +0.033 A 
ATOM     32  C   UNL     1      20.054   8.453   6.306  0.00  0.00    +0.111 A 
ATOM     33  C   UNL     1      19.515   7.772   4.180  0.00  0.00    +0.111 A 
ENDBRANCH  23  26
ENDBRANCH  20   8
TORSDOF 3
ENDMDL
MODEL 2
REMARK VINA RESULT:      -7.2     25.787     29.797
REMARK  Name = 7155616
REMARK  3 active torsions:
REMARK  status: ('A' for Active; 'I' for Inactive)
REMARK    1  A    between atoms: N_7  and  C_22
REMARK    2  A    between atoms: N_8  and  C_20
REMARK    3  A    between atoms: C_23  and  C_26
REMARK                            x       y       z     vdW  Elec       q    Type
REMARK                         _______ _______ _______ _____ _____    ______ ____
ROOT
ATOM      2  O   UNL     1      -7.587 -12.122  14.350  0.00  0.00    -0.266 OA
ATOM      3  O   UNL     1     -11.977 -11.000  16.951  0.00  0.00    -0.252 OA
ATOM      5  N   UNL     1     -10.290 -11.345  18.497  0.00  0.00    -0.284 N 
ATOM      6  N   UNL     1      -7.729 -11.873  16.669  0.00  0.00    -0.310 N 
ATOM      7  N   UNL     1     -10.947  -9.156  17.907  0.00  0.00    -0.269 N 
ATOM     10  C   UNL     1      -9.044 -13.486  18.158  0.00  0.00    +0.027 C 
ATOM     11  C   UNL     1      -7.900 -11.557  19.164  0.00  0.00    +0.054 C 
ATOM     12  C   UNL     1      -8.057 -13.073  19.242  0.00  0.00    +0.018 C 
ATOM     13  C   UNL     1     -10.403 -12.802  18.385  0.00  0.00    +0.114 C 
ATOM     14  C   UNL     1      -8.450 -13.146  16.786  0.00  0.00    +0.130 C 
ATOM     15  C   UNL     1      -9.257 -10.876  19.439  0.00  0.00    +0.119 C 
ATOM     16  C   UNL     1      -7.382 -11.131  17.802  0.00  0.00    +0.027 A 
ATOM     17  C   UNL     1      -6.621 -10.029  17.682  0.00  0.00    +0.024 A 
ATOM     18  C   UNL     1      -7.320 -11.493  15.374  0.00  0.00    +0.273 A 
ATOM     19  C   UNL     1     -11.136 -10.524  17.718  0.00  0.00    +0.306 C 
ATOM     20  C   UNL     1      -6.497 -10.245  15.281  0.00  0.00    +0.099 A 
ATOM     21  C   UNL     1      -6.173  -9.579  16.394  0.00  0.00    +0.030 A 
ATOM     34  H   UNL     1     -10.597  -8.839  18.805  0.00  0.00    +0.156 HD
ENDROOT
BRANCH   7  22
ATOM      1  F   UNL     1     -12.093  -5.087  14.325  0.00  0.00    -0.205 F 
ATOM     22  C   UNL     1     -11.240  -8.116  16.990  0.00  0.00    +0.035 A 
ATOM     24  C   UNL     1     -10.209  -7.330  16.484  0.00  0.00    +0.026 A 
ATOM     25  C   UNL     1     -12.557  -7.886  16.603  0.00  0.00    +0.026 A 
ATOM     27  C   UNL     1     -10.497  -6.304  15.583  0.00  0.00    +0.040 A 
ATOM     28  C   UNL     1     -12.846  -6.862  15.701  0.00  0.00    +0.040 A 
ATOM     29  C   UNL     1     -11.816  -6.071  15.192  0.00  0.00    +0.124 A 
ENDBRANCH   7  22
BRANCH  20   8
ATOM      4  O   UNL     1      -4.162 -11.122  13.893  0.00  0.00    -0.270 OA
ATOM      8  N   UNL     1      -6.094  -9.835  14.044  0.00  0.00    -0.277 N 
ATOM     23  C   UNL     1      -4.944 -10.300  13.420  0.00  0.00    +0.248 C 
ATOM     35  H   UNL     1      -6.608  -9.049  13.661  0.00  0.00    +0.155 HD
BRANCH  23  26
ATOM      9  N   UNL     1      -4.193  -8.741   9.540  0.00  0.00    -0.263 NA
ATOM     26  C   UNL     1      -4.682  -9.755  12.063  0.00  0.00    +0.040 A 
ATOM     30  C   UNL     1      -5.627  -8.950  11.474  0.00  0.00    +0.033 A 
ATOM     31  C   UNL     1      -3.499 -10.070  11.437  0.00  0.00    +0.033 A 
ATOM     32  C   UNL     1      -5.334  -8.467  10.209  0.00  0.00    +0.111 A 
ATOM     33  C   UNL     1      -3.302  -9.537  10.173  0.00  0.00    +0.111 A 
ENDBRANCH  23  26
ENDBRANCH  20   8
TORSDOF 3
ENDMDL
MODEL 3
REMARK VINA RESULT:      -7.1     25.385     29.378
REMARK  Name = 7155616
REMARK  3 active torsions:
REMARK  status: ('A' for Active; 'I' for Inactive)
REMARK    1  A    between atoms: N_7  and  C_22
REMARK    2  A    between atoms: N_8  and  C_20
REMARK    3  A    between atoms: C_23  and  C_26
REMARK                            x       y       z     vdW  Elec       q    Type
REMARK                         _______ _______ _______ _____ _____    ______ ____
ROOT
ATOM      2  O   UNL     1      -8.203  -8.426  17.034  0.00  0.00    -0.266 OA
ATOM      3  O   UNL     1      -3.311 -10.085  16.246  0.00  0.00    -0.252 OA
ATOM      5  N   UNL     1      -4.566 -11.873  17.009  0.00  0.00    -0.284 N 
ATOM      6  N   UNL     1      -7.497 -10.640  17.279  0.00  0.00    -0.310 N 
ATOM      7  N   UNL     1      -4.080 -11.644  14.711  0.00  0.00    -0.269 N 
ATOM     10  C   UNL     1      -5.851 -11.376  19.095  0.00  0.00    +0.027 C 
ATOM     11  C   UNL     1      -6.718 -13.028  17.496  0.00  0.00    +0.054 C 
ATOM     12  C   UNL     1      -6.543 -12.729  18.982  0.00  0.00    +0.018 C 
ATOM     13  C   UNL     1      -4.480 -11.418  18.399  0.00  0.00    +0.114 C 
ATOM     14  C   UNL     1      -6.765 -10.297  18.505  0.00  0.00    +0.130 C 
ATOM     15  C   UNL     1      -5.338 -13.114  16.813  0.00  0.00    +0.119 C 
ATOM     16  C   UNL     1      -7.557 -11.959  16.818  0.00  0.00    +0.027 A 
ATOM     17  C   UNL     1      -8.327 -12.271  15.761  0.00  0.00    +0.024 A 
ATOM     18  C   UNL     1      -8.212  -9.598  16.655  0.00  0.00    +0.273 A 
ATOM     19  C   UNL     1      -3.940 -11.117  15.994  0.00  0.00    +0.306 C 
ATOM     20  C   UNL     1      -9.036  -9.983  15.465  0.00  0.00    +0.099 A 
ATOM     21  C   UNL     1      -9.079 -11.260  15.073  0.00  0.00    +0.030 A 
ATOM     34  H   UNL     1      -4.200 -12.646  14.614  0.00  0.00    +0.156 HD
ENDROOT
BRANCH   7  22
ATOM      1  F   UNL     1      -3.863  -8.879   9.914  0.00  0.00    -0.205 F 
ATOM     22  C   UNL     1      -4.025 -10.937  13.484  0.00  0.00    +0.035 A 
ATOM     24  C   UNL     1      -2.832 -10.887  12.769  0.00  0.00    +0.026 A 
ATOM     25  C   UNL     1      -5.163 -10.297  13.003  0.00  0.00    +0.026 A 
ATOM     27  C   UNL     1      -2.776 -10.190  11.562  0.00  0.00    +0.040 A 
ATOM     28  C   UNL     1      -5.108  -9.601  11.795  0.00  0.00    +0.040 A 
ATOM     29  C   UNL     1      -3.915  -9.547  11.075  0.00  0.00    +0.124 A 
ENDBRANCH   7  22
BRANCH  20   8
ATOM      4  O   UNL     1     -11.703  -9.151  16.049  0.00  0.00    -0.270 OA
ATOM      8  N   UNL     1      -9.731  -9.000  14.824  0.00  0.00    -0.277 N 
ATOM     23  C   UNL     1     -11.031  -8.641  15.155  0.00  0.00    +0.248 C 
ATOM     35  H   UNL     1      -9.296  -8.642  13.981  0.00  0.00    +0.155 HD
BRANCH  23  26
ATOM      9  N   UNL     1     -12.705  -5.469  12.878  0.00  0.00    -0.263 NA
ATOM     26  C   UNL     1     -11.616  -7.532  14.359  0.00  0.00    +0.040 A 
ATOM     30  C   UNL     1     -12.175  -7.813  13.135  0.00  0.00    +0.033 A 
ATOM     31  C   UNL     1     -11.583  -6.256  14.870  0.00  0.00    +0.033 A 
ATOM     32  C   UNL     1     -12.707  -6.744  12.432  0.00  0.00    +0.111 A 
ATOM     33  C   UNL     1     -12.142  -5.257  14.089  0.00  0.00    +0.111 A 
ENDBRANCH  23  26
ENDBRANCH  20   8
TORSDOF 3
ENDMDL
MODEL 4
REMARK VINA RESULT:      -7.0      2.686      6.540
REMARK  Name = 7155616
REMARK  3 active torsions:
REMARK  status: ('A' for Active; 'I' for Inactive)
REMARK    1  A    between atoms: N_7  and  C_22
REMARK    2  A    between atoms: N_8  and  C_20
REMARK    3  A    between atoms: C_23  and  C_26
REMARK                            x       y       z     vdW  Elec       q    Type
REMARK                         _______ _______ _______ _____ _____    ______ ____
ROOT
ATOM      2  O   UNL     1       9.594   7.176   1.810  0.00  0.00    -0.266 OA
ATOM      3  O   UNL     1      11.959  10.063   5.468  0.00  0.00    -0.252 OA
ATOM      5  N   UNL     1      10.575   8.542   6.531  0.00  0.00    -0.284 N 
ATOM      6  N   UNL     1       9.373   6.843   4.112  0.00  0.00    -0.310 N 
ATOM      7  N   UNL     1      12.897   8.149   6.381  0.00  0.00    -0.269 N 
ATOM     10  C   UNL     1       8.234   8.538   5.654  0.00  0.00    +0.027 C 
ATOM     11  C   UNL     1       9.184   6.478   6.599  0.00  0.00    +0.054 C 
ATOM     12  C   UNL     1       7.919   7.328   6.525  0.00  0.00    +0.018 C 
ATOM     13  C   UNL     1       9.383   9.354   6.270  0.00  0.00    +0.114 C 
ATOM     14  C   UNL     1       8.561   8.060   4.235  0.00  0.00    +0.130 C 
ATOM     15  C   UNL     1      10.320   7.287   7.260  0.00  0.00    +0.119 C 
ATOM     16  C   UNL     1       9.618   6.023   5.218  0.00  0.00    +0.027 A 
ATOM     17  C   UNL     1      10.265   4.854   5.062  0.00  0.00    +0.024 A 
ATOM     18  C   UNL     1       9.801   6.495   2.815  0.00  0.00    +0.273 A 
ATOM     19  C   UNL     1      11.833   8.995   6.074  0.00  0.00    +0.306 C 
ATOM     20  C   UNL     1      10.540   5.199   2.689  0.00  0.00    +0.099 A 
ATOM     21  C   UNL     1      10.734   4.438   3.771  0.00  0.00    +0.030 A 
ATOM     34  H   UNL     1      12.824   7.564   7.206  0.00  0.00    +0.156 HD
ENDROOT
BRANCH   7  22
ATOM      1  F   UNL     1      17.718   7.711   3.684  0.00  0.00    -0.205 F 
ATOM     22  C   UNL     1      14.129   8.038   5.690  0.00  0.00    +0.035 A 
ATOM     24  C   UNL     1      14.191   7.329   4.494  0.00  0.00    +0.026 A 
ATOM     25  C   UNL     1      15.272   8.636   6.214  0.00  0.00    +0.026 A 
ATOM     27  C   UNL     1      15.404   7.217   3.815  0.00  0.00    +0.040 A 
ATOM     28  C   UNL     1      16.485   8.526   5.535  0.00  0.00    +0.040 A 
ATOM     29  C   UNL     1      16.552   7.816   4.336  0.00  0.00    +0.124 A 
ENDBRANCH   7  22
BRANCH  20   8
ATOM      4  O   UNL     1      13.260   5.146   1.825  0.00  0.00    -0.270 OA
ATOM      8  N   UNL     1      10.985   4.834   1.452  0.00  0.00    -0.277 N 
ATOM     23  C   UNL     1      12.326   4.830   1.092  0.00  0.00    +0.248 C 
ATOM     35  H   UNL     1      10.262   4.707   0.753  0.00  0.00    +0.155 HD
BRANCH  23  26
ATOM      9  N   UNL     1      13.167   3.541  -2.868  0.00  0.00    -0.263 NA
ATOM     26  C   UNL     1      12.620   4.379  -0.293  0.00  0.00    +0.040 A 
ATOM     30  C   UNL     1      13.795   4.774  -0.887  0.00  0.00    +0.033 A 
ATOM     31  C   UNL     1      11.709   3.579  -0.940  0.00  0.00    +0.033 A 
ATOM     32  C   UNL     1      14.022   4.327  -2.178  0.00  0.00    +0.111 A 
ATOM     33  C   UNL     1      12.029   3.186  -2.229  0.00  0.00    +0.111 A 
ENDBRANCH  23  26
ENDBRANCH  20   8
TORSDOF 3
ENDMDL
MODEL 5
REMARK VINA RESULT:      -6.6     25.183     27.617
REMARK  Name = 7155616
REMARK  3 active torsions:
REMARK  status: ('A' for Active; 'I' for Inactive)
REMARK    1  A    between atoms: N_7  and  C_22
REMARK    2  A    between atoms: N_8  and  C_20
REMARK    3  A    between atoms: C_23  and  C_26
REMARK                            x       y       z     vdW  Elec       q    Type
REMARK                         _______ _______ _______ _____ _____    ______ ____
ROOT
ATOM      2  O   UNL     1      -4.434 -12.895   9.703  0.00  0.00    -0.266 OA
ATOM      3  O   UNL     1      -5.995 -13.613  14.638  0.00  0.00    -0.252 OA
ATOM      5  N   UNL     1      -3.754 -13.034  14.666  0.00  0.00    -0.284 N 
ATOM      6  N   UNL     1      -3.097 -12.530  11.584  0.00  0.00    -0.310 N 
ATOM      7  N   UNL     1      -5.415 -11.426  15.145  0.00  0.00    -0.269 N 
ATOM     10  C   UNL     1      -2.343 -14.419  13.137  0.00  0.00    +0.027 C 
ATOM     11  C   UNL     1      -1.689 -12.103  13.631  0.00  0.00    +0.054 C 
ATOM     12  C   UNL     1      -1.152 -13.517  13.432  0.00  0.00    +0.018 C 
ATOM     13  C   UNL     1      -3.337 -14.392  14.310  0.00  0.00    +0.114 C 
ATOM     14  C   UNL     1      -2.993 -13.975  11.821  0.00  0.00    +0.130 C 
ATOM     15  C   UNL     1      -2.649 -12.073  14.839  0.00  0.00    +0.119 C 
ATOM     16  C   UNL     1      -2.415 -11.614  12.390  0.00  0.00    +0.027 A 
ATOM     17  C   UNL     1      -2.430 -10.304  12.087  0.00  0.00    +0.024 A 
ATOM     18  C   UNL     1      -3.831 -12.124  10.451  0.00  0.00    +0.273 A 
ATOM     19  C   UNL     1      -5.131 -12.746  14.800  0.00  0.00    +0.306 C 
ATOM     20  C   UNL     1      -3.844 -10.655  10.163  0.00  0.00    +0.099 A 
ATOM     21  C   UNL     1      -3.161  -9.819  10.950  0.00  0.00    +0.030 A 
ATOM     34  H   UNL     1      -4.721 -10.908  15.674  0.00  0.00    +0.156 HD
ENDROOT
BRANCH   7  22
ATOM      1  F   UNL     1     -10.085  -8.624  14.129  0.00  0.00    -0.205 F 
ATOM     22  C   UNL     1      -6.609 -10.710  14.885  0.00  0.00    +0.035 A 
ATOM     24  C   UNL     1      -6.967 -10.416  13.572  0.00  0.00    +0.026 A 
ATOM     25  C   UNL     1      -7.417 -10.304  15.944  0.00  0.00    +0.026 A 
ATOM     27  C   UNL     1      -8.142  -9.709  13.316  0.00  0.00    +0.040 A 
ATOM     28  C   UNL     1      -8.593  -9.599  15.688  0.00  0.00    +0.040 A 
ATOM     29  C   UNL     1      -8.955  -9.301  14.374  0.00  0.00    +0.124 A 
ENDBRANCH   7  22
BRANCH  20   8
ATOM      4  O   UNL     1      -6.540  -9.717  10.190  0.00  0.00    -0.270 OA
ATOM      8  N   UNL     1      -4.556 -10.221   9.083  0.00  0.00    -0.277 N 
ATOM     23  C   UNL     1      -5.869  -9.776   9.162  0.00  0.00    +0.248 C 
ATOM     35  H   UNL     1      -4.119 -10.384   8.183  0.00  0.00    +0.155 HD
BRANCH  23  26
ATOM      9  N   UNL     1      -7.596  -8.475   5.504  0.00  0.00    -0.263 NA
ATOM     26  C   UNL     1      -6.473  -9.321   7.883  0.00  0.00    +0.040 A 
ATOM     30  C   UNL     1      -6.034  -9.876   6.704  0.00  0.00    +0.033 A 
ATOM     31  C   UNL     1      -7.454  -8.359   7.915  0.00  0.00    +0.033 A 
ATOM     32  C   UNL     1      -6.629  -9.418   5.540  0.00  0.00    +0.111 A 
ATOM     33  C   UNL     1      -7.985  -7.969   6.696  0.00  0.00    +0.111 A 
ENDBRANCH  23  26
ENDBRANCH  20   8
TORSDOF 3
ENDMDL
MODEL 6
REMARK VINA RESULT:      -6.6     32.187     34.605
REMARK  Name = 7155616
REMARK  3 active torsions:
REMARK  status: ('A' for Active; 'I' for Inactive)
REMARK    1  A    between atoms: N_7  and  C_22
REMARK    2  A    between atoms: N_8  and  C_20
REMARK    3  A    between atoms: C_23  and  C_26
REMARK                            x       y       z     vdW  Elec       q    Type
REMARK                         _______ _______ _______ _____ _____    ______ ____
ROOT
ATOM      2  O   UNL     1       9.088 -11.040  31.884  0.00  0.00    -0.266 OA
ATOM      3  O   UNL     1       7.577 -10.077  36.793  0.00  0.00    -0.252 OA
ATOM      5  N   UNL     1       7.770  -8.054  35.686  0.00  0.00    -0.284 N 
ATOM      6  N   UNL     1       8.563  -8.922  32.720  0.00  0.00    -0.310 N 
ATOM      7  N   UNL     1       5.654  -9.049  36.005  0.00  0.00    -0.269 N 
ATOM     10  C   UNL     1       9.961  -7.757  34.519  0.00  0.00    +0.027 C 
ATOM     11  C   UNL     1       7.951  -6.654  33.634  0.00  0.00    +0.054 C 
ATOM     12  C   UNL     1       9.443  -6.468  33.892  0.00  0.00    +0.018 C 
ATOM     13  C   UNL     1       9.228  -8.040  35.840  0.00  0.00    +0.114 C 
ATOM     14  C   UNL     1       9.799  -8.902  33.512  0.00  0.00    +0.130 C 
ATOM     15  C   UNL     1       7.214  -6.892  34.969  0.00  0.00    +0.119 C 
ATOM     16  C   UNL     1       7.699  -7.823  32.698  0.00  0.00    +0.027 A 
ATOM     17  C   UNL     1       6.635  -7.816  31.877  0.00  0.00    +0.024 A 
ATOM     18  C   UNL     1       8.347 -10.056  31.911  0.00  0.00    +0.273 A 
ATOM     19  C   UNL     1       7.031  -9.141  36.203  0.00  0.00    +0.306 C 
ATOM     20  C   UNL     1       7.136 -10.019  31.031  0.00  0.00    +0.099 A 
ATOM     21  C   UNL     1       6.350  -8.938  31.029  0.00  0.00    +0.030 A 
ATOM     34  H   UNL     1       5.240  -8.126  35.932  0.00  0.00    +0.156 HD
ENDROOT
BRANCH   7  22
ATOM      1  F   UNL     1       2.015 -13.220  35.758  0.00  0.00    -0.205 F 
ATOM     22  C   UNL     1       4.724 -10.116  35.942  0.00  0.00    +0.035 A 
ATOM     24  C   UNL     1       4.597 -10.854  34.769  0.00  0.00    +0.026 A 
ATOM     25  C   UNL     1       3.942 -10.418  37.053  0.00  0.00    +0.026 A 
ATOM     27  C   UNL     1       3.680 -11.903  34.706  0.00  0.00    +0.040 A 
ATOM     28  C   UNL     1       3.027 -11.468  36.991  0.00  0.00    +0.040 A 
ATOM     29  C   UNL     1       2.895 -12.210  35.818  0.00  0.00    +0.124 A 
ENDBRANCH   7  22
BRANCH  20   8
ATOM      4  O   UNL     1       5.753 -12.388  31.821  0.00  0.00    -0.270 OA
ATOM      8  N   UNL     1       6.884 -11.105  30.244  0.00  0.00    -0.277 N 
ATOM     23  C   UNL     1       6.204 -12.231  30.689  0.00  0.00    +0.248 C 
ATOM     35  H   UNL     1       7.357 -11.108  29.347  0.00  0.00    +0.155 HD
BRANCH  23  26
ATOM      9  N   UNL     1       5.634 -15.299  27.805  0.00  0.00    -0.263 NA
ATOM     26  C   UNL     1       6.005 -13.304  29.680  0.00  0.00    +0.040 A 
ATOM     30  C   UNL     1       7.055 -13.657  28.867  0.00  0.00    +0.033 A 
ATOM     31  C   UNL     1       4.776 -13.913  29.591  0.00  0.00    +0.033 A 
ATOM     32  C   UNL     1       6.818 -14.663  27.944  0.00  0.00    +0.111 A 
ATOM     33  C   UNL     1       4.641 -14.906  28.635  0.00  0.00    +0.111 A 
ENDBRANCH  23  26
ENDBRANCH  20   8
TORSDOF 3
ENDMDL
MODEL 7
REMARK VINA RESULT:      -6.5     35.015     37.849
REMARK  Name = 7155616
REMARK  3 active torsions:
REMARK  status: ('A' for Active; 'I' for Inactive)
REMARK    1  A    between atoms: N_7  and  C_22
REMARK    2  A    between atoms: N_8  and  C_20
REMARK    3  A    between atoms: C_23  and  C_26
REMARK                            x       y       z     vdW  Elec       q    Type
REMARK                         _______ _______ _______ _____ _____    ______ ____
ROOT
ATOM      2  O   UNL     1      -1.145  10.417  40.500  0.00  0.00    -0.266 OA
ATOM      3  O   UNL     1      -4.190  13.076  37.189  0.00  0.00    -0.252 OA
ATOM      5  N   UNL     1      -2.190  12.614  36.119  0.00  0.00    -0.284 N 
ATOM      6  N   UNL     1      -0.592  10.895  38.281  0.00  0.00    -0.310 N 
ATOM      7  N   UNL     1      -4.110  11.311  35.689  0.00  0.00    -0.269 N 
ATOM     10  C   UNL     1      -0.173  13.276  37.439  0.00  0.00    +0.027 C 
ATOM     11  C   UNL     1      -0.037  11.388  35.872  0.00  0.00    +0.054 C 
ATOM     12  C   UNL     1       0.716  12.605  36.400  0.00  0.00    +0.018 C 
ATOM     13  C   UNL     1      -1.502  13.713  36.801  0.00  0.00    +0.114 C 
ATOM     14  C   UNL     1      -0.386  12.311  38.611  0.00  0.00    +0.130 C 
ATOM     15  C   UNL     1      -1.347  11.838  35.192  0.00  0.00    +0.119 C 
ATOM     16  C   UNL     1      -0.353  10.412  36.991  0.00  0.00    +0.027 A 
ATOM     17  C   UNL     1      -0.434   9.094  36.737  0.00  0.00    +0.024 A 
ATOM     18  C   UNL     1      -0.941  10.040  39.345  0.00  0.00    +0.273 A 
ATOM     19  C   UNL     1      -3.555  12.376  36.396  0.00  0.00    +0.306 C 
ATOM     20  C   UNL     1      -1.047   8.583  39.015  0.00  0.00    +0.099 A 
ATOM     21  C   UNL     1      -0.790   8.164  37.772  0.00  0.00    +0.030 A 
ATOM     34  H   UNL     1      -3.714  11.074  34.785  0.00  0.00    +0.156 HD
ENDROOT
BRANCH   7  22
ATOM      1  F   UNL     1      -8.478   8.233  37.155  0.00  0.00    -0.205 F 
ATOM     22  C   UNL     1      -5.227  10.523  36.063  0.00  0.00    +0.035 A 
ATOM     24  C   UNL     1      -6.417  10.626  35.348  0.00  0.00    +0.026 A 
ATOM     25  C   UNL     1      -5.128   9.653  37.145  0.00  0.00    +0.026 A 
ATOM     27  C   UNL     1      -7.517   9.852  35.717  0.00  0.00    +0.040 A 
ATOM     28  C   UNL     1      -6.227   8.878  37.514  0.00  0.00    +0.040 A 
ATOM     29  C   UNL     1      -7.422   8.978  36.801  0.00  0.00    +0.124 A 
ENDBRANCH   7  22
BRANCH  20   8
ATOM      4  O   UNL     1      -3.696   7.736  39.655  0.00  0.00    -0.270 OA
ATOM      8  N   UNL     1      -1.398   7.724  40.015  0.00  0.00    -0.277 N 
ATOM     23  C   UNL     1      -2.709   7.350  40.277  0.00  0.00    +0.248 C 
ATOM     35  H   UNL     1      -0.654   7.487  40.661  0.00  0.00    +0.155 HD
BRANCH  23  26
ATOM      9  N   UNL     1      -3.237   4.595  43.468  0.00  0.00    -0.263 NA
ATOM     26  C   UNL     1      -2.893   6.387  41.393  0.00  0.00    +0.040 A 
ATOM     30  C   UNL     1      -4.158   6.174  41.887  0.00  0.00    +0.033 A 
ATOM     31  C   UNL     1      -1.794   5.735  41.899  0.00  0.00    +0.033 A 
ATOM     32  C   UNL     1      -4.277   5.266  42.927  0.00  0.00    +0.111 A 
ATOM     33  C   UNL     1      -2.018   4.848  42.939  0.00  0.00    +0.111 A 
ENDBRANCH  23  26
ENDBRANCH  20   8
TORSDOF 3
ENDMDL
MODEL 8
REMARK VINA RESULT:      -6.5     34.425     36.481
REMARK  Name = 7155616
REMARK  3 active torsions:
REMARK  status: ('A' for Active; 'I' for Inactive)
REMARK    1  A    between atoms: N_7  and  C_22
REMARK    2  A    between atoms: N_8  and  C_20
REMARK    3  A    between atoms: C_23  and  C_26
REMARK                            x       y       z     vdW  Elec       q    Type
REMARK                         _______ _______ _______ _____ _____    ______ ____
ROOT
ATOM      2  O   UNL     1      -0.631  11.427  39.058  0.00  0.00    -0.266 OA
ATOM      3  O   UNL     1      -4.555  14.107  36.882  0.00  0.00    -0.252 OA
ATOM      5  N   UNL     1      -2.706  14.287  35.504  0.00  0.00    -0.284 N 
ATOM      6  N   UNL     1      -0.526  12.479  36.974  0.00  0.00    -0.310 N 
ATOM      7  N   UNL     1      -4.435  12.763  34.997  0.00  0.00    -0.269 N 
ATOM     10  C   UNL     1      -0.635  15.021  36.697  0.00  0.00    +0.027 C 
ATOM     11  C   UNL     1      -0.451  13.586  34.710  0.00  0.00    +0.054 C 
ATOM     12  C   UNL     1       0.172  14.780  35.428  0.00  0.00    +0.018 C 
ATOM     13  C   UNL     1      -2.102  15.322  36.348  0.00  0.00    +0.114 C 
ATOM     14  C   UNL     1      -0.500  13.800  37.614  0.00  0.00    +0.130 C 
ATOM     15  C   UNL     1      -1.909  13.912  34.321  0.00  0.00    +0.119 C 
ATOM     16  C   UNL     1      -0.422  12.346  35.586  0.00  0.00    +0.027 A 
ATOM     17  C   UNL     1      -0.331  11.126  35.028  0.00  0.00    +0.024 A 
ATOM     18  C   UNL     1      -0.558  11.360  37.830  0.00  0.00    +0.273 A 
ATOM     19  C   UNL     1      -3.952  13.734  35.872  0.00  0.00    +0.306 C 
ATOM     20  C   UNL     1      -0.480  10.019  37.168  0.00  0.00    +0.099 A 
ATOM     21  C   UNL     1      -0.362   9.941  35.838  0.00  0.00    +0.030 A 
ATOM     34  H   UNL     1      -4.156  12.813  34.023  0.00  0.00    +0.156 HD
ENDROOT
BRANCH   7  22
ATOM      1  F   UNL     1      -7.959   8.650  36.164  0.00  0.00    -0.205 F 
ATOM     22  C   UNL     1      -5.336  11.712  35.296  0.00  0.00    +0.035 A 
ATOM     24  C   UNL     1      -4.898  10.612  36.028  0.00  0.00    +0.026 A 
ATOM     25  C   UNL     1      -6.654  11.784  34.854  0.00  0.00    +0.026 A 
ATOM     27  C   UNL     1      -5.784   9.576  36.321  0.00  0.00    +0.040 A 
ATOM     28  C   UNL     1      -7.541  10.748  35.148  0.00  0.00    +0.040 A 
ATOM     29  C   UNL     1      -7.106   9.644  35.881  0.00  0.00    +0.124 A 
ENDBRANCH   7  22
BRANCH  20   8
ATOM      4  O   UNL     1      -2.681   8.221  37.430  0.00  0.00    -0.270 OA
ATOM      8  N   UNL     1      -0.524   8.910  37.961  0.00  0.00    -0.277 N 
ATOM     23  C   UNL     1      -1.628   8.073  38.046  0.00  0.00    +0.248 C 
ATOM     35  H   UNL     1       0.250   8.812  38.609  0.00  0.00    +0.155 HD
BRANCH  23  26
ATOM      9  N   UNL     1      -1.205   4.721  40.623  0.00  0.00    -0.263 NA
ATOM     26  C   UNL     1      -1.480   6.901  38.947  0.00  0.00    +0.040 A 
ATOM     30  C   UNL     1      -0.323   6.160  38.893  0.00  0.00    +0.033 A 
ATOM     31  C   UNL     1      -2.504   6.592  39.810  0.00  0.00    +0.033 A 
ATOM     32  C   UNL     1      -0.235   5.078  39.754  0.00  0.00    +0.111 A 
ATOM     33  C   UNL     1      -2.318   5.490  40.629  0.00  0.00    +0.111 A 
ENDBRANCH  23  26
ENDBRANCH  20   8
TORSDOF 3
ENDMDL
MODEL 9
REMARK VINA RESULT:      -6.5     25.179     28.637
REMARK  Name = 7155616
REMARK  3 active torsions:
REMARK  status: ('A' for Active; 'I' for Inactive)
REMARK    1  A    between atoms: N_7  and  C_22
REMARK    2  A    between atoms: N_8  and  C_20
REMARK    3  A    between atoms: C_23  and  C_26
REMARK                            x       y       z     vdW  Elec       q    Type
REMARK                         _______ _______ _______ _____ _____    ______ ____
ROOT
ATOM      2  O   UNL     1      -9.457  -4.833   8.853  0.00  0.00    -0.266 OA
ATOM      3  O   UNL     1     -12.448  -3.726  12.993  0.00  0.00    -0.252 OA
ATOM      5  N   UNL     1     -13.812  -4.553  11.316  0.00  0.00    -0.284 N 
ATOM      6  N   UNL     1     -11.750  -5.263   8.987  0.00  0.00    -0.310 N 
ATOM      7  N   UNL     1     -13.130  -5.939  13.099  0.00  0.00    -0.269 N 
ATOM     10  C   UNL     1     -13.503  -3.404   9.117  0.00  0.00    +0.027 C 
ATOM     11  C   UNL     1     -14.215  -5.755   9.173  0.00  0.00    +0.054 C 
ATOM     12  C   UNL     1     -14.431  -4.421   8.465  0.00  0.00    +0.018 C 
ATOM     13  C   UNL     1     -13.830  -3.267  10.614  0.00  0.00    +0.114 C 
ATOM     14  C   UNL     1     -12.050  -3.830   8.881  0.00  0.00    +0.130 C 
ATOM     15  C   UNL     1     -14.589  -5.623  10.664  0.00  0.00    +0.119 C 
ATOM     16  C   UNL     1     -12.773  -6.214   9.047  0.00  0.00    +0.027 A 
ATOM     17  C   UNL     1     -12.479  -7.526   9.027  0.00  0.00    +0.024 A 
ATOM     18  C   UNL     1     -10.390  -5.633   8.924  0.00  0.00    +0.273 A 
ATOM     19  C   UNL     1     -13.073  -4.676  12.513  0.00  0.00    +0.306 C 
ATOM     20  C   UNL     1     -10.105  -7.103   8.930  0.00  0.00    +0.099 A 
ATOM     21  C   UNL     1     -11.117  -7.975   8.968  0.00  0.00    +0.030 A 
ATOM     34  H   UNL     1     -13.953  -6.509  12.936  0.00  0.00    +0.156 HD
ENDROOT
BRANCH   7  22
ATOM      1  F   UNL     1      -9.386  -8.235  16.478  0.00  0.00    -0.205 F 
ATOM     22  C   UNL     1     -12.173  -6.527  13.964  0.00  0.00    +0.035 A 
ATOM     24  C   UNL     1     -11.677  -5.800  15.043  0.00  0.00    +0.026 A 
ATOM     25  C   UNL     1     -11.733  -7.826  13.728  0.00  0.00    +0.026 A 
ATOM     27  C   UNL     1     -10.734  -6.377  15.893  0.00  0.00    +0.040 A 
ATOM     28  C   UNL     1     -10.791  -8.404  14.579  0.00  0.00    +0.040 A 
ATOM     29  C   UNL     1     -10.291  -7.680  15.661  0.00  0.00    +0.124 A 
ENDBRANCH   7  22
BRANCH  20   8
ATOM      4  O   UNL     1      -8.885  -9.066  10.604  0.00  0.00    -0.270 OA
ATOM      8  N   UNL     1      -8.801  -7.501   8.886  0.00  0.00    -0.277 N 
ATOM     23  C   UNL     1      -8.266  -8.464   9.730  0.00  0.00    +0.248 C 
ATOM     35  H   UNL     1      -8.198  -6.940   8.294  0.00  0.00    +0.155 HD
BRANCH  23  26
ATOM      9  N   UNL     1      -4.161  -9.376   9.121  0.00  0.00    -0.263 NA
ATOM     26  C   UNL     1      -6.830  -8.782   9.517  0.00  0.00    +0.040 A 
ATOM     30  C   UNL     1      -5.936  -8.539  10.532  0.00  0.00    +0.033 A 
ATOM     31  C   UNL     1      -6.438  -9.313   8.311  0.00  0.00    +0.033 A 
ATOM     32  C   UNL     1      -4.610  -8.854  10.283  0.00  0.00    +0.111 A 
ATOM     33  C   UNL     1      -5.089  -9.592   8.162  0.00  0.00    +0.111 A 
ENDBRANCH  23  26
ENDBRANCH  20   8
TORSDOF 3
ENDMDL
MODEL 10
REMARK VINA RESULT:      -6.5     33.305     36.677
REMARK  Name = 7155616
REMARK  3 active torsions:
REMARK  status: ('A' for Active; 'I' for Inactive)
REMARK    1  A    between atoms: N_7  and  C_22
REMARK    2  A    between atoms: N_8  and  C_20
REMARK    3  A    between atoms: C_23  and  C_26
REMARK                            x       y       z     vdW  Elec       q    Type
REMARK                         _______ _______ _______ _____ _____    ______ ____
ROOT
ATOM      2  O   UNL     1      -4.068  11.952  38.814  0.00  0.00    -0.266 OA
ATOM      3  O   UNL     1      -2.695  15.085  34.864  0.00  0.00    -0.252 OA
ATOM      5  N   UNL     1      -0.961  13.601  35.246  0.00  0.00    -0.284 N 
ATOM      6  N   UNL     1      -2.094  11.745  37.581  0.00  0.00    -0.310 N 
ATOM      7  N   UNL     1      -2.476  13.243  33.472  0.00  0.00    -0.269 N 
ATOM     10  C   UNL     1      -0.235  13.503  37.636  0.00  0.00    +0.027 C 
ATOM     11  C   UNL     1       0.007  11.518  36.208  0.00  0.00    +0.054 C 
ATOM     12  C   UNL     1       0.688  12.338  37.300  0.00  0.00    +0.018 C 
ATOM     13  C   UNL     1      -0.472  14.373  36.390  0.00  0.00    +0.114 C 
ATOM     14  C   UNL     1      -1.545  12.951  38.211  0.00  0.00    +0.130 C 
ATOM     15  C   UNL     1      -0.185  12.384  34.945  0.00  0.00    +0.119 C 
ATOM     16  C   UNL     1      -1.338  10.993  36.676  0.00  0.00    +0.027 A 
ATOM     17  C   UNL     1      -1.815   9.830  36.199  0.00  0.00    +0.024 A 
ATOM     18  C   UNL     1      -3.373  11.332  38.008  0.00  0.00    +0.273 A 
ATOM     19  C   UNL     1      -2.102  14.050  34.545  0.00  0.00    +0.306 C 
ATOM     20  C   UNL     1      -3.878  10.045  37.433  0.00  0.00    +0.099 A 
ATOM     21  C   UNL     1      -3.112   9.350  36.587  0.00  0.00    +0.030 A 
ATOM     34  H   UNL     1      -1.757  12.704  33.002  0.00  0.00    +0.156 HD
ENDROOT
BRANCH   7  22
ATOM      1  F   UNL     1      -7.529  12.745  31.253  0.00  0.00    -0.205 F 
ATOM     22  C   UNL     1      -3.768  13.117  32.905  0.00  0.00    +0.035 A 
ATOM     24  C   UNL     1      -4.772  12.458  33.611  0.00  0.00    +0.026 A 
ATOM     25  C   UNL     1      -4.026  13.650  31.645  0.00  0.00    +0.026 A 
ATOM     27  C   UNL     1      -6.043  12.331  33.052  0.00  0.00    +0.040 A 
ATOM     28  C   UNL     1      -5.298  13.524  31.087  0.00  0.00    +0.040 A 
ATOM     29  C   UNL     1      -6.307  12.865  31.789  0.00  0.00    +0.124 A 
ENDBRANCH   7  22
BRANCH  20   8
ATOM      4  O   UNL     1      -6.217  10.011  35.798  0.00  0.00    -0.270 OA
ATOM      8  N   UNL     1      -5.118   9.620  37.810  0.00  0.00    -0.277 N 
ATOM     23  C   UNL     1      -6.220   9.628  36.966  0.00  0.00    +0.248 C 
ATOM     35  H   UNL     1      -5.228   9.434  38.801  0.00  0.00    +0.155 HD
BRANCH  23  26
ATOM      9  N   UNL     1      -9.832   8.132  38.630  0.00  0.00    -0.263 NA
ATOM     26  C   UNL     1      -7.483   9.105  37.548  0.00  0.00    +0.040 A 
ATOM     30  C   UNL     1      -7.766   9.364  38.868  0.00  0.00    +0.033 A 
ATOM     31  C   UNL     1      -8.332   8.377  36.749  0.00  0.00    +0.033 A 
ATOM     32  C   UNL     1      -8.956   8.855  39.362  0.00  0.00    +0.111 A 
ATOM     33  C   UNL     1      -9.496   7.911  37.338  0.00  0.00    +0.111 A 
ENDBRANCH  23  26
ENDBRANCH  20   8
TORSDOF 3
ENDMDL
