MODEL 1
REMARK VINA RESULT:      -5.8      0.000      0.000
REMARK  Name = 75537118
REMARK  4 active torsions:
REMARK  status: ('A' for Active; 'I' for Inactive)
REMARK    1  A    between atoms: N_3  and  C_12
REMARK    2  A    between atoms: N_4  and  C_13
REMARK    3  A    between atoms: C_12  and  C_14
REMARK    4  A    between atoms: C_16  and  C_19
REMARK                            x       y       z     vdW  Elec       q    Type
REMARK                         _______ _______ _______ _____ _____    ______ ____
ROOT
ATOM      1  O   UNL     1      10.875  11.143  25.277  0.00  0.00    -0.252 OA
ATOM      2  N   UNL     1      11.177  10.544  23.026  0.00  0.00    -0.278 N 
ATOM      3  N   UNL     1      11.900   8.987  20.798  0.00  0.00    -0.293 NA
ATOM      4  N   UNL     1      11.759  12.619  23.663  0.00  0.00    -0.287 N 
ATOM      6  C   UNL     1      11.554  11.210  21.797  0.00  0.00    +0.109 C 
ATOM      7  C   UNL     1      12.496  10.326  20.980  0.00  0.00    +0.109 C 
ATOM      8  C   UNL     1      12.161  12.529  22.269  0.00  0.00    +0.132 C 
ATOM      9  C   UNL     1      10.717   9.173  22.977  0.00  0.00    +0.125 C 
ATOM     10  C   UNL     1      11.655   8.338  22.102  0.00  0.00    +0.104 C 
ATOM     11  C   UNL     1      11.221  11.403  24.132  0.00  0.00    +0.305 C 
ATOM     13  C   UNL     1      12.040  13.786  24.469  0.00  0.00    +0.133 C 
ENDROOT
BRANCH   3  12
ATOM     12  C   UNL     1      12.766   8.151  19.967  0.00  0.00    +0.140 C 
BRANCH  12  14
ATOM      5  N   UNL     1      11.800   8.629  17.786  0.00  0.00    -0.255 NA
ATOM     14  C   UNL     1      12.899   8.698  18.570  0.00  0.00    +0.056 A 
ATOM     15  C   UNL     1      14.110   9.234  18.162  0.00  0.00    +0.024 A 
ATOM     16  C   UNL     1      11.925   9.122  16.533  0.00  0.00    +0.039 A 
ATOM     17  C   UNL     1      14.198   9.731  16.867  0.00  0.00    +0.004 A 
ATOM     18  C   UNL     1      13.089   9.678  16.031  0.00  0.00    +0.023 A 
ATOM     19  C   UNL     1      10.714   9.049  15.663  0.00  0.00    +0.065 C 
ENDBRANCH  12  14
ENDBRANCH   3  12
TORSDOF 2
ENDMDL
MODEL 2
REMARK VINA RESULT:      -5.7     28.970     30.572
REMARK  Name = 75537118
REMARK  4 active torsions:
REMARK  status: ('A' for Active; 'I' for Inactive)
REMARK    1  A    between atoms: N_3  and  C_12
REMARK    2  A    between atoms: N_4  and  C_13
REMARK    3  A    between atoms: C_12  and  C_14
REMARK    4  A    between atoms: C_16  and  C_19
REMARK                            x       y       z     vdW  Elec       q    Type
REMARK                         _______ _______ _______ _____ _____    ______ ____
ROOT
ATOM      1  O   UNL     1     -17.863   2.777  22.023  0.00  0.00    -0.252 OA
ATOM      2  N   UNL     1     -17.000   2.237  24.140  0.00  0.00    -0.278 N 
ATOM      3  N   UNL     1     -16.968   1.418  26.831  0.00  0.00    -0.293 NA
ATOM      4  N   UNL     1     -16.243   4.092  23.124  0.00  0.00    -0.287 N 
ATOM      6  C   UNL     1     -15.951   2.726  25.010  0.00  0.00    +0.109 C 
ATOM      7  C   UNL     1     -16.428   2.743  26.462  0.00  0.00    +0.109 C 
ATOM      8  C   UNL     1     -15.609   4.097  24.431  0.00  0.00    +0.132 C 
ATOM      9  C   UNL     1     -17.700   1.018  24.488  0.00  0.00    +0.125 C 
ATOM     10  C   UNL     1     -18.106   1.053  25.964  0.00  0.00    +0.104 C 
ATOM     11  C   UNL     1     -17.126   3.003  22.973  0.00  0.00    +0.305 C 
ATOM     13  C   UNL     1     -16.073   5.178  22.184  0.00  0.00    +0.133 C 
ENDROOT
BRANCH   3  12
ATOM     12  C   UNL     1     -17.373   1.406  28.236  0.00  0.00    +0.140 C 
BRANCH  12  14
ATOM      5  N   UNL     1     -15.341   0.249  28.909  0.00  0.00    -0.255 NA
ATOM     14  C   UNL     1     -16.190   1.271  29.158  0.00  0.00    +0.056 A 
ATOM     15  C   UNL     1     -16.028   2.178  30.193  0.00  0.00    +0.024 A 
ATOM     16  C   UNL     1     -14.280   0.133  29.739  0.00  0.00    +0.039 A 
ATOM     17  C   UNL     1     -14.925   2.026  31.025  0.00  0.00    +0.004 A 
ATOM     18  C   UNL     1     -14.030   0.987  30.800  0.00  0.00    +0.023 A 
ATOM     19  C   UNL     1     -13.340  -0.994  29.468  0.00  0.00    +0.065 C 
ENDBRANCH  12  14
ENDBRANCH   3  12
TORSDOF 2
ENDMDL
MODEL 3
REMARK VINA RESULT:      -5.6      1.687      2.571
REMARK  Name = 75537118
REMARK  4 active torsions:
REMARK  status: ('A' for Active; 'I' for Inactive)
REMARK    1  A    between atoms: N_3  and  C_12
REMARK    2  A    between atoms: N_4  and  C_13
REMARK    3  A    between atoms: C_12  and  C_14
REMARK    4  A    between atoms: C_16  and  C_19
REMARK                            x       y       z     vdW  Elec       q    Type
REMARK                         _______ _______ _______ _____ _____    ______ ____
ROOT
ATOM      1  O   UNL     1      11.862  14.811  23.343  0.00  0.00    -0.252 OA
ATOM      2  N   UNL     1      11.913  12.469  23.172  0.00  0.00    -0.278 N 
ATOM      3  N   UNL     1      11.559   9.909  22.061  0.00  0.00    -0.293 NA
ATOM      4  N   UNL     1      11.208  13.381  25.101  0.00  0.00    -0.287 N 
ATOM      6  C   UNL     1      11.714  11.340  24.057  0.00  0.00    +0.109 C 
ATOM      7  C   UNL     1      10.920  10.242  23.351  0.00  0.00    +0.109 C 
ATOM      8  C   UNL     1      11.022  11.950  25.274  0.00  0.00    +0.132 C 
ATOM      9  C   UNL     1      12.397  12.238  21.828  0.00  0.00    +0.125 C 
ATOM     10  C   UNL     1      11.614  11.093  21.180  0.00  0.00    +0.104 C 
ATOM     11  C   UNL     1      11.688  13.695  23.813  0.00  0.00    +0.305 C 
ATOM     13  C   UNL     1      10.790  14.335  26.104  0.00  0.00    +0.133 C 
ENDROOT
BRANCH   3  12
ATOM     12  C   UNL     1      10.841   8.818  21.403  0.00  0.00    +0.140 C 
BRANCH  12  14
ATOM      5  N   UNL     1      10.804   8.656  18.976  0.00  0.00    -0.255 NA
ATOM     14  C   UNL     1      11.499   8.413  20.110  0.00  0.00    +0.056 A 
ATOM     15  C   UNL     1      12.754   7.828  20.141  0.00  0.00    +0.024 A 
ATOM     16  C   UNL     1      11.400   8.291  17.818  0.00  0.00    +0.039 A 
ATOM     17  C   UNL     1      13.334   7.468  18.930  0.00  0.00    +0.004 A 
ATOM     18  C   UNL     1      12.650   7.701  17.742  0.00  0.00    +0.023 A 
ATOM     19  C   UNL     1      10.638   8.557  16.562  0.00  0.00    +0.065 C 
ENDBRANCH  12  14
ENDBRANCH   3  12
TORSDOF 2
ENDMDL
MODEL 4
REMARK VINA RESULT:      -5.5     26.198     27.880
REMARK  Name = 75537118
REMARK  4 active torsions:
REMARK  status: ('A' for Active; 'I' for Inactive)
REMARK    1  A    between atoms: N_3  and  C_12
REMARK    2  A    between atoms: N_4  and  C_13
REMARK    3  A    between atoms: C_12  and  C_14
REMARK    4  A    between atoms: C_16  and  C_19
REMARK                            x       y       z     vdW  Elec       q    Type
REMARK                         _______ _______ _______ _____ _____    ______ ____
ROOT
ATOM      1  O   UNL     1      -9.950  -9.470  17.880  0.00  0.00    -0.252 OA
ATOM      2  N   UNL     1      -7.751 -10.295  17.884  0.00  0.00    -0.278 N 
ATOM      3  N   UNL     1      -5.310 -11.265  16.878  0.00  0.00    -0.293 NA
ATOM      4  N   UNL     1      -9.209 -11.144  19.368  0.00  0.00    -0.287 N 
ATOM      6  C   UNL     1      -6.958 -11.185  18.705  0.00  0.00    +0.109 C 
ATOM      7  C   UNL     1      -6.088 -12.086  17.828  0.00  0.00    +0.109 C 
ATOM      8  C   UNL     1      -7.995 -11.921  19.550  0.00  0.00    +0.132 C 
ATOM      9  C   UNL     1      -7.110  -9.551  16.821  0.00  0.00    +0.125 C 
ATOM     10  C   UNL     1      -6.204 -10.478  16.006  0.00  0.00    +0.104 C 
ATOM     11  C   UNL     1      -9.079 -10.205  18.324  0.00  0.00    +0.305 C 
ATOM     13  C   UNL     1     -10.426 -11.440  20.092  0.00  0.00    +0.133 C 
ENDROOT
BRANCH   3  12
ATOM     12  C   UNL     1      -4.429 -12.113  16.074  0.00  0.00    +0.140 C 
BRANCH  12  14
ATOM      5  N   UNL     1      -3.228 -11.257  14.140  0.00  0.00    -0.255 NA
ATOM     14  C   UNL     1      -3.283 -11.332  15.489  0.00  0.00    +0.056 A 
ATOM     15  C   UNL     1      -2.360 -10.740  16.336  0.00  0.00    +0.024 A 
ATOM     16  C   UNL     1      -2.197 -10.554  13.619  0.00  0.00    +0.039 A 
ATOM     17  C   UNL     1      -1.315 -10.026  15.763  0.00  0.00    +0.004 A 
ATOM     18  C   UNL     1      -1.224  -9.926  14.379  0.00  0.00    +0.023 A 
ATOM     19  C   UNL     1      -2.132 -10.468  12.130  0.00  0.00    +0.065 C 
ENDBRANCH  12  14
ENDBRANCH   3  12
TORSDOF 2
ENDMDL
MODEL 5
REMARK VINA RESULT:      -5.5     26.142     27.178
REMARK  Name = 75537118
REMARK  4 active torsions:
REMARK  status: ('A' for Active; 'I' for Inactive)
REMARK    1  A    between atoms: N_3  and  C_12
REMARK    2  A    between atoms: N_4  and  C_13
REMARK    3  A    between atoms: C_12  and  C_14
REMARK    4  A    between atoms: C_16  and  C_19
REMARK                            x       y       z     vdW  Elec       q    Type
REMARK                         _______ _______ _______ _____ _____    ______ ____
ROOT
ATOM      1  O   UNL     1      -7.897 -10.317  18.140  0.00  0.00    -0.252 OA
ATOM      2  N   UNL     1      -6.031 -10.333  16.714  0.00  0.00    -0.278 N 
ATOM      3  N   UNL     1      -4.502 -10.785  14.397  0.00  0.00    -0.293 NA
ATOM      4  N   UNL     1      -5.742 -10.959  18.852  0.00  0.00    -0.287 N 
ATOM      6  C   UNL     1      -4.603 -10.535  16.843  0.00  0.00    +0.109 C 
ATOM      7  C   UNL     1      -4.077 -11.378  15.681  0.00  0.00    +0.109 C 
ATOM      8  C   UNL     1      -4.451 -11.177  18.221  0.00  0.00    +0.132 C 
ATOM      9  C   UNL     1      -6.572  -9.893  15.445  0.00  0.00    +0.125 C 
ATOM     10  C   UNL     1      -5.974 -10.723  14.306  0.00  0.00    +0.104 C 
ATOM     11  C   UNL     1      -6.707 -10.507  17.929  0.00  0.00    +0.305 C 
ATOM     13  C   UNL     1      -5.993 -11.323  20.229  0.00  0.00    +0.133 C 
ENDROOT
BRANCH   3  12
ATOM     12  C   UNL     1      -3.953 -11.549  13.276  0.00  0.00    +0.140 C 
BRANCH  12  14
ATOM      5  N   UNL     1      -4.000 -10.194  11.256  0.00  0.00    -0.255 NA
ATOM     14  C   UNL     1      -3.253 -10.661  12.282  0.00  0.00    +0.056 A 
ATOM     15  C   UNL     1      -1.911 -10.369  12.459  0.00  0.00    +0.024 A 
ATOM     16  C   UNL     1      -3.367  -9.396  10.367  0.00  0.00    +0.039 A 
ATOM     17  C   UNL     1      -1.295  -9.546  11.524  0.00  0.00    +0.004 A 
ATOM     18  C   UNL     1      -2.030  -9.046  10.455  0.00  0.00    +0.023 A 
ATOM     19  C   UNL     1      -4.187  -8.878   9.233  0.00  0.00    +0.065 C 
ENDBRANCH  12  14
ENDBRANCH   3  12
TORSDOF 2
ENDMDL
MODEL 6
REMARK VINA RESULT:      -5.3      1.643      2.474
REMARK  Name = 75537118
REMARK  4 active torsions:
REMARK  status: ('A' for Active; 'I' for Inactive)
REMARK    1  A    between atoms: N_3  and  C_12
REMARK    2  A    between atoms: N_4  and  C_13
REMARK    3  A    between atoms: C_12  and  C_14
REMARK    4  A    between atoms: C_16  and  C_19
REMARK                            x       y       z     vdW  Elec       q    Type
REMARK                         _______ _______ _______ _____ _____    ______ ____
ROOT
ATOM      1  O   UNL     1      10.873  10.999  25.462  0.00  0.00    -0.252 OA
ATOM      2  N   UNL     1      11.259  11.362  23.173  0.00  0.00    -0.278 N 
ATOM      3  N   UNL     1      12.499  11.162  20.656  0.00  0.00    -0.293 NA
ATOM      4  N   UNL     1      10.745  13.130  24.460  0.00  0.00    -0.287 N 
ATOM      6  C   UNL     1      11.143  12.466  22.244  0.00  0.00    +0.109 C 
ATOM      7  C   UNL     1      12.336  12.487  21.289  0.00  0.00    +0.109 C 
ATOM      8  C   UNL     1      11.023  13.691  23.148  0.00  0.00    +0.132 C 
ATOM      9  C   UNL     1      11.565  10.040  22.669  0.00  0.00    +0.125 C 
ATOM     10  C   UNL     1      12.726  10.116  21.673  0.00  0.00    +0.104 C 
ATOM     11  C   UNL     1      10.945  11.735  24.487  0.00  0.00    +0.305 C 
ATOM     13  C   UNL     1      10.450  13.965  25.603  0.00  0.00    +0.133 C 
ENDROOT
BRANCH   3  12
ATOM     12  C   UNL     1      13.602  11.188  19.696  0.00  0.00    +0.140 C 
BRANCH  12  14
ATOM      5  N   UNL     1      14.576   8.993  19.309  0.00  0.00    -0.255 NA
ATOM     14  C   UNL     1      13.678   9.915  18.896  0.00  0.00    +0.056 A 
ATOM     15  C   UNL     1      12.844   9.748  17.802  0.00  0.00    +0.024 A 
ATOM     16  C   UNL     1      14.639   7.850  18.588  0.00  0.00    +0.039 A 
ATOM     17  C   UNL     1      12.938   8.560  17.086  0.00  0.00    +0.004 A 
ATOM     18  C   UNL     1      13.851   7.589  17.480  0.00  0.00    +0.023 A 
ATOM     19  C   UNL     1      15.630   6.830  19.040  0.00  0.00    +0.065 C 
ENDBRANCH  12  14
ENDBRANCH   3  12
TORSDOF 2
ENDMDL
MODEL 7
REMARK VINA RESULT:      -5.3     27.388     29.213
REMARK  Name = 75537118
REMARK  4 active torsions:
REMARK  status: ('A' for Active; 'I' for Inactive)
REMARK    1  A    between atoms: N_3  and  C_12
REMARK    2  A    between atoms: N_4  and  C_13
REMARK    3  A    between atoms: C_12  and  C_14
REMARK    4  A    between atoms: C_16  and  C_19
REMARK                            x       y       z     vdW  Elec       q    Type
REMARK                         _______ _______ _______ _____ _____    ______ ____
ROOT
ATOM      1  O   UNL     1     -12.408  -8.124  13.241  0.00  0.00    -0.252 OA
ATOM      2  N   UNL     1     -10.708  -8.311  14.851  0.00  0.00    -0.278 N 
ATOM      3  N   UNL     1      -9.157  -9.431  16.914  0.00  0.00    -0.293 NA
ATOM      4  N   UNL     1     -11.810  -6.360  14.689  0.00  0.00    -0.287 N 
ATOM      6  C   UNL     1     -10.024  -7.429  15.773  0.00  0.00    +0.109 C 
ATOM      7  C   UNL     1      -9.814  -8.124  17.119  0.00  0.00    +0.109 C 
ATOM      8  C   UNL     1     -10.917  -6.192  15.823  0.00  0.00    +0.132 C 
ATOM      9  C   UNL     1     -10.234  -9.669  14.685  0.00  0.00    +0.125 C 
ATOM     10  C   UNL     1      -9.981 -10.305  16.054  0.00  0.00    +0.104 C 
ATOM     11  C   UNL     1     -11.724  -7.658  14.143  0.00  0.00    +0.305 C 
ATOM     13  C   UNL     1     -12.761  -5.341  14.303  0.00  0.00    +0.133 C 
ENDROOT
BRANCH   3  12
ATOM     12  C   UNL     1      -8.897 -10.079  18.200  0.00  0.00    +0.140 C 
BRANCH  12  14
ATOM      5  N   UNL     1      -6.649 -10.235  17.285  0.00  0.00    -0.255 NA
ATOM     14  C   UNL     1      -7.451 -10.469  18.348  0.00  0.00    +0.056 A 
ATOM     15  C   UNL     1      -7.018 -11.034  19.536  0.00  0.00    +0.024 A 
ATOM     16  C   UNL     1      -5.350 -10.586  17.424  0.00  0.00    +0.039 A 
ATOM     17  C   UNL     1      -5.676 -11.382  19.641  0.00  0.00    +0.004 A 
ATOM     18  C   UNL     1      -4.820 -11.157  18.569  0.00  0.00    +0.023 A 
ATOM     19  C   UNL     1      -4.460 -10.330  16.254  0.00  0.00    +0.065 C 
ENDBRANCH  12  14
ENDBRANCH   3  12
TORSDOF 2
ENDMDL
MODEL 8
REMARK VINA RESULT:      -5.2     26.536     27.855
REMARK  Name = 75537118
REMARK  4 active torsions:
REMARK  status: ('A' for Active; 'I' for Inactive)
REMARK    1  A    between atoms: N_3  and  C_12
REMARK    2  A    between atoms: N_4  and  C_13
REMARK    3  A    between atoms: C_12  and  C_14
REMARK    4  A    between atoms: C_16  and  C_19
REMARK                            x       y       z     vdW  Elec       q    Type
REMARK                         _______ _______ _______ _____ _____    ______ ____
ROOT
ATOM      1  O   UNL     1      -8.264 -11.106  19.948  0.00  0.00    -0.252 OA
ATOM      2  N   UNL     1      -6.762 -11.274  18.150  0.00  0.00    -0.278 N 
ATOM      3  N   UNL     1      -4.315 -11.255  16.762  0.00  0.00    -0.293 NA
ATOM      4  N   UNL     1      -8.677 -10.142  17.835  0.00  0.00    -0.287 N 
ATOM      6  C   UNL     1      -6.755 -10.931  16.743  0.00  0.00    +0.109 C 
ATOM      7  C   UNL     1      -5.401 -10.345  16.344  0.00  0.00    +0.109 C 
ATOM      8  C   UNL     1      -7.936  -9.974  16.597  0.00  0.00    +0.132 C 
ATOM      9  C   UNL     1      -5.664 -12.041  18.697  0.00  0.00    +0.125 C 
ATOM     10  C   UNL     1      -4.330 -11.456  18.225  0.00  0.00    +0.104 C 
ATOM     11  C   UNL     1      -7.943 -10.875  18.790  0.00  0.00    +0.305 C 
ATOM     13  C   UNL     1      -9.946  -9.487  18.065  0.00  0.00    +0.133 C 
ENDROOT
BRANCH   3  12
ATOM     12  C   UNL     1      -3.018 -10.733  16.333  0.00  0.00    +0.140 C 
BRANCH  12  14
ATOM      5  N   UNL     1      -2.461 -12.591  14.864  0.00  0.00    -0.255 NA
ATOM     14  C   UNL     1      -2.627 -11.253  14.975  0.00  0.00    +0.056 A 
ATOM     15  C   UNL     1      -2.460 -10.362  13.928  0.00  0.00    +0.024 A 
ATOM     16  C   UNL     1      -2.110 -13.053  13.642  0.00  0.00    +0.039 A 
ATOM     17  C   UNL     1      -2.100 -10.875  12.687  0.00  0.00    +0.004 A 
ATOM     18  C   UNL     1      -1.920 -12.245  12.534  0.00  0.00    +0.023 A 
ATOM     19  C   UNL     1      -1.926 -14.528  13.514  0.00  0.00    +0.065 C 
ENDBRANCH  12  14
ENDBRANCH   3  12
TORSDOF 2
ENDMDL
MODEL 9
REMARK VINA RESULT:      -5.2     26.820     27.432
REMARK  Name = 75537118
REMARK  4 active torsions:
REMARK  status: ('A' for Active; 'I' for Inactive)
REMARK    1  A    between atoms: N_3  and  C_12
REMARK    2  A    between atoms: N_4  and  C_13
REMARK    3  A    between atoms: C_12  and  C_14
REMARK    4  A    between atoms: C_16  and  C_19
REMARK                            x       y       z     vdW  Elec       q    Type
REMARK                         _______ _______ _______ _____ _____    ______ ____
ROOT
ATOM      1  O   UNL     1      -6.452 -10.823  19.541  0.00  0.00    -0.252 OA
ATOM      2  N   UNL     1      -5.944 -10.249  17.321  0.00  0.00    -0.278 N 
ATOM      3  N   UNL     1      -6.307  -9.879  14.556  0.00  0.00    -0.293 NA
ATOM      4  N   UNL     1      -4.420 -11.410  18.495  0.00  0.00    -0.287 N 
ATOM      6  C   UNL     1      -4.794 -10.330  16.445  0.00  0.00    +0.109 C 
ATOM      7  C   UNL     1      -5.223 -10.758  15.041  0.00  0.00    +0.109 C 
ATOM      8  C   UNL     1      -3.863 -11.309  17.157  0.00  0.00    +0.132 C 
ATOM      9  C   UNL     1      -7.122  -9.533  16.879  0.00  0.00    +0.125 C 
ATOM     10  C   UNL     1      -7.480  -9.948  15.450  0.00  0.00    +0.104 C 
ATOM     11  C   UNL     1      -5.700 -10.822  18.576  0.00  0.00    +0.305 C 
ATOM     13  C   UNL     1      -3.769 -12.165  19.543  0.00  0.00    +0.133 C 
ENDROOT
BRANCH   3  12
ATOM     12  C   UNL     1      -6.684 -10.242  13.190  0.00  0.00    +0.140 C 
BRANCH  12  14
ATOM      5  N   UNL     1      -4.441 -10.305  12.250  0.00  0.00    -0.255 NA
ATOM     14  C   UNL     1      -5.676  -9.757  12.183  0.00  0.00    +0.056 A 
ATOM     15  C   UNL     1      -6.048  -8.798  11.256  0.00  0.00    +0.024 A 
ATOM     16  C   UNL     1      -3.540  -9.867  11.343  0.00  0.00    +0.039 A 
ATOM     17  C   UNL     1      -5.093  -8.373  10.339  0.00  0.00    +0.004 A 
ATOM     18  C   UNL     1      -3.813  -8.913  10.377  0.00  0.00    +0.023 A 
ATOM     19  C   UNL     1      -2.176 -10.469  11.413  0.00  0.00    +0.065 C 
ENDBRANCH  12  14
ENDBRANCH   3  12
TORSDOF 2
ENDMDL
MODEL 10
REMARK VINA RESULT:      -5.0     26.524     28.315
REMARK  Name = 75537118
REMARK  4 active torsions:
REMARK  status: ('A' for Active; 'I' for Inactive)
REMARK    1  A    between atoms: N_3  and  C_12
REMARK    2  A    between atoms: N_4  and  C_13
REMARK    3  A    between atoms: C_12  and  C_14
REMARK    4  A    between atoms: C_16  and  C_19
REMARK                            x       y       z     vdW  Elec       q    Type
REMARK                         _______ _______ _______ _____ _____    ______ ____
ROOT
ATOM      1  O   UNL     1     -11.218 -11.412  16.859  0.00  0.00    -0.252 OA
ATOM      2  N   UNL     1      -9.019 -10.744  16.374  0.00  0.00    -0.278 N 
ATOM      3  N   UNL     1      -6.207 -10.711  16.453  0.00  0.00    -0.293 NA
ATOM      4  N   UNL     1     -10.552  -9.150  16.770  0.00  0.00    -0.287 N 
ATOM      6  C   UNL     1      -8.324  -9.499  16.121  0.00  0.00    +0.109 C 
ATOM      7  C   UNL     1      -6.964  -9.497  16.820  0.00  0.00    +0.109 C 
ATOM      8  C   UNL     1      -9.299  -8.432  16.613  0.00  0.00    +0.132 C 
ATOM      9  C   UNL     1      -8.319 -11.997  16.188  0.00  0.00    +0.125 C 
ATOM     10  C   UNL     1      -6.941 -11.929  16.852  0.00  0.00    +0.104 C 
ATOM     11  C   UNL     1     -10.371 -10.546  16.684  0.00  0.00    +0.305 C 
ATOM     13  C   UNL     1     -11.783  -8.478  17.122  0.00  0.00    +0.133 C 
ENDROOT
BRANCH   3  12
ATOM     12  C   UNL     1      -4.881 -10.691  17.069  0.00  0.00    +0.140 C 
BRANCH  12  14
ATOM      5  N   UNL     1      -4.172 -10.593  14.744  0.00  0.00    -0.255 NA
ATOM     14  C   UNL     1      -3.784 -10.666  16.037  0.00  0.00    +0.056 A 
ATOM     15  C   UNL     1      -2.463 -10.716  16.448  0.00  0.00    +0.024 A 
ATOM     16  C   UNL     1      -3.184 -10.570  13.821  0.00  0.00    +0.039 A 
ATOM     17  C   UNL     1      -1.475 -10.690  15.470  0.00  0.00    +0.004 A 
ATOM     18  C   UNL     1      -1.834 -10.615  14.129  0.00  0.00    +0.023 A 
ATOM     19  C   UNL     1      -3.606 -10.489  12.392  0.00  0.00    +0.065 C 
ENDBRANCH  12  14
ENDBRANCH   3  12
TORSDOF 2
ENDMDL
