MODEL 1
REMARK VINA RESULT:      -8.0      0.000      0.000
REMARK  Name = 45783538
REMARK  7 active torsions:
REMARK  status: ('A' for Active; 'I' for Inactive)
REMARK    1  A    between atoms: S_1  and  C_35
REMARK    2  A    between atoms: S_1  and  C_36
REMARK    3  A    between atoms: N_6  and  C_16
REMARK    4  A    between atoms: C_12  and  C_20
REMARK    5  A    between atoms: C_16  and  C_23
REMARK    6  A    between atoms: C_17  and  C_25
REMARK    7  A    between atoms: C_26  and  C_29
REMARK                            x       y       z     vdW  Elec       q    Type
REMARK                         _______ _______ _______ _____ _____    ______ ____
ROOT
ATOM      2  O   UNL     1     -10.482 -10.173  18.885  0.00  0.00    -0.336 OA
ATOM      8  N   UNL     1      -9.678  -9.635  16.864  0.00  0.00    -0.190 NA
ATOM      9  N   UNL     1     -11.333  -9.182  18.378  0.00  0.00    -0.056 NA
ATOM     20  C   UNL     1      -9.536 -10.379  17.931  0.00  0.00    +0.245 A 
ATOM     26  C   UNL     1     -10.793  -8.917  17.184  0.00  0.00    +0.204 A 
ENDROOT
BRANCH  26  29
ATOM      7  N   UNL     1     -12.998  -5.187  13.696  0.00  0.00    -0.315 N 
ATOM     10  N   UNL     1     -13.124  -7.281  14.795  0.00  0.00    -0.240 NA
ATOM     17  C   UNL     1     -14.197  -3.249  11.898  0.00  0.00    +0.078 C 
ATOM     18  C   UNL     1     -12.683  -3.402  12.026  0.00  0.00    +0.031 C 
ATOM     19  C   UNL     1     -14.912  -3.737  13.157  0.00  0.00    +0.031 C 
ATOM     21  C   UNL     1     -12.249  -4.791  12.501  0.00  0.00    +0.107 C 
ATOM     22  C   UNL     1     -14.461  -5.129  13.595  0.00  0.00    +0.107 C 
ATOM     24  C   UNL     1     -12.448  -6.131  14.573  0.00  0.00    +0.121 A 
ATOM     29  C   UNL     1     -11.342  -7.941  16.290  0.00  0.00    +0.041 A 
ATOM     30  C   UNL     1     -11.234  -5.818  15.163  0.00  0.00    +0.044 A 
ATOM     31  C   UNL     1     -10.677  -6.745  16.037  0.00  0.00    +0.016 A 
ATOM     34  C   UNL     1     -12.551  -8.158  15.649  0.00  0.00    +0.124 A 
BRANCH  17  25
ATOM      3  O   UNL     1     -13.995  -4.267   9.743  0.00  0.00    -0.276 OA
ATOM     11  N   UNL     1     -16.072  -4.212  10.730  0.00  0.00    -0.329 N 
ATOM     25  C   UNL     1     -14.721  -3.962  10.685  0.00  0.00    +0.214 C 
ATOM     37  H   UNL     1     -16.535  -4.691   9.965  0.00  0.00    +0.145 HD
ATOM     38  H   UNL     1     -16.668  -3.898  11.489  0.00  0.00    +0.145 HD
ENDBRANCH  17  25
ENDBRANCH  26  29
BRANCH  20  12
ATOM      6  N   UNL     1      -7.880 -11.239  19.577  0.00  0.00    -0.287 NA
ATOM     12  C   UNL     1      -8.482 -11.421  18.242  0.00  0.00    +0.146 C 
ATOM     13  C   UNL     1      -9.050 -12.854  18.262  0.00  0.00    +0.030 C 
ATOM     14  C   UNL     1      -8.664 -13.415  19.623  0.00  0.00    +0.017 C 
ATOM     15  C   UNL     1      -7.477 -12.569  20.034  0.00  0.00    +0.085 C 
BRANCH   6  16
ATOM     16  C   UNL     1      -6.768 -10.298  19.582  0.00  0.00    +0.120 C 
BRANCH  16  23
ATOM     23  C   UNL     1      -5.818 -10.546  18.441  0.00  0.00    -0.033 A 
ATOM     27  C   UNL     1      -4.747 -11.427  18.605  0.00  0.00    +0.007 A 
ATOM     28  C   UNL     1      -6.007  -9.898  17.221  0.00  0.00    +0.007 A 
ATOM     32  C   UNL     1      -3.867 -11.657  17.548  0.00  0.00    +0.027 A 
ATOM     33  C   UNL     1      -5.127 -10.128  16.164  0.00  0.00    +0.027 A 
ATOM     35  C   UNL     1      -4.056 -11.008  16.328  0.00  0.00    +0.088 A 
BRANCH  35   1
ATOM      1  S   UNL     1      -2.956 -11.300  15.003  0.00  0.00    -0.006 S 
ATOM      4  O   UNL     1      -2.823 -12.738  14.809  0.00  0.00    -0.170 OA
ATOM      5  O   UNL     1      -3.363 -10.455  13.890  0.00  0.00    -0.170 OA
ATOM     36  C   UNL     1      -1.386 -10.710  15.593  0.00  0.00    +0.200 C 
ENDBRANCH  35   1
ENDBRANCH  16  23
ENDBRANCH   6  16
ENDBRANCH  20  12
TORSDOF 6
ENDMDL
MODEL 2
REMARK VINA RESULT:      -8.0      3.501     10.262
REMARK  Name = 45783538
REMARK  7 active torsions:
REMARK  status: ('A' for Active; 'I' for Inactive)
REMARK    1  A    between atoms: S_1  and  C_35
REMARK    2  A    between atoms: S_1  and  C_36
REMARK    3  A    between atoms: N_6  and  C_16
REMARK    4  A    between atoms: C_12  and  C_20
REMARK    5  A    between atoms: C_16  and  C_23
REMARK    6  A    between atoms: C_17  and  C_25
REMARK    7  A    between atoms: C_26  and  C_29
REMARK                            x       y       z     vdW  Elec       q    Type
REMARK                         _______ _______ _______ _____ _____    ______ ____
ROOT
ATOM      2  O   UNL     1     -13.798  -6.142  13.587  0.00  0.00    -0.336 OA
ATOM      8  N   UNL     1     -11.722  -5.439  14.047  0.00  0.00    -0.190 NA
ATOM      9  N   UNL     1     -13.181  -7.185  14.291  0.00  0.00    -0.056 NA
ATOM     20  C   UNL     1     -12.869  -5.155  13.487  0.00  0.00    +0.245 A 
ATOM     26  C   UNL     1     -11.960  -6.694  14.526  0.00  0.00    +0.204 A 
ENDROOT
BRANCH  26  29
ATOM      7  N   UNL     1      -8.047  -9.606  17.202  0.00  0.00    -0.315 N 
ATOM     10  N   UNL     1      -9.231  -9.126  15.208  0.00  0.00    -0.240 NA
ATOM     17  C   UNL     1      -5.973 -11.119  18.555  0.00  0.00    +0.078 C 
ATOM     18  C   UNL     1      -7.231 -10.647  19.281  0.00  0.00    +0.031 C 
ATOM     19  C   UNL     1      -5.675 -10.247  17.337  0.00  0.00    +0.031 C 
ATOM     21  C   UNL     1      -8.427 -10.432  18.350  0.00  0.00    +0.107 C 
ATOM     22  C   UNL     1      -6.888 -10.063  16.427  0.00  0.00    +0.107 C 
ATOM     24  C   UNL     1      -9.031  -8.877  16.522  0.00  0.00    +0.121 A 
ATOM     29  C   UNL     1     -10.957  -7.432  15.236  0.00  0.00    +0.041 A 
ATOM     30  C   UNL     1      -9.741  -7.935  17.250  0.00  0.00    +0.044 A 
ATOM     31  C   UNL     1     -10.720  -7.203  16.588  0.00  0.00    +0.016 A 
ATOM     34  C   UNL     1     -10.192  -8.396  14.598  0.00  0.00    +0.124 A 
BRANCH  17  25
ATOM      3  O   UNL     1      -5.388 -13.045  17.262  0.00  0.00    -0.276 OA
ATOM     11  N   UNL     1      -7.020 -13.267  18.868  0.00  0.00    -0.329 N 
ATOM     25  C   UNL     1      -6.078 -12.562  18.157  0.00  0.00    +0.214 C 
ATOM     37  H   UNL     1      -7.176 -14.252  18.685  0.00  0.00    +0.145 HD
ATOM     38  H   UNL     1      -7.624 -12.838  19.561  0.00  0.00    +0.145 HD
ENDBRANCH  17  25
ENDBRANCH  26  29
BRANCH  20  12
ATOM      6  N   UNL     1     -13.172  -4.022  11.292  0.00  0.00    -0.287 NA
ATOM     12  C   UNL     1     -13.298  -3.899  12.758  0.00  0.00    +0.146 C 
ATOM     13  C   UNL     1     -14.779  -3.549  12.995  0.00  0.00    +0.030 C 
ATOM     14  C   UNL     1     -15.389  -3.438  11.605  0.00  0.00    +0.017 C 
ATOM     15  C   UNL     1     -14.197  -3.152  10.714  0.00  0.00    +0.085 C 
BRANCH   6  16
ATOM     16  C   UNL     1     -11.839  -3.701  10.801  0.00  0.00    +0.120 C 
BRANCH  16  23
ATOM     23  C   UNL     1     -11.282  -4.796   9.932  0.00  0.00    -0.033 A 
ATOM     27  C   UNL     1     -10.302  -4.503   8.981  0.00  0.00    +0.007 A 
ATOM     28  C   UNL     1     -11.742  -6.104  10.077  0.00  0.00    +0.007 A 
ATOM     32  C   UNL     1      -9.786  -5.518   8.177  0.00  0.00    +0.027 A 
ATOM     33  C   UNL     1     -11.226  -7.119   9.272  0.00  0.00    +0.027 A 
ATOM     35  C   UNL     1     -10.248  -6.826   8.322  0.00  0.00    +0.088 A 
BRANCH  35   1
ATOM      1  S   UNL     1      -9.598  -8.097   7.317  0.00  0.00    -0.006 S 
ATOM      4  O   UNL     1      -9.026  -9.129   8.172  0.00  0.00    -0.170 OA
ATOM      5  O   UNL     1     -10.611  -8.453   6.334  0.00  0.00    -0.170 OA
ATOM     36  C   UNL     1      -8.244  -7.332   6.454  0.00  0.00    +0.200 C 
ENDBRANCH  35   1
ENDBRANCH  16  23
ENDBRANCH   6  16
ENDBRANCH  20  12
TORSDOF 6
ENDMDL
MODEL 3
REMARK VINA RESULT:      -7.9     27.950     32.925
REMARK  Name = 45783538
REMARK  7 active torsions:
REMARK  status: ('A' for Active; 'I' for Inactive)
REMARK    1  A    between atoms: S_1  and  C_35
REMARK    2  A    between atoms: S_1  and  C_36
REMARK    3  A    between atoms: N_6  and  C_16
REMARK    4  A    between atoms: C_12  and  C_20
REMARK    5  A    between atoms: C_16  and  C_23
REMARK    6  A    between atoms: C_17  and  C_25
REMARK    7  A    between atoms: C_26  and  C_29
REMARK                            x       y       z     vdW  Elec       q    Type
REMARK                         _______ _______ _______ _____ _____    ______ ____
ROOT
ATOM      2  O   UNL     1      14.443   7.062  19.596  0.00  0.00    -0.336 OA
ATOM      8  N   UNL     1      15.563   7.333  21.517  0.00  0.00    -0.190 NA
ATOM      9  N   UNL     1      15.741   6.591  19.360  0.00  0.00    -0.056 NA
ATOM     20  C   UNL     1      14.424   7.480  20.889  0.00  0.00    +0.245 A 
ATOM     26  C   UNL     1      16.340   6.785  20.539  0.00  0.00    +0.204 A 
ENDROOT
BRANCH  26  29
ATOM      7  N   UNL     1      21.663   5.398  21.365  0.00  0.00    -0.315 N 
ATOM     10  N   UNL     1      19.678   5.210  20.089  0.00  0.00    -0.240 NA
ATOM     17  C   UNL     1      24.450   4.680  21.743  0.00  0.00    +0.078 C 
ATOM     18  C   UNL     1      23.528   4.983  22.922  0.00  0.00    +0.031 C 
ATOM     19  C   UNL     1      23.953   5.350  20.464  0.00  0.00    +0.031 C 
ATOM     21  C   UNL     1      22.048   4.740  22.616  0.00  0.00    +0.107 C 
ATOM     22  C   UNL     1      22.475   5.078  20.186  0.00  0.00    +0.107 C 
ATOM     24  C   UNL     1      20.322   5.742  21.151  0.00  0.00    +0.121 A 
ATOM     29  C   UNL     1      17.712   6.442  20.771  0.00  0.00    +0.041 A 
ATOM     30  C   UNL     1      19.740   6.619  22.053  0.00  0.00    +0.044 A 
ATOM     31  C   UNL     1      18.410   6.970  21.853  0.00  0.00    +0.016 A 
ATOM     34  C   UNL     1      18.385   5.574  19.927  0.00  0.00    +0.124 A 
BRANCH  17  25
ATOM      3  O   UNL     1      24.640   2.698  20.416  0.00  0.00    -0.276 OA
ATOM     11  N   UNL     1      24.694   2.484  22.706  0.00  0.00    -0.329 N 
ATOM     25  C   UNL     1      24.609   3.201  21.536  0.00  0.00    +0.214 C 
ATOM     37  H   UNL     1      24.806   1.476  22.688  0.00  0.00    +0.145 HD
ATOM     38  H   UNL     1      24.606   2.909  23.623  0.00  0.00    +0.145 HD
ENDBRANCH  17  25
ENDBRANCH  26  29
BRANCH  20  12
ATOM      6  N   UNL     1      12.324   8.694  20.334  0.00  0.00    -0.287 NA
ATOM     12  C   UNL     1      13.112   8.041  21.397  0.00  0.00    +0.146 C 
ATOM     13  C   UNL     1      12.180   6.953  21.963  0.00  0.00    +0.030 C 
ATOM     14  C   UNL     1      10.874   7.112  21.199  0.00  0.00    +0.017 C 
ATOM     15  C   UNL     1      10.918   8.546  20.711  0.00  0.00    +0.085 C 
BRANCH   6  16
ATOM     16  C   UNL     1      12.690  10.087  20.120  0.00  0.00    +0.120 C 
BRANCH  16  23
ATOM     23  C   UNL     1      13.260  10.313  18.745  0.00  0.00    -0.033 A 
ATOM     27  C   UNL     1      13.011   9.391  17.727  0.00  0.00    +0.007 A 
ATOM     28  C   UNL     1      14.034  11.444  18.487  0.00  0.00    +0.007 A 
ATOM     32  C   UNL     1      13.539   9.601  16.454  0.00  0.00    +0.027 A 
ATOM     33  C   UNL     1      14.561  11.654  17.214  0.00  0.00    +0.027 A 
ATOM     35  C   UNL     1      14.314  10.732  16.196  0.00  0.00    +0.088 A 
BRANCH  35   1
ATOM      1  S   UNL     1      14.970  10.996  14.600  0.00  0.00    -0.006 S 
ATOM      4  O   UNL     1      15.418   9.721  14.056  0.00  0.00    -0.170 OA
ATOM      5  O   UNL     1      14.017  11.805  13.853  0.00  0.00    -0.170 OA
ATOM     36  C   UNL     1      16.425  11.980  14.876  0.00  0.00    +0.200 C 
ENDBRANCH  35   1
ENDBRANCH  16  23
ENDBRANCH   6  16
ENDBRANCH  20  12
TORSDOF 6
ENDMDL
MODEL 4
REMARK VINA RESULT:      -7.9      5.502      7.501
REMARK  Name = 45783538
REMARK  7 active torsions:
REMARK  status: ('A' for Active; 'I' for Inactive)
REMARK    1  A    between atoms: S_1  and  C_35
REMARK    2  A    between atoms: S_1  and  C_36
REMARK    3  A    between atoms: N_6  and  C_16
REMARK    4  A    between atoms: C_12  and  C_20
REMARK    5  A    between atoms: C_16  and  C_23
REMARK    6  A    between atoms: C_17  and  C_25
REMARK    7  A    between atoms: C_26  and  C_29
REMARK                            x       y       z     vdW  Elec       q    Type
REMARK                         _______ _______ _______ _____ _____    ______ ____
ROOT
ATOM      2  O   UNL     1      -6.974  -8.788   6.065  0.00  0.00    -0.336 OA
ATOM      8  N   UNL     1      -7.168  -8.580   8.286  0.00  0.00    -0.190 NA
ATOM      9  N   UNL     1      -8.085  -7.963   6.283  0.00  0.00    -0.056 NA
ATOM     20  C   UNL     1      -6.494  -9.106   7.295  0.00  0.00    +0.245 A 
ATOM     26  C   UNL     1      -8.135  -7.888   7.617  0.00  0.00    +0.204 A 
ENDROOT
BRANCH  26  29
ATOM      7  N   UNL     1     -12.048  -5.031  10.349  0.00  0.00    -0.315 N 
ATOM     10  N   UNL     1     -10.951  -7.083   9.906  0.00  0.00    -0.240 NA
ATOM     17  C   UNL     1     -14.077  -3.567  11.820  0.00  0.00    +0.078 C 
ATOM     18  C   UNL     1     -13.664  -3.172  10.403  0.00  0.00    +0.031 C 
ATOM     19  C   UNL     1     -12.965  -4.341  12.526  0.00  0.00    +0.031 C 
ATOM     21  C   UNL     1     -13.089  -4.333   9.590  0.00  0.00    +0.107 C 
ATOM     22  C   UNL     1     -12.422  -5.498  11.689  0.00  0.00    +0.107 C 
ATOM     24  C   UNL     1     -11.065  -5.757   9.664  0.00  0.00    +0.121 A 
ATOM     29  C   UNL     1      -9.136  -7.132   8.309  0.00  0.00    +0.041 A 
ATOM     30  C   UNL     1     -10.264  -5.059   8.775  0.00  0.00    +0.044 A 
ATOM     31  C   UNL     1      -9.283  -5.766   8.089  0.00  0.00    +0.016 A 
ATOM     34  C   UNL     1      -9.987  -7.737   9.219  0.00  0.00    +0.124 A 
BRANCH  17  25
ATOM      3  O   UNL     1     -16.082  -4.421  10.834  0.00  0.00    -0.276 OA
ATOM     11  N   UNL     1     -15.622  -4.976  13.018  0.00  0.00    -0.329 N 
ATOM     25  C   UNL     1     -15.352  -4.359  11.820  0.00  0.00    +0.214 C 
ATOM     37  H   UNL     1     -16.456  -5.541  13.134  0.00  0.00    +0.145 HD
ATOM     38  H   UNL     1     -15.038  -4.864  13.841  0.00  0.00    +0.145 HD
ENDBRANCH  17  25
ENDBRANCH  26  29
BRANCH  20  12
ATOM      6  N   UNL     1      -4.880 -10.369   8.706  0.00  0.00    -0.287 NA
ATOM     12  C   UNL     1      -5.275 -10.003   7.332  0.00  0.00    +0.146 C 
ATOM     13  C   UNL     1      -5.504 -11.349   6.619  0.00  0.00    +0.030 C 
ATOM     14  C   UNL     1      -5.156 -12.410   7.652  0.00  0.00    +0.017 C 
ATOM     15  C   UNL     1      -4.242 -11.683   8.617  0.00  0.00    +0.085 C 
BRANCH   6  16
ATOM     16  C   UNL     1      -4.016  -9.382   9.339  0.00  0.00    +0.120 C 
BRANCH  16  23
ATOM     23  C   UNL     1      -3.612  -9.797  10.728  0.00  0.00    -0.033 A 
ATOM     27  C   UNL     1      -2.260  -9.919  11.054  0.00  0.00    +0.007 A 
ATOM     28  C   UNL     1      -4.587 -10.060  11.690  0.00  0.00    +0.007 A 
ATOM     32  C   UNL     1      -1.886 -10.304  12.341  0.00  0.00    +0.027 A 
ATOM     33  C   UNL     1      -4.213 -10.445  12.977  0.00  0.00    +0.027 A 
ATOM     35  C   UNL     1      -2.862 -10.567  13.302  0.00  0.00    +0.088 A 
BRANCH  35   1
ATOM      1  S   UNL     1      -2.393 -11.044  14.915  0.00  0.00    -0.006 S 
ATOM      4  O   UNL     1      -3.497 -10.777  15.827  0.00  0.00    -0.170 OA
ATOM      5  O   UNL     1      -1.828 -12.384  14.838  0.00  0.00    -0.170 OA
ATOM     36  C   UNL     1      -1.083  -9.922  15.347  0.00  0.00    +0.200 C 
ENDBRANCH  35   1
ENDBRANCH  16  23
ENDBRANCH   6  16
ENDBRANCH  20  12
TORSDOF 6
ENDMDL
MODEL 5
REMARK VINA RESULT:      -7.8      4.331      8.135
REMARK  Name = 45783538
REMARK  7 active torsions:
REMARK  status: ('A' for Active; 'I' for Inactive)
REMARK    1  A    between atoms: S_1  and  C_35
REMARK    2  A    between atoms: S_1  and  C_36
REMARK    3  A    between atoms: N_6  and  C_16
REMARK    4  A    between atoms: C_12  and  C_20
REMARK    5  A    between atoms: C_16  and  C_23
REMARK    6  A    between atoms: C_17  and  C_25
REMARK    7  A    between atoms: C_26  and  C_29
REMARK                            x       y       z     vdW  Elec       q    Type
REMARK                         _______ _______ _______ _____ _____    ______ ____
ROOT
ATOM      2  O   UNL     1      -6.549 -11.747  19.674  0.00  0.00    -0.336 OA
ATOM      8  N   UNL     1      -7.726 -11.793  17.769  0.00  0.00    -0.190 NA
ATOM      9  N   UNL     1      -5.671 -11.333  18.663  0.00  0.00    -0.056 NA
ATOM     20  C   UNL     1      -7.736 -11.998  19.061  0.00  0.00    +0.245 A 
ATOM     26  C   UNL     1      -6.439 -11.387  17.570  0.00  0.00    +0.204 A 
ENDROOT
BRANCH  26  29
ATOM      7  N   UNL     1      -4.634 -10.049  12.482  0.00  0.00    -0.315 N 
ATOM     10  N   UNL     1      -6.427 -10.520  13.955  0.00  0.00    -0.240 NA
ATOM     17  C   UNL     1      -3.731  -9.315   9.823  0.00  0.00    +0.078 C 
ATOM     18  C   UNL     1      -2.893 -10.199  10.744  0.00  0.00    +0.031 C 
ATOM     19  C   UNL     1      -4.696  -8.440  10.621  0.00  0.00    +0.031 C 
ATOM     21  C   UNL     1      -3.723 -10.959  11.781  0.00  0.00    +0.107 C 
ATOM     22  C   UNL     1      -5.514  -9.233  11.639  0.00  0.00    +0.107 C 
ATOM     24  C   UNL     1      -5.096 -10.387  13.761  0.00  0.00    +0.121 A 
ATOM     29  C   UNL     1      -5.951 -11.043  16.268  0.00  0.00    +0.041 A 
ATOM     30  C   UNL     1      -4.145 -10.561  14.754  0.00  0.00    +0.044 A 
ATOM     31  C   UNL     1      -4.589 -10.895  16.028  0.00  0.00    +0.016 A 
ATOM     34  C   UNL     1      -6.821 -10.846  15.207  0.00  0.00    +0.124 A 
BRANCH  17  25
ATOM      3  O   UNL     1      -4.363 -11.352   8.740  0.00  0.00    -0.276 OA
ATOM     11  N   UNL     1      -5.267  -9.383   7.967  0.00  0.00    -0.329 N 
ATOM     25  C   UNL     1      -4.477 -10.131   8.808  0.00  0.00    +0.214 C 
ATOM     37  H   UNL     1      -5.819  -9.829   7.242  0.00  0.00    +0.145 HD
ATOM     38  H   UNL     1      -5.302  -8.369   7.998  0.00  0.00    +0.145 HD
ENDBRANCH  17  25
ENDBRANCH  26  29
BRANCH  20  12
ATOM      6  N   UNL     1     -10.190 -12.023  19.469  0.00  0.00    -0.287 NA
ATOM     12  C   UNL     1      -8.867 -12.466  19.952  0.00  0.00    +0.146 C 
ATOM     13  C   UNL     1      -8.972 -14.002  20.024  0.00  0.00    +0.030 C 
ATOM     14  C   UNL     1     -10.404 -14.322  19.623  0.00  0.00    +0.017 C 
ATOM     15  C   UNL     1     -11.151 -13.035  19.909  0.00  0.00    +0.085 C 
BRANCH   6  16
ATOM     16  C   UNL     1     -10.551 -10.688  19.928  0.00  0.00    +0.120 C 
BRANCH  16  23
ATOM     23  C   UNL     1     -10.875  -9.770  18.780  0.00  0.00    -0.033 A 
ATOM     27  C   UNL     1      -9.849  -9.096  18.115  0.00  0.00    +0.007 A 
ATOM     28  C   UNL     1     -12.199  -9.592  18.380  0.00  0.00    +0.007 A 
ATOM     32  C   UNL     1     -10.150  -8.245  17.052  0.00  0.00    +0.027 A 
ATOM     33  C   UNL     1     -12.500  -8.741  17.317  0.00  0.00    +0.027 A 
ATOM     35  C   UNL     1     -11.474  -8.068  16.653  0.00  0.00    +0.088 A 
BRANCH  35   1
ATOM      1  S   UNL     1     -11.849  -7.006  15.318  0.00  0.00    -0.006 S 
ATOM      4  O   UNL     1     -11.068  -5.783  15.453  0.00  0.00    -0.170 OA
ATOM      5  O   UNL     1     -11.766  -7.784  14.090  0.00  0.00    -0.170 OA
ATOM     36  C   UNL     1     -13.553  -6.561  15.570  0.00  0.00    +0.200 C 
ENDBRANCH  35   1
ENDBRANCH  16  23
ENDBRANCH   6  16
ENDBRANCH  20  12
TORSDOF 6
ENDMDL
MODEL 6
REMARK VINA RESULT:      -7.7     26.319     30.245
REMARK  Name = 45783538
REMARK  7 active torsions:
REMARK  status: ('A' for Active; 'I' for Inactive)
REMARK    1  A    between atoms: S_1  and  C_35
REMARK    2  A    between atoms: S_1  and  C_36
REMARK    3  A    between atoms: N_6  and  C_16
REMARK    4  A    between atoms: C_12  and  C_20
REMARK    5  A    between atoms: C_16  and  C_23
REMARK    6  A    between atoms: C_17  and  C_25
REMARK    7  A    between atoms: C_26  and  C_29
REMARK                            x       y       z     vdW  Elec       q    Type
REMARK                         _______ _______ _______ _____ _____    ______ ____
ROOT
ATOM      2  O   UNL     1      14.676  12.001  12.437  0.00  0.00    -0.336 OA
ATOM      8  N   UNL     1      12.866  12.166  13.746  0.00  0.00    -0.190 NA
ATOM      9  N   UNL     1      14.917  11.172  13.540  0.00  0.00    -0.056 NA
ATOM     20  C   UNL     1      13.449  12.548  12.638  0.00  0.00    +0.245 A 
ATOM     26  C   UNL     1      13.805  11.324  14.266  0.00  0.00    +0.204 A 
ENDROOT
BRANCH  26  29
ATOM      7  N   UNL     1      12.970   8.633  19.063  0.00  0.00    -0.315 N 
ATOM     10  N   UNL     1      12.731   8.735  16.709  0.00  0.00    -0.240 NA
ATOM     17  C   UNL     1      12.549   7.183  21.542  0.00  0.00    +0.078 C 
ATOM     18  C   UNL     1      12.561   8.709  21.492  0.00  0.00    +0.031 C 
ATOM     19  C   UNL     1      13.334   6.584  20.376  0.00  0.00    +0.031 C 
ATOM     21  C   UNL     1      12.187   9.277  20.121  0.00  0.00    +0.107 C 
ATOM     22  C   UNL     1      12.928   7.167  19.024  0.00  0.00    +0.107 C 
ATOM     24  C   UNL     1      13.176   9.306  17.851  0.00  0.00    +0.121 A 
ATOM     29  C   UNL     1      13.601  10.649  15.514  0.00  0.00    +0.041 A 
ATOM     30  C   UNL     1      13.833  10.525  17.905  0.00  0.00    +0.044 A 
ATOM     31  C   UNL     1      14.045  11.202  16.710  0.00  0.00    +0.016 A 
ATOM     34  C   UNL     1      12.955   9.424  15.567  0.00  0.00    +0.124 A 
BRANCH  17  25
ATOM      3  O   UNL     1      10.191   7.329  21.920  0.00  0.00    -0.276 OA
ATOM     11  N   UNL     1      11.052   5.330  21.175  0.00  0.00    -0.329 N 
ATOM     25  C   UNL     1      11.147   6.645  21.565  0.00  0.00    +0.214 C 
ATOM     37  H   UNL     1      10.153   4.862  21.150  0.00  0.00    +0.145 HD
ATOM     38  H   UNL     1      11.860   4.762  20.945  0.00  0.00    +0.145 HD
ENDBRANCH  17  25
ENDBRANCH  26  29
BRANCH  20  12
ATOM      6  N   UNL     1      12.037  12.841  10.610  0.00  0.00    -0.287 NA
ATOM     12  C   UNL     1      12.949  13.496  11.568  0.00  0.00    +0.146 C 
ATOM     13  C   UNL     1      12.135  14.669  12.145  0.00  0.00    +0.030 C 
ATOM     14  C   UNL     1      10.804  14.629  11.409  0.00  0.00    +0.017 C 
ATOM     15  C   UNL     1      11.125  13.881  10.131  0.00  0.00    +0.085 C 
BRANCH   6  16
ATOM     16  C   UNL     1      12.731  12.176   9.517  0.00  0.00    +0.120 C 
BRANCH  16  23
ATOM     23  C   UNL     1      11.856  11.162   8.830  0.00  0.00    -0.033 A 
ATOM     27  C   UNL     1      12.322  10.490   7.699  0.00  0.00    +0.007 A 
ATOM     28  C   UNL     1      10.579  10.893   9.323  0.00  0.00    +0.007 A 
ATOM     32  C   UNL     1      11.511   9.551   7.063  0.00  0.00    +0.027 A 
ATOM     33  C   UNL     1       9.768   9.955   8.688  0.00  0.00    +0.027 A 
ATOM     35  C   UNL     1      10.234   9.283   7.557  0.00  0.00    +0.088 A 
BRANCH  35   1
ATOM      1  S   UNL     1       9.220   8.104   6.763  0.00  0.00    -0.006 S 
ATOM      4  O   UNL     1      10.062   7.206   5.983  0.00  0.00    -0.170 OA
ATOM      5  O   UNL     1       8.308   7.557   7.756  0.00  0.00    -0.170 OA
ATOM     36  C   UNL     1       8.262   9.052   5.603  0.00  0.00    +0.200 C 
ENDBRANCH  35   1
ENDBRANCH  16  23
ENDBRANCH   6  16
ENDBRANCH  20  12
TORSDOF 6
ENDMDL
MODEL 7
REMARK VINA RESULT:      -7.7     28.631     31.985
REMARK  Name = 45783538
REMARK  7 active torsions:
REMARK  status: ('A' for Active; 'I' for Inactive)
REMARK    1  A    between atoms: S_1  and  C_35
REMARK    2  A    between atoms: S_1  and  C_36
REMARK    3  A    between atoms: N_6  and  C_16
REMARK    4  A    between atoms: C_12  and  C_20
REMARK    5  A    between atoms: C_16  and  C_23
REMARK    6  A    between atoms: C_17  and  C_25
REMARK    7  A    between atoms: C_26  and  C_29
REMARK                            x       y       z     vdW  Elec       q    Type
REMARK                         _______ _______ _______ _____ _____    ______ ____
ROOT
ATOM      2  O   UNL     1      12.823  10.431  19.206  0.00  0.00    -0.336 OA
ATOM      8  N   UNL     1      13.683   9.165  17.571  0.00  0.00    -0.190 NA
ATOM      9  N   UNL     1      13.528  11.305  18.368  0.00  0.00    -0.056 NA
ATOM     20  C   UNL     1      12.965   9.193  18.665  0.00  0.00    +0.245 A 
ATOM     26  C   UNL     1      14.007  10.483  17.428  0.00  0.00    +0.204 A 
ENDROOT
BRANCH  26  29
ATOM      7  N   UNL     1      17.092  12.213  13.135  0.00  0.00    -0.315 N 
ATOM     10  N   UNL     1      15.480  10.723  14.023  0.00  0.00    -0.240 NA
ATOM     17  C   UNL     1      18.658  13.111  10.863  0.00  0.00    +0.078 C 
ATOM     18  C   UNL     1      19.177  13.223  12.295  0.00  0.00    +0.031 C 
ATOM     19  C   UNL     1      17.132  13.068  10.827  0.00  0.00    +0.031 C 
ATOM     21  C   UNL     1      18.552  12.203  13.250  0.00  0.00    +0.107 C 
ATOM     22  C   UNL     1      16.544  12.033  11.786  0.00  0.00    +0.107 C 
ATOM     24  C   UNL     1      16.313  11.772  14.212  0.00  0.00    +0.121 A 
ATOM     29  C   UNL     1      14.811  10.946  16.336  0.00  0.00    +0.041 A 
ATOM     30  C   UNL     1      16.447  12.449  15.413  0.00  0.00    +0.044 A 
ATOM     31  C   UNL     1      15.679  12.022  16.491  0.00  0.00    +0.016 A 
ATOM     34  C   UNL     1      14.750  10.336  15.094  0.00  0.00    +0.124 A 
BRANCH  17  25
ATOM      3  O   UNL     1      19.916  11.079  10.748  0.00  0.00    -0.276 OA
ATOM     11  N   UNL     1      18.948  11.870   8.817  0.00  0.00    -0.329 N 
ATOM     25  C   UNL     1      19.236  11.917  10.161  0.00  0.00    +0.214 C 
ATOM     37  H   UNL     1      19.285  11.106   8.241  0.00  0.00    +0.145 HD
ATOM     38  H   UNL     1      18.437  12.603   8.336  0.00  0.00    +0.145 HD
ENDBRANCH  17  25
ENDBRANCH  26  29
BRANCH  20  12
ATOM      6  N   UNL     1      13.062   7.576  20.553  0.00  0.00    -0.287 NA
ATOM     12  C   UNL     1      12.283   8.056  19.395  0.00  0.00    +0.146 C 
ATOM     13  C   UNL     1      10.918   8.461  19.984  0.00  0.00    +0.030 C 
ATOM     14  C   UNL     1      11.005   8.115  21.463  0.00  0.00    +0.017 C 
ATOM     15  C   UNL     1      12.092   7.062  21.520  0.00  0.00    +0.085 C 
BRANCH   6  16
ATOM     16  C   UNL     1      14.063   6.578  20.197  0.00  0.00    +0.120 C 
BRANCH  16  23
ATOM     23  C   UNL     1      15.454   7.024  20.563  0.00  0.00    -0.033 A 
ATOM     27  C   UNL     1      15.648   8.248  21.204  0.00  0.00    +0.007 A 
ATOM     28  C   UNL     1      16.548   6.213  20.263  0.00  0.00    +0.007 A 
ATOM     32  C   UNL     1      16.936   8.660  21.543  0.00  0.00    +0.027 A 
ATOM     33  C   UNL     1      17.836   6.625  20.601  0.00  0.00    +0.027 A 
ATOM     35  C   UNL     1      18.030   7.849  21.242  0.00  0.00    +0.088 A 
BRANCH  35   1
ATOM      1  S   UNL     1      19.643   8.364  21.671  0.00  0.00    -0.006 S 
ATOM      4  O   UNL     1      19.786   8.311  23.119  0.00  0.00    -0.170 OA
ATOM      5  O   UNL     1      20.582   7.642  20.825  0.00  0.00    -0.170 OA
ATOM     36  C   UNL     1      19.698  10.080  21.207  0.00  0.00    +0.200 C 
ENDBRANCH  35   1
ENDBRANCH  16  23
ENDBRANCH   6  16
ENDBRANCH  20  12
TORSDOF 6
ENDMDL
MODEL 8
REMARK VINA RESULT:      -7.6     28.079     32.168
REMARK  Name = 45783538
REMARK  7 active torsions:
REMARK  status: ('A' for Active; 'I' for Inactive)
REMARK    1  A    between atoms: S_1  and  C_35
REMARK    2  A    between atoms: S_1  and  C_36
REMARK    3  A    between atoms: N_6  and  C_16
REMARK    4  A    between atoms: C_12  and  C_20
REMARK    5  A    between atoms: C_16  and  C_23
REMARK    6  A    between atoms: C_17  and  C_25
REMARK    7  A    between atoms: C_26  and  C_29
REMARK                            x       y       z     vdW  Elec       q    Type
REMARK                         _______ _______ _______ _____ _____    ______ ____
ROOT
ATOM      2  O   UNL     1      11.163  10.140   5.785  0.00  0.00    -0.336 OA
ATOM      8  N   UNL     1      12.200   8.163   5.595  0.00  0.00    -0.190 NA
ATOM      9  N   UNL     1      12.536  10.419   5.780  0.00  0.00    -0.056 NA
ATOM     20  C   UNL     1      11.054   8.790   5.672  0.00  0.00    +0.245 A 
ATOM     26  C   UNL     1      13.080   9.203   5.666  0.00  0.00    +0.204 A 
ENDROOT
BRANCH  26  29
ATOM      7  N   UNL     1      18.593   8.472   5.541  0.00  0.00    -0.315 N 
ATOM     10  N   UNL     1      16.713   9.716   6.267  0.00  0.00    -0.240 NA
ATOM     17  C   UNL     1      21.472   8.101   5.529  0.00  0.00    +0.078 C 
ATOM     18  C   UNL     1      20.601   7.693   4.342  0.00  0.00    +0.031 C 
ATOM     19  C   UNL     1      20.665   8.131   6.825  0.00  0.00    +0.031 C 
ATOM     21  C   UNL     1      19.289   8.477   4.252  0.00  0.00    +0.107 C 
ATOM     22  C   UNL     1      19.368   8.929   6.700  0.00  0.00    +0.107 C 
ATOM     24  C   UNL     1      17.206   8.663   5.576  0.00  0.00    +0.121 A 
ATOM     29  C   UNL     1      14.497   8.995   5.620  0.00  0.00    +0.041 A 
ATOM     30  C   UNL     1      16.421   7.746   4.895  0.00  0.00    +0.044 A 
ATOM     31  C   UNL     1      15.042   7.922   4.922  0.00  0.00    +0.016 A 
ATOM     34  C   UNL     1      15.368   9.855   6.269  0.00  0.00    +0.124 A 
BRANCH  17  25
ATOM      3  O   UNL     1      22.223   9.923   4.172  0.00  0.00    -0.276 OA
ATOM     11  N   UNL     1      22.647  10.002   6.432  0.00  0.00    -0.329 N 
ATOM     25  C   UNL     1      22.137   9.426   5.292  0.00  0.00    +0.214 C 
ATOM     37  H   UNL     1      23.116  10.900   6.392  0.00  0.00    +0.145 HD
ATOM     38  H   UNL     1      22.620   9.549   7.339  0.00  0.00    +0.145 HD
ENDBRANCH  17  25
ENDBRANCH  26  29
BRANCH  20  12
ATOM      6  N   UNL     1       9.586   6.876   5.062  0.00  0.00    -0.287 NA
ATOM     12  C   UNL     1       9.648   8.227   5.652  0.00  0.00    +0.146 C 
ATOM     13  C   UNL     1       9.052   8.065   7.064  0.00  0.00    +0.030 C 
ATOM     14  C   UNL     1       8.629   6.606   7.151  0.00  0.00    +0.017 C 
ATOM     15  C   UNL     1       8.459   6.196   5.702  0.00  0.00    +0.085 C 
BRANCH   6  16
ATOM     16  C   UNL     1       9.465   6.888   3.610  0.00  0.00    +0.120 C 
BRANCH  16  23
ATOM     23  C   UNL     1      10.592   6.142   2.947  0.00  0.00    -0.033 A 
ATOM     27  C   UNL     1      11.663   6.844   2.393  0.00  0.00    +0.007 A 
ATOM     28  C   UNL     1      10.567   4.749   2.887  0.00  0.00    +0.007 A 
ATOM     32  C   UNL     1      12.707   6.153   1.779  0.00  0.00    +0.027 A 
ATOM     33  C   UNL     1      11.610   4.057   2.274  0.00  0.00    +0.027 A 
ATOM     35  C   UNL     1      12.681   4.760   1.719  0.00  0.00    +0.088 A 
BRANCH  35   1
ATOM      1  S   UNL     1      13.990   3.894   0.954  0.00  0.00    -0.006 S 
ATOM      4  O   UNL     1      14.693   3.112   1.963  0.00  0.00    -0.170 OA
ATOM      5  O   UNL     1      13.459   3.234  -0.230  0.00  0.00    -0.170 OA
ATOM     36  C   UNL     1      15.109   5.168   0.415  0.00  0.00    +0.200 C 
ENDBRANCH  35   1
ENDBRANCH  16  23
ENDBRANCH   6  16
ENDBRANCH  20  12
TORSDOF 6
ENDMDL
MODEL 9
REMARK VINA RESULT:      -7.5     29.472     33.302
REMARK  Name = 45783538
REMARK  7 active torsions:
REMARK  status: ('A' for Active; 'I' for Inactive)
REMARK    1  A    between atoms: S_1  and  C_35
REMARK    2  A    between atoms: S_1  and  C_36
REMARK    3  A    between atoms: N_6  and  C_16
REMARK    4  A    between atoms: C_12  and  C_20
REMARK    5  A    between atoms: C_16  and  C_23
REMARK    6  A    between atoms: C_17  and  C_25
REMARK    7  A    between atoms: C_26  and  C_29
REMARK                            x       y       z     vdW  Elec       q    Type
REMARK                         _______ _______ _______ _____ _____    ______ ____
ROOT
ATOM      2  O   UNL     1      14.724  12.334  12.567  0.00  0.00    -0.336 OA
ATOM      8  N   UNL     1      15.951  12.242  14.439  0.00  0.00    -0.190 NA
ATOM      9  N   UNL     1      13.995  11.552  13.473  0.00  0.00    -0.056 NA
ATOM     20  C   UNL     1      15.861  12.699  13.216  0.00  0.00    +0.245 A 
ATOM     26  C   UNL     1      14.784  11.544  14.552  0.00  0.00    +0.204 A 
ENDROOT
BRANCH  26  29
ATOM      7  N   UNL     1      13.393   8.780  19.174  0.00  0.00    -0.315 N 
ATOM     10  N   UNL     1      13.411   8.930  16.811  0.00  0.00    -0.240 NA
ATOM     17  C   UNL     1      12.683   7.291  21.563  0.00  0.00    +0.078 C 
ATOM     18  C   UNL     1      12.726   8.818  21.546  0.00  0.00    +0.031 C 
ATOM     19  C   UNL     1      13.579   6.699  20.476  0.00  0.00    +0.031 C 
ATOM     21  C   UNL     1      12.511   9.418  20.155  0.00  0.00    +0.107 C 
ATOM     22  C   UNL     1      13.331   7.316  19.100  0.00  0.00    +0.107 C 
ATOM     24  C   UNL     1      13.740   9.471  18.006  0.00  0.00    +0.121 A 
ATOM     29  C   UNL     1      14.436  10.850  15.756  0.00  0.00    +0.041 A 
ATOM     30  C   UNL     1      14.407  10.676  18.155  0.00  0.00    +0.044 A 
ATOM     31  C   UNL     1      14.758  11.372  17.004  0.00  0.00    +0.016 A 
ATOM     34  C   UNL     1      13.768   9.637  15.714  0.00  0.00    +0.124 A 
BRANCH  17  25
ATOM      3  O   UNL     1      10.300   7.497  21.614  0.00  0.00    -0.276 OA
ATOM     11  N   UNL     1      11.204   5.448  21.089  0.00  0.00    -0.329 N 
ATOM     25  C   UNL     1      11.279   6.779  21.424  0.00  0.00    +0.214 C 
ATOM     37  H   UNL     1      10.306   4.994  20.967  0.00  0.00    +0.145 HD
ATOM     38  H   UNL     1      12.023   4.855  20.996  0.00  0.00    +0.145 HD
ENDBRANCH  17  25
ENDBRANCH  26  29
BRANCH  20  12
ATOM      6  N   UNL     1      18.227  13.100  12.561  0.00  0.00    -0.287 NA
ATOM     12  C   UNL     1      16.831  13.563  12.439  0.00  0.00    +0.146 C 
ATOM     13  C   UNL     1      16.550  13.561  10.924  0.00  0.00    +0.030 C 
ATOM     14  C   UNL     1      17.862  13.142  10.277  0.00  0.00    +0.017 C 
ATOM     15  C   UNL     1      18.902  13.489  11.322  0.00  0.00    +0.085 C 
BRANCH   6  16
ATOM     16  C   UNL     1      18.905  13.622  13.741  0.00  0.00    +0.120 C 
BRANCH  16  23
ATOM     23  C   UNL     1      20.053  12.744  14.162  0.00  0.00    -0.033 A 
ATOM     27  C   UNL     1      21.188  13.312  14.744  0.00  0.00    +0.007 A 
ATOM     28  C   UNL     1      19.983  11.364  13.974  0.00  0.00    +0.007 A 
ATOM     32  C   UNL     1      22.251  12.499  15.134  0.00  0.00    +0.027 A 
ATOM     33  C   UNL     1      21.046  10.551  14.364  0.00  0.00    +0.027 A 
ATOM     35  C   UNL     1      22.181  11.119  14.945  0.00  0.00    +0.088 A 
BRANCH  35   1
ATOM      1  S   UNL     1      23.511  10.101  15.439  0.00  0.00    -0.006 S 
ATOM      4  O   UNL     1      23.483   9.958  16.888  0.00  0.00    -0.170 OA
ATOM      5  O   UNL     1      23.503   8.915  14.595  0.00  0.00    -0.170 OA
ATOM     36  C   UNL     1      24.964  11.046  15.040  0.00  0.00    +0.200 C 
ENDBRANCH  35   1
ENDBRANCH  16  23
ENDBRANCH   6  16
ENDBRANCH  20  12
TORSDOF 6
ENDMDL
MODEL 10
REMARK VINA RESULT:      -7.5     28.057     32.141
REMARK  Name = 45783538
REMARK  7 active torsions:
REMARK  status: ('A' for Active; 'I' for Inactive)
REMARK    1  A    between atoms: S_1  and  C_35
REMARK    2  A    between atoms: S_1  and  C_36
REMARK    3  A    between atoms: N_6  and  C_16
REMARK    4  A    between atoms: C_12  and  C_20
REMARK    5  A    between atoms: C_16  and  C_23
REMARK    6  A    between atoms: C_17  and  C_25
REMARK    7  A    between atoms: C_26  and  C_29
REMARK                            x       y       z     vdW  Elec       q    Type
REMARK                         _______ _______ _______ _____ _____    ______ ____
ROOT
ATOM      2  O   UNL     1      11.994   8.786   6.985  0.00  0.00    -0.336 OA
ATOM      8  N   UNL     1      12.964   7.147   5.807  0.00  0.00    -0.190 NA
ATOM      9  N   UNL     1      13.289   9.232   6.690  0.00  0.00    -0.056 NA
ATOM     20  C   UNL     1      11.886   7.551   6.429  0.00  0.00    +0.245 A 
ATOM     26  C   UNL     1      13.797   8.210   5.994  0.00  0.00    +0.204 A 
ENDROOT
BRANCH  26  29
ATOM      7  N   UNL     1      18.946   8.222   3.889  0.00  0.00    -0.315 N 
ATOM     10  N   UNL     1      16.624   7.859   3.604  0.00  0.00    -0.240 NA
ATOM     17  C   UNL     1      21.614   8.252   2.745  0.00  0.00    +0.078 C 
ATOM     18  C   UNL     1      21.370   7.918   4.216  0.00  0.00    +0.031 C 
ATOM     19  C   UNL     1      20.478   9.098   2.173  0.00  0.00    +0.031 C 
ATOM     21  C   UNL     1      19.970   7.364   4.490  0.00  0.00    +0.107 C 
ATOM     22  C   UNL     1      19.097   8.509   2.458  0.00  0.00    +0.107 C 
ATOM     24  C   UNL     1      17.647   8.216   4.413  0.00  0.00    +0.121 A 
ATOM     29  C   UNL     1      15.133   8.221   5.473  0.00  0.00    +0.041 A 
ATOM     30  C   UNL     1      17.495   8.584   5.740  0.00  0.00    +0.044 A 
ATOM     31  C   UNL     1      16.211   8.583   6.273  0.00  0.00    +0.016 A 
ATOM     34  C   UNL     1      15.390   7.870   4.158  0.00  0.00    +0.124 A 
BRANCH  17  25
ATOM      3  O   UNL     1      21.462   6.941   0.750  0.00  0.00    -0.276 OA
ATOM     11  N   UNL     1      22.392   5.974   2.618  0.00  0.00    -0.329 N 
ATOM     25  C   UNL     1      21.811   7.010   1.925  0.00  0.00    +0.214 C 
ATOM     37  H   UNL     1      22.576   5.086   2.164  0.00  0.00    +0.145 HD
ATOM     38  H   UNL     1      22.618   6.029   3.606  0.00  0.00    +0.145 HD
ENDBRANCH  17  25
ENDBRANCH  26  29
BRANCH  20  12
ATOM      6  N   UNL     1      10.448   5.625   5.786  0.00  0.00    -0.287 NA
ATOM     12  C   UNL     1      10.559   6.845   6.610  0.00  0.00    +0.146 C 
ATOM     13  C   UNL     1      10.333   6.362   8.055  0.00  0.00    +0.030 C 
ATOM     14  C   UNL     1      10.044   4.873   7.936  0.00  0.00    +0.017 C 
ATOM     15  C   UNL     1       9.558   4.717   6.510  0.00  0.00    +0.085 C 
BRANCH   6  16
ATOM     16  C   UNL     1       9.980   5.887   4.431  0.00  0.00    +0.120 C 
BRANCH  16  23
ATOM     23  C   UNL     1      10.970   5.425   3.396  0.00  0.00    -0.033 A 
ATOM     27  C   UNL     1      11.069   4.069   3.081  0.00  0.00    +0.007 A 
ATOM     28  C   UNL     1      11.789   6.352   2.750  0.00  0.00    +0.007 A 
ATOM     32  C   UNL     1      11.986   3.641   2.122  0.00  0.00    +0.027 A 
ATOM     33  C   UNL     1      12.706   5.924   1.792  0.00  0.00    +0.027 A 
ATOM     35  C   UNL     1      12.804   4.568   1.477  0.00  0.00    +0.088 A 
BRANCH  35   1
ATOM      1  S   UNL     1      13.950   4.033   0.273  0.00  0.00    -0.006 S 
ATOM      4  O   UNL     1      15.188   3.649   0.937  0.00  0.00    -0.170 OA
ATOM      5  O   UNL     1      13.272   3.082  -0.597  0.00  0.00    -0.170 OA
ATOM     36  C   UNL     1      14.305   5.491  -0.681  0.00  0.00    +0.200 C 
ENDBRANCH  35   1
ENDBRANCH  16  23
ENDBRANCH   6  16
ENDBRANCH  20  12
TORSDOF 6
ENDMDL
