MODEL 1
REMARK VINA RESULT:      -6.5      0.000      0.000
REMARK  Name = 7156507
REMARK  11 active torsions:
REMARK  status: ('A' for Active; 'I' for Inactive)
REMARK    1  A    between atoms: O_2  and  C_13
REMARK    2  A    between atoms: O_3  and  C_18
REMARK    3  A    between atoms: N_6  and  C_25
REMARK    4  A    between atoms: C_8  and  C_16
REMARK    5  A    between atoms: C_10  and  C_18
REMARK    6  A    between atoms: C_10  and  C_19
REMARK    7  A    between atoms: C_11  and  C_21
REMARK    8  A    between atoms: C_21  and  C_22
REMARK    9  A    between atoms: C_23  and  C_24
REMARK   10  A    between atoms: C_25  and  C_28
REMARK   11  A    between atoms: C_25  and  C_29
REMARK                            x       y       z     vdW  Elec       q    Type
REMARK                         _______ _______ _______ _____ _____    ______ ____
ROOT
ATOM      1  S   UNL     1      -7.972  -9.727  12.500  0.00  0.00    -0.072 S 
ATOM      5  N   UNL     1      -5.923  -9.922  14.067  0.00  0.00    -0.243 NA
ATOM      8  C   UNL     1      -8.373 -10.005  17.044  0.00  0.00    -0.020 C 
ATOM      9  C   UNL     1      -9.512 -10.715  16.188  0.00  0.00    +0.011 C 
ATOM     10  C   UNL     1     -10.909 -10.924  16.890  0.00  0.00    +0.021 C 
ATOM     11  C   UNL     1      -6.971 -10.291  16.332  0.00  0.00    +0.053 C 
ATOM     12  C   UNL     1      -8.334 -10.624  18.466  0.00  0.00    +0.010 C 
ATOM     13  C   UNL     1     -10.686 -11.504  18.314  0.00  0.00    +0.123 C 
ATOM     14  C   UNL     1      -9.613 -10.107  14.760  0.00  0.00    +0.049 C 
ATOM     15  C   UNL     1      -9.695 -10.695  19.144  0.00  0.00    +0.032 C 
ATOM     16  C   UNL     1      -8.582  -8.476  17.173  0.00  0.00    +0.012 C 
ATOM     17  C   UNL     1      -7.058 -10.049  14.847  0.00  0.00    +0.056 A 
ATOM     19  C   UNL     1     -11.729 -11.973  16.087  0.00  0.00    +0.016 C 
ATOM     20  C   UNL     1      -8.253  -9.989  14.159  0.00  0.00    +0.014 A 
ATOM     23  C   UNL     1      -6.284  -9.741  12.815  0.00  0.00    +0.110 A 
ENDROOT
BRANCH  23  24
ATOM      7  N   UNL     1      -4.926  -8.587   9.546  0.00  0.00    -0.263 NA
ATOM     24  C   UNL     1      -5.373  -9.559  11.710  0.00  0.00    +0.025 A 
ATOM     26  C   UNL     1      -4.114 -10.144  11.720  0.00  0.00    +0.013 A 
ATOM     27  C   UNL     1      -5.730  -8.797  10.613  0.00  0.00    +0.121 A 
ATOM     30  C   UNL     1      -3.258  -9.952  10.642  0.00  0.00    +0.020 A 
ATOM     31  C   UNL     1      -3.707  -9.172   9.589  0.00  0.00    +0.111 A 
ENDBRANCH  23  24
BRANCH  13   2
ATOM      2  O   UNL     1     -11.922 -11.584  19.025  0.00  0.00    -0.391 OA
ATOM     37  H   UNL     1     -12.199 -10.677  19.238  0.00  0.00    +0.210 HD
ENDBRANCH  13   2
BRANCH  10  18
ATOM     18  C   UNL     1     -11.794  -9.659  16.943  0.00  0.00    +0.165 C 
BRANCH  18   3
ATOM      3  O   UNL     1     -13.139 -10.068  16.831  0.00  0.00    -0.394 OA
ATOM     38  H   UNL     1     -13.595  -9.836  17.658  0.00  0.00    +0.209 HD
ENDBRANCH  18   3
ENDBRANCH  10  18
BRANCH  11  21
ATOM     21  C   UNL     1      -5.778  -9.552  16.953  0.00  0.00    +0.106 C 
BRANCH  21  22
ATOM      4  O   UNL     1      -4.365 -11.190  18.038  0.00  0.00    -0.276 OA
ATOM      6  N   UNL     1      -3.723 -10.297  15.991  0.00  0.00    -0.309 N 
ATOM     22  C   UNL     1      -4.565 -10.444  17.083  0.00  0.00    +0.214 C 
ATOM     39  H   UNL     1      -4.026  -9.730  15.205  0.00  0.00    +0.149 HD
BRANCH   6  25
ATOM     25  C   UNL     1      -2.482 -11.024  15.846  0.00  0.00    +0.100 C 
ATOM     28  C   UNL     1      -1.328 -10.052  15.612  0.00  0.00    +0.033 C 
BRANCH  25  29
ATOM     29  C   UNL     1      -2.582 -12.079  14.765  0.00  0.00    -0.027 A 
ATOM     32  C   UNL     1      -3.794 -12.709  14.546  0.00  0.00    +0.005 A 
ATOM     33  C   UNL     1      -1.458 -12.390  14.018  0.00  0.00    +0.005 A 
ATOM     34  C   UNL     1      -3.886 -13.681  13.550  0.00  0.00    +0.000 A 
ATOM     35  C   UNL     1      -1.550 -13.361  13.022  0.00  0.00    +0.000 A 
ATOM     36  C   UNL     1      -2.764 -14.006  12.788  0.00  0.00    +0.000 A 
ENDBRANCH  25  29
ENDBRANCH   6  25
ENDBRANCH  21  22
ENDBRANCH  11  21
TORSDOF 8
ENDMDL
MODEL 2
REMARK VINA RESULT:      -6.4     29.406     31.768
REMARK  Name = 7156507
REMARK  11 active torsions:
REMARK  status: ('A' for Active; 'I' for Inactive)
REMARK    1  A    between atoms: O_2  and  C_13
REMARK    2  A    between atoms: O_3  and  C_18
REMARK    3  A    between atoms: N_6  and  C_25
REMARK    4  A    between atoms: C_8  and  C_16
REMARK    5  A    between atoms: C_10  and  C_18
REMARK    6  A    between atoms: C_10  and  C_19
REMARK    7  A    between atoms: C_11  and  C_21
REMARK    8  A    between atoms: C_21  and  C_22
REMARK    9  A    between atoms: C_23  and  C_24
REMARK   10  A    between atoms: C_25  and  C_28
REMARK   11  A    between atoms: C_25  and  C_29
REMARK                            x       y       z     vdW  Elec       q    Type
REMARK                         _______ _______ _______ _____ _____    ______ ____
ROOT
ATOM      1  S   UNL     1      -6.291   8.242  41.840  0.00  0.00    -0.072 S 
ATOM      5  N   UNL     1      -6.625   9.364  39.532  0.00  0.00    -0.243 NA
ATOM      8  C   UNL     1      -2.925   8.591  38.767  0.00  0.00    -0.020 C 
ATOM      9  C   UNL     1      -2.934   7.274  39.662  0.00  0.00    +0.011 C 
ATOM     10  C   UNL     1      -1.558   6.524  39.845  0.00  0.00    +0.021 C 
ATOM     11  C   UNL     1      -4.435   8.920  38.360  0.00  0.00    +0.053 C 
ATOM     12  C   UNL     1      -2.116   8.329  37.470  0.00  0.00    +0.010 C 
ATOM     13  C   UNL     1      -0.861   6.387  38.462  0.00  0.00    +0.123 C 
ATOM     14  C   UNL     1      -3.709   7.495  40.993  0.00  0.00    +0.049 C 
ATOM     15  C   UNL     1      -0.746   7.710  37.713  0.00  0.00    +0.032 C 
ATOM     16  C   UNL     1      -2.311   9.811  39.498  0.00  0.00    +0.012 C 
ATOM     17  C   UNL     1      -5.351   8.827  39.554  0.00  0.00    +0.056 A 
ATOM     19  C   UNL     1      -1.830   5.086  40.370  0.00  0.00    +0.016 C 
ATOM     20  C   UNL     1      -5.012   8.167  40.718  0.00  0.00    +0.014 A 
ATOM     23  C   UNL     1      -7.210   9.122  40.685  0.00  0.00    +0.110 A 
ENDROOT
BRANCH  23  24
ATOM      7  N   UNL     1     -10.190   9.952  42.758  0.00  0.00    -0.263 NA
ATOM     24  C   UNL     1      -8.546   9.538  41.038  0.00  0.00    +0.025 A 
ATOM     26  C   UNL     1      -9.457   9.916  40.061  0.00  0.00    +0.013 A 
ATOM     27  C   UNL     1      -8.954   9.573  42.360  0.00  0.00    +0.121 A 
ATOM     30  C   UNL     1     -10.737  10.312  40.430  0.00  0.00    +0.020 A 
ATOM     31  C   UNL     1     -11.051  10.312  41.779  0.00  0.00    +0.111 A 
ENDBRANCH  23  24
BRANCH  13   2
ATOM      2  O   UNL     1       0.445   5.828  38.610  0.00  0.00    -0.391 OA
ATOM     37  H   UNL     1       0.962   6.431  39.170  0.00  0.00    +0.210 HD
ENDBRANCH  13   2
BRANCH  10  18
ATOM     18  C   UNL     1      -0.609   7.171  40.878  0.00  0.00    +0.165 C 
BRANCH  18   3
ATOM      3  O   UNL     1       0.126   6.137  41.495  0.00  0.00    -0.394 OA
ATOM     38  H   UNL     1      -0.127   6.106  42.433  0.00  0.00    +0.209 HD
ENDBRANCH  18   3
ENDBRANCH  10  18
BRANCH  11  21
ATOM     21  C   UNL     1      -4.619  10.248  37.613  0.00  0.00    +0.106 C 
BRANCH  21  22
ATOM      4  O   UNL     1      -4.920   9.954  35.230  0.00  0.00    -0.276 OA
ATOM      6  N   UNL     1      -6.783  10.085  36.614  0.00  0.00    -0.309 N 
ATOM     22  C   UNL     1      -5.422  10.078  36.345  0.00  0.00    +0.214 C 
ATOM     39  H   UNL     1      -7.096  10.091  37.581  0.00  0.00    +0.149 HD
BRANCH   6  25
ATOM     25  C   UNL     1      -7.792   9.944  35.590  0.00  0.00    +0.100 C 
ATOM     28  C   UNL     1      -8.143  11.311  35.007  0.00  0.00    +0.033 C 
BRANCH  25  29
ATOM     29  C   UNL     1      -9.006   9.204  36.107  0.00  0.00    -0.027 A 
ATOM     32  C   UNL     1      -8.830   8.131  36.964  0.00  0.00    +0.005 A 
ATOM     33  C   UNL     1     -10.268   9.615  35.713  0.00  0.00    +0.005 A 
ATOM     34  C   UNL     1      -9.949   7.448  37.440  0.00  0.00    +0.000 A 
ATOM     35  C   UNL     1     -11.387   8.934  36.189  0.00  0.00    +0.000 A 
ATOM     36  C   UNL     1     -11.227   7.850  37.054  0.00  0.00    +0.000 A 
ENDBRANCH  25  29
ENDBRANCH   6  25
ENDBRANCH  21  22
ENDBRANCH  11  21
TORSDOF 8
ENDMDL
MODEL 3
REMARK VINA RESULT:      -6.4     25.866     27.792
REMARK  Name = 7156507
REMARK  11 active torsions:
REMARK  status: ('A' for Active; 'I' for Inactive)
REMARK    1  A    between atoms: O_2  and  C_13
REMARK    2  A    between atoms: O_3  and  C_18
REMARK    3  A    between atoms: N_6  and  C_25
REMARK    4  A    between atoms: C_8  and  C_16
REMARK    5  A    between atoms: C_10  and  C_18
REMARK    6  A    between atoms: C_10  and  C_19
REMARK    7  A    between atoms: C_11  and  C_21
REMARK    8  A    between atoms: C_21  and  C_22
REMARK    9  A    between atoms: C_23  and  C_24
REMARK   10  A    between atoms: C_25  and  C_28
REMARK   11  A    between atoms: C_25  and  C_29
REMARK                            x       y       z     vdW  Elec       q    Type
REMARK                         _______ _______ _______ _____ _____    ______ ____
ROOT
ATOM      1  S   UNL     1      18.039  -2.613  29.866  0.00  0.00    -0.072 S 
ATOM      5  N   UNL     1      18.047  -4.158  27.791  0.00  0.00    -0.243 NA
ATOM      8  C   UNL     1      15.792  -6.592  29.757  0.00  0.00    -0.020 C 
ATOM      9  C   UNL     1      15.109  -5.414  30.583  0.00  0.00    +0.011 C 
ATOM     10  C   UNL     1      14.098  -5.831  31.719  0.00  0.00    +0.021 C 
ATOM     11  C   UNL     1      16.402  -5.965  28.420  0.00  0.00    +0.053 C 
ATOM     12  C   UNL     1      14.718  -7.636  29.361  0.00  0.00    +0.010 C 
ATOM     13  C   UNL     1      13.126  -6.913  31.170  0.00  0.00    +0.123 C 
ATOM     14  C   UNL     1      16.154  -4.353  31.032  0.00  0.00    +0.049 C 
ATOM     15  C   UNL     1      13.844  -8.092  30.521  0.00  0.00    +0.032 C 
ATOM     16  C   UNL     1      16.915  -7.308  30.548  0.00  0.00    +0.012 C 
ATOM     17  C   UNL     1      17.175  -4.704  28.714  0.00  0.00    +0.056 A 
ATOM     19  C   UNL     1      13.240  -4.596  32.113  0.00  0.00    +0.016 C 
ATOM     20  C   UNL     1      17.034  -3.987  29.884  0.00  0.00    +0.014 A 
ATOM     23  C   UNL     1      18.565  -3.058  28.292  0.00  0.00    +0.110 A 
ENDROOT
BRANCH  23  24
ATOM      7  N   UNL     1      21.392  -0.690  27.775  0.00  0.00    -0.263 NA
ATOM     24  C   UNL     1      19.527  -2.216  27.621  0.00  0.00    +0.025 A 
ATOM     26  C   UNL     1      19.537  -2.107  26.238  0.00  0.00    +0.013 A 
ATOM     27  C   UNL     1      20.465  -1.496  28.340  0.00  0.00    +0.121 A 
ATOM     30  C   UNL     1      20.474  -1.289  25.619  0.00  0.00    +0.020 A 
ATOM     31  C   UNL     1      21.372  -0.607  26.425  0.00  0.00    +0.111 A 
ENDBRANCH  23  24
BRANCH  13   2
ATOM      2  O   UNL     1      12.281  -7.406  32.210  0.00  0.00    -0.391 OA
ATOM     37  H   UNL     1      11.928  -8.265  31.921  0.00  0.00    +0.210 HD
ENDBRANCH  13   2
BRANCH  10  18
ATOM     18  C   UNL     1      14.767  -6.306  33.029  0.00  0.00    +0.165 C 
BRANCH  18   3
ATOM      3  O   UNL     1      13.953  -5.894  34.104  0.00  0.00    -0.394 OA
ATOM     38  H   UNL     1      13.538  -6.684  34.489  0.00  0.00    +0.209 HD
ENDBRANCH  18   3
ENDBRANCH  10  18
BRANCH  11  21
ATOM     21  C   UNL     1      17.228  -6.945  27.575  0.00  0.00    +0.106 C 
BRANCH  21  22
ATOM      4  O   UNL     1      16.031  -7.721  25.620  0.00  0.00    -0.276 OA
ATOM      6  N   UNL     1      17.455  -5.893  25.443  0.00  0.00    -0.309 N 
ATOM     22  C   UNL     1      16.819  -6.923  26.120  0.00  0.00    +0.214 C 
ATOM     39  H   UNL     1      18.010  -5.224  25.967  0.00  0.00    +0.149 HD
BRANCH   6  25
ATOM     25  C   UNL     1      17.256  -5.633  24.035  0.00  0.00    +0.100 C 
ATOM     28  C   UNL     1      18.315  -6.364  23.212  0.00  0.00    +0.033 C 
BRANCH  25  29
ATOM     29  C   UNL     1      17.219  -4.148  23.746  0.00  0.00    -0.027 A 
ATOM     32  C   UNL     1      17.966  -3.645  22.696  0.00  0.00    +0.005 A 
ATOM     33  C   UNL     1      16.437  -3.325  24.539  0.00  0.00    +0.005 A 
ATOM     34  C   UNL     1      17.933  -2.276  22.430  0.00  0.00    +0.000 A 
ATOM     35  C   UNL     1      16.402  -1.956  24.273  0.00  0.00    +0.000 A 
ATOM     36  C   UNL     1      17.150  -1.432  23.218  0.00  0.00    +0.000 A 
ENDBRANCH  25  29
ENDBRANCH   6  25
ENDBRANCH  21  22
ENDBRANCH  11  21
TORSDOF 8
ENDMDL
MODEL 4
REMARK VINA RESULT:      -6.3     25.619     29.979
REMARK  Name = 7156507
REMARK  11 active torsions:
REMARK  status: ('A' for Active; 'I' for Inactive)
REMARK    1  A    between atoms: O_2  and  C_13
REMARK    2  A    between atoms: O_3  and  C_18
REMARK    3  A    between atoms: N_6  and  C_25
REMARK    4  A    between atoms: C_8  and  C_16
REMARK    5  A    between atoms: C_10  and  C_18
REMARK    6  A    between atoms: C_10  and  C_19
REMARK    7  A    between atoms: C_11  and  C_21
REMARK    8  A    between atoms: C_21  and  C_22
REMARK    9  A    between atoms: C_23  and  C_24
REMARK   10  A    between atoms: C_25  and  C_28
REMARK   11  A    between atoms: C_25  and  C_29
REMARK                            x       y       z     vdW  Elec       q    Type
REMARK                         _______ _______ _______ _____ _____    ______ ____
ROOT
ATOM      1  S   UNL     1       9.928   5.375   3.244  0.00  0.00    -0.072 S 
ATOM      5  N   UNL     1      12.095   6.606   3.936  0.00  0.00    -0.243 NA
ATOM      8  C   UNL     1      13.848   4.937   0.934  0.00  0.00    -0.020 C 
ATOM      9  C   UNL     1      12.510   4.904   0.072  0.00  0.00    +0.011 C 
ATOM     10  C   UNL     1      12.577   4.172  -1.325  0.00  0.00    +0.021 C 
ATOM     11  C   UNL     1      13.685   6.067   2.052  0.00  0.00    +0.053 C 
ATOM     12  C   UNL     1      15.041   5.322   0.021  0.00  0.00    +0.010 C 
ATOM     13  C   UNL     1      13.850   4.637  -2.086  0.00  0.00    +0.123 C 
ATOM     14  C   UNL     1      11.285   4.491   0.937  0.00  0.00    +0.049 C 
ATOM     15  C   UNL     1      15.126   4.505  -1.260  0.00  0.00    +0.032 C 
ATOM     16  C   UNL     1      14.159   3.580   1.614  0.00  0.00    +0.012 C 
ATOM     17  C   UNL     1      12.347   5.959   2.740  0.00  0.00    +0.056 A 
ATOM     19  C   UNL     1      11.348   4.595  -2.178  0.00  0.00    +0.016 C 
ATOM     20  C   UNL     1      11.279   5.263   2.214  0.00  0.00    +0.014 A 
ATOM     23  C   UNL     1      10.855   6.364   4.299  0.00  0.00    +0.110 A 
ENDROOT
BRANCH  23  24
ATOM      7  N   UNL     1      10.475   7.826   7.703  0.00  0.00    -0.263 NA
ATOM     24  C   UNL     1      10.232   6.864   5.502  0.00  0.00    +0.025 A 
ATOM     26  C   UNL     1       8.850   6.876   5.636  0.00  0.00    +0.013 A 
ATOM     27  C   UNL     1      10.995   7.344   6.551  0.00  0.00    +0.121 A 
ATOM     30  C   UNL     1       8.278   7.363   6.805  0.00  0.00    +0.020 A 
ATOM     31  C   UNL     1       9.126   7.822   7.800  0.00  0.00    +0.111 A 
ENDBRANCH  23  24
BRANCH  13   2
ATOM      2  O   UNL     1      14.010   3.898  -3.298  0.00  0.00    -0.391 OA
ATOM     37  H   UNL     1      13.795   4.493  -4.036  0.00  0.00    +0.210 HD
ENDBRANCH  13   2
BRANCH  10  18
ATOM     18  C   UNL     1      12.515   2.631  -1.243  0.00  0.00    +0.165 C 
BRANCH  18   3
ATOM      3  O   UNL     1      11.832   2.166  -2.386  0.00  0.00    -0.394 OA
ATOM     38  H   UNL     1      10.888   2.374  -2.280  0.00  0.00    +0.209 HD
ENDBRANCH  18   3
ENDBRANCH  10  18
BRANCH  11  21
ATOM     21  C   UNL     1      14.835   6.131   3.066  0.00  0.00    +0.106 C 
BRANCH  21  22
ATOM      4  O   UNL     1      14.977   8.524   2.738  0.00  0.00    -0.276 OA
ATOM      6  N   UNL     1      16.858   7.348   3.431  0.00  0.00    -0.309 N 
ATOM     22  C   UNL     1      15.530   7.473   3.051  0.00  0.00    +0.214 C 
ATOM     39  H   UNL     1      17.194   6.451   3.769  0.00  0.00    +0.149 HD
BRANCH   6  25
ATOM     25  C   UNL     1      17.767   8.469   3.504  0.00  0.00    +0.100 C 
ATOM     28  C   UNL     1      18.402   8.720   2.138  0.00  0.00    +0.033 C 
BRANCH  25  29
ATOM     29  C   UNL     1      18.797   8.275   4.596  0.00  0.00    -0.027 A 
ATOM     32  C   UNL     1      19.939   7.541   4.326  0.00  0.00    +0.005 A 
ATOM     33  C   UNL     1      18.575   8.836   5.842  0.00  0.00    +0.005 A 
ATOM     34  C   UNL     1      20.888   7.362   5.332  0.00  0.00    +0.000 A 
ATOM     35  C   UNL     1      19.523   8.658   6.849  0.00  0.00    +0.000 A 
ATOM     36  C   UNL     1      20.681   7.921   6.593  0.00  0.00    +0.000 A 
ENDBRANCH  25  29
ENDBRANCH   6  25
ENDBRANCH  21  22
ENDBRANCH  11  21
TORSDOF 8
ENDMDL
MODEL 5
REMARK VINA RESULT:      -6.0      4.126      9.609
REMARK  Name = 7156507
REMARK  11 active torsions:
REMARK  status: ('A' for Active; 'I' for Inactive)
REMARK    1  A    between atoms: O_2  and  C_13
REMARK    2  A    between atoms: O_3  and  C_18
REMARK    3  A    between atoms: N_6  and  C_25
REMARK    4  A    between atoms: C_8  and  C_16
REMARK    5  A    between atoms: C_10  and  C_18
REMARK    6  A    between atoms: C_10  and  C_19
REMARK    7  A    between atoms: C_11  and  C_21
REMARK    8  A    between atoms: C_21  and  C_22
REMARK    9  A    between atoms: C_23  and  C_24
REMARK   10  A    between atoms: C_25  and  C_28
REMARK   11  A    between atoms: C_25  and  C_29
REMARK                            x       y       z     vdW  Elec       q    Type
REMARK                         _______ _______ _______ _____ _____    ______ ____
ROOT
ATOM      1  S   UNL     1     -10.310 -12.501  20.126  0.00  0.00    -0.072 S 
ATOM      5  N   UNL     1     -10.785 -10.449  18.623  0.00  0.00    -0.243 NA
ATOM      8  C   UNL     1      -7.157 -10.714  17.342  0.00  0.00    -0.020 C 
ATOM      9  C   UNL     1      -7.124 -12.294  17.527  0.00  0.00    +0.011 C 
ATOM     10  C   UNL     1      -5.750 -13.019  17.251  0.00  0.00    +0.021 C 
ATOM     11  C   UNL     1      -8.686 -10.262  17.235  0.00  0.00    +0.053 C 
ATOM     12  C   UNL     1      -6.442 -10.333  16.019  0.00  0.00    +0.010 C 
ATOM     13  C   UNL     1      -5.151 -12.490  15.917  0.00  0.00    +0.123 C 
ATOM     14  C   UNL     1      -7.803 -12.726  18.858  0.00  0.00    +0.049 C 
ATOM     15  C   UNL     1      -5.068 -10.968  15.857  0.00  0.00    +0.032 C 
ATOM     16  C   UNL     1      -6.477  -9.957  18.510  0.00  0.00    +0.012 C 
ATOM     17  C   UNL     1      -9.520 -10.912  18.310  0.00  0.00    +0.056 A 
ATOM     19  C   UNL     1      -6.006 -14.541  17.071  0.00  0.00    +0.016 C 
ATOM     20  C   UNL     1      -9.113 -12.028  19.012  0.00  0.00    +0.014 A 
ATOM     23  C   UNL     1     -11.293 -11.206  19.571  0.00  0.00    +0.110 A 
ENDROOT
BRANCH  23  24
ATOM      7  N   UNL     1     -14.510 -11.994  21.272  0.00  0.00    -0.263 NA
ATOM     24  C   UNL     1     -12.596 -11.024  20.165  0.00  0.00    +0.025 A 
ATOM     26  C   UNL     1     -13.189  -9.769  20.214  0.00  0.00    +0.013 A 
ATOM     27  C   UNL     1     -13.288 -12.095  20.703  0.00  0.00    +0.121 A 
ATOM     30  C   UNL     1     -14.444  -9.624  20.792  0.00  0.00    +0.020 A 
ATOM     31  C   UNL     1     -15.058 -10.757  21.302  0.00  0.00    +0.111 A 
ENDBRANCH  23  24
BRANCH  13   2
ATOM      2  O   UNL     1      -3.847 -13.030  15.702  0.00  0.00    -0.391 OA
ATOM     37  H   UNL     1      -3.281 -12.736  16.437  0.00  0.00    +0.210 HD
ENDBRANCH  13   2
BRANCH  10  18
ATOM     18  C   UNL     1      -4.724 -12.904  18.400  0.00  0.00    +0.165 C 
BRANCH  18   3
ATOM      3  O   UNL     1      -4.035 -14.131  18.487  0.00  0.00    -0.394 OA
ATOM     38  H   UNL     1      -4.093 -14.572  17.623  0.00  0.00    +0.209 HD
ENDBRANCH  18   3
ENDBRANCH  10  18
BRANCH  11  21
ATOM     21  C   UNL     1      -8.901  -8.743  17.198  0.00  0.00    +0.106 C 
BRANCH  21  22
ATOM      4  O   UNL     1      -9.536  -8.346  14.898  0.00  0.00    -0.276 OA
ATOM      6  N   UNL     1     -11.067  -7.934  16.597  0.00  0.00    -0.309 N 
ATOM     22  C   UNL     1      -9.839  -8.330  16.088  0.00  0.00    +0.214 C 
ATOM     39  H   UNL     1     -11.253  -8.053  17.588  0.00  0.00    +0.149 HD
BRANCH   6  25
ATOM     25  C   UNL     1     -12.159  -7.483  15.765  0.00  0.00    +0.100 C 
ATOM     28  C   UNL     1     -12.145  -5.960  15.660  0.00  0.00    +0.033 C 
BRANCH  25  29
ATOM     29  C   UNL     1     -13.487  -8.020  16.256  0.00  0.00    -0.027 A 
ATOM     32  C   UNL     1     -13.598  -9.362  16.571  0.00  0.00    +0.005 A 
ATOM     33  C   UNL     1     -14.561  -7.155  16.379  0.00  0.00    +0.005 A 
ATOM     34  C   UNL     1     -14.821  -9.857  17.023  0.00  0.00    +0.000 A 
ATOM     35  C   UNL     1     -15.784  -7.649  16.832  0.00  0.00    +0.000 A 
ATOM     36  C   UNL     1     -15.914  -9.000  17.154  0.00  0.00    +0.000 A 
ENDBRANCH  25  29
ENDBRANCH   6  25
ENDBRANCH  21  22
ENDBRANCH  11  21
TORSDOF 8
ENDMDL
MODEL 6
REMARK VINA RESULT:      -6.0      2.273      3.722
REMARK  Name = 7156507
REMARK  11 active torsions:
REMARK  status: ('A' for Active; 'I' for Inactive)
REMARK    1  A    between atoms: O_2  and  C_13
REMARK    2  A    between atoms: O_3  and  C_18
REMARK    3  A    between atoms: N_6  and  C_25
REMARK    4  A    between atoms: C_8  and  C_16
REMARK    5  A    between atoms: C_10  and  C_18
REMARK    6  A    between atoms: C_10  and  C_19
REMARK    7  A    between atoms: C_11  and  C_21
REMARK    8  A    between atoms: C_21  and  C_22
REMARK    9  A    between atoms: C_23  and  C_24
REMARK   10  A    between atoms: C_25  and  C_28
REMARK   11  A    between atoms: C_25  and  C_29
REMARK                            x       y       z     vdW  Elec       q    Type
REMARK                         _______ _______ _______ _____ _____    ______ ____
ROOT
ATOM      1  S   UNL     1     -10.013 -10.154  13.587  0.00  0.00    -0.072 S 
ATOM      5  N   UNL     1      -7.447 -10.179  13.259  0.00  0.00    -0.243 NA
ATOM      8  C   UNL     1      -7.109 -11.073  16.995  0.00  0.00    -0.020 C 
ATOM      9  C   UNL     1      -8.493 -11.860  17.012  0.00  0.00    +0.011 C 
ATOM     10  C   UNL     1      -8.991 -12.401  18.408  0.00  0.00    +0.021 C 
ATOM     11  C   UNL     1      -6.596 -11.013  15.482  0.00  0.00    +0.053 C 
ATOM     12  C   UNL     1      -6.062 -11.851  17.834  0.00  0.00    +0.010 C 
ATOM     13  C   UNL     1      -7.812 -13.109  19.133  0.00  0.00    +0.123 C 
ATOM     14  C   UNL     1      -9.588 -11.103  16.207  0.00  0.00    +0.049 C 
ATOM     15  C   UNL     1      -6.555 -12.248  19.219  0.00  0.00    +0.032 C 
ATOM     16  C   UNL     1      -7.228  -9.634  17.556  0.00  0.00    +0.012 C 
ATOM     17  C   UNL     1      -7.707 -10.604  14.549  0.00  0.00    +0.056 A 
ATOM     19  C   UNL     1     -10.096 -13.468  18.173  0.00  0.00    +0.016 C 
ATOM     20  C   UNL     1      -9.042 -10.670  14.887  0.00  0.00    +0.014 A 
ATOM     23  C   UNL     1      -8.587  -9.908  12.661  0.00  0.00    +0.110 A 
ENDROOT
BRANCH  23  24
ATOM      7  N   UNL     1     -10.156  -8.820   9.464  0.00  0.00    -0.263 NA
ATOM     24  C   UNL     1      -8.718  -9.428  11.306  0.00  0.00    +0.025 A 
ATOM     26  C   UNL     1      -7.597  -9.118  10.548  0.00  0.00    +0.013 A 
ATOM     27  C   UNL     1      -9.964  -9.264  10.727  0.00  0.00    +0.121 A 
ATOM     30  C   UNL     1      -7.753  -8.659   9.246  0.00  0.00    +0.020 A 
ATOM     31  C   UNL     1      -9.042  -8.528   8.755  0.00  0.00    +0.111 A 
ENDBRANCH  23  24
BRANCH  13   2
ATOM      2  O   UNL     1      -8.193 -13.496  20.453  0.00  0.00    -0.391 OA
ATOM     37  H   UNL     1      -7.552 -13.107  21.072  0.00  0.00    +0.210 HD
ENDBRANCH  13   2
BRANCH  10  18
ATOM     18  C   UNL     1      -9.634 -11.330  19.317  0.00  0.00    +0.165 C 
BRANCH  18   3
ATOM      3  O   UNL     1     -10.768 -11.906  19.926  0.00  0.00    -0.394 OA
ATOM     38  H   UNL     1     -10.915 -11.458  20.776  0.00  0.00    +0.209 HD
ENDBRANCH  18   3
ENDBRANCH  10  18
BRANCH  11  21
ATOM     21  C   UNL     1      -5.339 -10.159  15.269  0.00  0.00    +0.106 C 
BRANCH  21  22
ATOM      4  O   UNL     1      -3.619 -11.820  14.897  0.00  0.00    -0.276 OA
ATOM      6  N   UNL     1      -4.191 -10.357  13.184  0.00  0.00    -0.309 N 
ATOM     22  C   UNL     1      -4.289 -10.887  14.462  0.00  0.00    +0.214 C 
ATOM     39  H   UNL     1      -4.860  -9.652  12.887  0.00  0.00    +0.149 HD
BRANCH   6  25
ATOM     25  C   UNL     1      -3.265 -10.854  12.191  0.00  0.00    +0.100 C 
ATOM     28  C   UNL     1      -1.857 -10.338  12.481  0.00  0.00    +0.033 C 
BRANCH  25  29
ATOM     29  C   UNL     1      -3.728 -10.524  10.789  0.00  0.00    -0.027 A 
ATOM     32  C   UNL     1      -3.656  -9.216  10.344  0.00  0.00    +0.005 A 
ATOM     33  C   UNL     1      -4.212 -11.538   9.980  0.00  0.00    +0.005 A 
ATOM     34  C   UNL     1      -4.083  -8.911   9.051  0.00  0.00    +0.000 A 
ATOM     35  C   UNL     1      -4.638 -11.235   8.688  0.00  0.00    +0.000 A 
ATOM     36  C   UNL     1      -4.573  -9.920   8.223  0.00  0.00    +0.000 A 
ENDBRANCH  25  29
ENDBRANCH   6  25
ENDBRANCH  21  22
ENDBRANCH  11  21
TORSDOF 8
ENDMDL
MODEL 7
REMARK VINA RESULT:      -6.0      3.328      7.083
REMARK  Name = 7156507
REMARK  11 active torsions:
REMARK  status: ('A' for Active; 'I' for Inactive)
REMARK    1  A    between atoms: O_2  and  C_13
REMARK    2  A    between atoms: O_3  and  C_18
REMARK    3  A    between atoms: N_6  and  C_25
REMARK    4  A    between atoms: C_8  and  C_16
REMARK    5  A    between atoms: C_10  and  C_18
REMARK    6  A    between atoms: C_10  and  C_19
REMARK    7  A    between atoms: C_11  and  C_21
REMARK    8  A    between atoms: C_21  and  C_22
REMARK    9  A    between atoms: C_23  and  C_24
REMARK   10  A    between atoms: C_25  and  C_28
REMARK   11  A    between atoms: C_25  and  C_29
REMARK                            x       y       z     vdW  Elec       q    Type
REMARK                         _______ _______ _______ _____ _____    ______ ____
ROOT
ATOM      1  S   UNL     1      -5.629 -10.785  12.644  0.00  0.00    -0.072 S 
ATOM      5  N   UNL     1      -7.815  -9.434  12.947  0.00  0.00    -0.243 NA
ATOM      8  C   UNL     1      -7.935 -10.696  16.589  0.00  0.00    -0.020 C 
ATOM      9  C   UNL     1      -6.349 -10.772  16.698  0.00  0.00    +0.011 C 
ATOM     10  C   UNL     1      -5.751 -11.378  18.026  0.00  0.00    +0.021 C 
ATOM     11  C   UNL     1      -8.300  -9.680  15.411  0.00  0.00    +0.053 C 
ATOM     12  C   UNL     1      -8.518 -10.136  17.913  0.00  0.00    +0.010 C 
ATOM     13  C   UNL     1      -6.474 -10.746  19.249  0.00  0.00    +0.123 C 
ATOM     14  C   UNL     1      -5.717 -11.357  15.402  0.00  0.00    +0.049 C 
ATOM     15  C   UNL     1      -7.994 -10.835  19.160  0.00  0.00    +0.032 C 
ATOM     16  C   UNL     1      -8.586 -12.072  16.302  0.00  0.00    +0.012 C 
ATOM     17  C   UNL     1      -7.473  -9.957  14.181  0.00  0.00    +0.056 A 
ATOM     19  C   UNL     1      -4.249 -10.993  18.128  0.00  0.00    +0.016 C 
ATOM     20  C   UNL     1      -6.308 -10.696  14.203  0.00  0.00    +0.014 A 
ATOM     23  C   UNL     1      -6.918  -9.810  12.061  0.00  0.00    +0.110 A 
ENDROOT
BRANCH  23  24
ATOM      7  N   UNL     1      -8.149  -8.527   8.790  0.00  0.00    -0.263 NA
ATOM     24  C   UNL     1      -6.944  -9.465  10.659  0.00  0.00    +0.025 A 
ATOM     26  C   UNL     1      -5.850  -9.717   9.843  0.00  0.00    +0.013 A 
ATOM     27  C   UNL     1      -8.060  -8.874  10.093  0.00  0.00    +0.121 A 
ATOM     30  C   UNL     1      -5.903  -9.375   8.498  0.00  0.00    +0.020 A 
ATOM     31  C   UNL     1      -7.065  -8.787   8.023  0.00  0.00    +0.111 A 
ENDBRANCH  23  24
BRANCH  13   2
ATOM      2  O   UNL     1      -6.048 -11.366  20.462  0.00  0.00    -0.391 OA
ATOM     37  H   UNL     1      -5.305 -10.847  20.814  0.00  0.00    +0.210 HD
ENDBRANCH  13   2
BRANCH  10  18
ATOM     18  C   UNL     1      -5.790 -12.920  18.100  0.00  0.00    +0.165 C 
BRANCH  18   3
ATOM      3  O   UNL     1      -4.522 -13.364  18.530  0.00  0.00    -0.394 OA
ATOM     38  H   UNL     1      -3.882 -12.650  18.369  0.00  0.00    +0.209 HD
ENDBRANCH  18   3
ENDBRANCH  10  18
BRANCH  11  21
ATOM     21  C   UNL     1      -9.796  -9.601  15.077  0.00  0.00    +0.106 C 
BRANCH  21  22
ATOM      4  O   UNL     1      -9.792  -7.368  16.010  0.00  0.00    -0.276 OA
ATOM      6  N   UNL     1     -11.605  -8.077  14.739  0.00  0.00    -0.309 N 
ATOM     22  C   UNL     1     -10.364  -8.226  15.343  0.00  0.00    +0.214 C 
ATOM     39  H   UNL     1     -11.947  -8.810  14.124  0.00  0.00    +0.149 HD
BRANCH   6  25
ATOM     25  C   UNL     1     -12.386  -6.865  14.828  0.00  0.00    +0.100 C 
ATOM     28  C   UNL     1     -13.795  -7.183  15.324  0.00  0.00    +0.033 C 
BRANCH  25  29
ATOM     29  C   UNL     1     -12.388  -6.111  13.516  0.00  0.00    -0.027 A 
ATOM     32  C   UNL     1     -12.275  -4.732  13.529  0.00  0.00    +0.005 A 
ATOM     33  C   UNL     1     -12.502  -6.817  12.331  0.00  0.00    +0.005 A 
ATOM     34  C   UNL     1     -12.278  -4.037  12.319  0.00  0.00    +0.000 A 
ATOM     35  C   UNL     1     -12.503  -6.123  11.121  0.00  0.00    +0.000 A 
ATOM     36  C   UNL     1     -12.391  -4.732  11.116  0.00  0.00    +0.000 A 
ENDBRANCH  25  29
ENDBRANCH   6  25
ENDBRANCH  21  22
ENDBRANCH  11  21
TORSDOF 8
ENDMDL
MODEL 8
REMARK VINA RESULT:      -5.9      1.790      2.514
REMARK  Name = 7156507
REMARK  11 active torsions:
REMARK  status: ('A' for Active; 'I' for Inactive)
REMARK    1  A    between atoms: O_2  and  C_13
REMARK    2  A    between atoms: O_3  and  C_18
REMARK    3  A    between atoms: N_6  and  C_25
REMARK    4  A    between atoms: C_8  and  C_16
REMARK    5  A    between atoms: C_10  and  C_18
REMARK    6  A    between atoms: C_10  and  C_19
REMARK    7  A    between atoms: C_11  and  C_21
REMARK    8  A    between atoms: C_21  and  C_22
REMARK    9  A    between atoms: C_23  and  C_24
REMARK   10  A    between atoms: C_25  and  C_28
REMARK   11  A    between atoms: C_25  and  C_29
REMARK                            x       y       z     vdW  Elec       q    Type
REMARK                         _______ _______ _______ _____ _____    ______ ____
ROOT
ATOM      1  S   UNL     1      -9.215  -9.541  12.655  0.00  0.00    -0.072 S 
ATOM      5  N   UNL     1      -7.561 -10.114  14.560  0.00  0.00    -0.243 NA
ATOM      8  C   UNL     1     -10.395  -9.365  17.067  0.00  0.00    -0.020 C 
ATOM      9  C   UNL     1     -11.525  -9.836  16.050  0.00  0.00    +0.011 C 
ATOM     10  C   UNL     1     -13.023  -9.640  16.504  0.00  0.00    +0.021 C 
ATOM     11  C   UNL     1      -9.017 -10.040  16.620  0.00  0.00    +0.053 C 
ATOM     12  C   UNL     1     -10.742  -9.864  18.493  0.00  0.00    +0.010 C 
ATOM     13  C   UNL     1     -13.186 -10.148  17.965  0.00  0.00    +0.123 C 
ATOM     14  C   UNL     1     -11.237  -9.332  14.606  0.00  0.00    +0.049 C 
ATOM     15  C   UNL     1     -12.166  -9.546  18.927  0.00  0.00    +0.032 C 
ATOM     16  C   UNL     1     -10.224  -7.826  17.107  0.00  0.00    +0.012 C 
ATOM     17  C   UNL     1      -8.800  -9.898  15.135  0.00  0.00    +0.056 A 
ATOM     19  C   UNL     1     -13.943 -10.514  15.607  0.00  0.00    +0.016 C 
ATOM     20  C   UNL     1      -9.814  -9.598  14.248  0.00  0.00    +0.014 A 
ATOM     23  C   UNL     1      -7.658  -9.946  13.260  0.00  0.00    +0.110 A 
ENDROOT
BRANCH  23  24
ATOM      7  N   UNL     1      -4.888  -9.017  10.951  0.00  0.00    -0.263 NA
ATOM     24  C   UNL     1      -6.567 -10.079  12.324  0.00  0.00    +0.025 A 
ATOM     26  C   UNL     1      -6.141 -11.330  11.899  0.00  0.00    +0.013 A 
ATOM     27  C   UNL     1      -5.916  -8.963  11.829  0.00  0.00    +0.121 A 
ATOM     30  C   UNL     1      -5.087 -11.427  10.997  0.00  0.00    +0.020 A 
ATOM     31  C   UNL     1      -4.500 -10.252  10.557  0.00  0.00    +0.111 A 
ENDBRANCH  23  24
BRANCH  13   2
ATOM      2  O   UNL     1     -14.498  -9.866  18.452  0.00  0.00    -0.391 OA
ATOM     37  H   UNL     1     -14.405  -9.346  19.268  0.00  0.00    +0.210 HD
ENDBRANCH  13   2
BRANCH  10  18
ATOM     18  C   UNL     1     -13.552  -8.196  16.360  0.00  0.00    +0.165 C 
BRANCH  18   3
ATOM      3  O   UNL     1     -14.920  -8.269  16.028  0.00  0.00    -0.394 OA
ATOM     38  H   UNL     1     -15.279  -7.366  16.025  0.00  0.00    +0.209 HD
ENDBRANCH  18   3
ENDBRANCH  10  18
BRANCH  11  21
ATOM     21  C   UNL     1      -7.790  -9.572  17.414  0.00  0.00    +0.106 C 
BRANCH  21  22
ATOM      4  O   UNL     1      -7.067 -11.691  18.332  0.00  0.00    -0.276 OA
ATOM      6  N   UNL     1      -5.601 -10.447  17.026  0.00  0.00    -0.309 N 
ATOM     22  C   UNL     1      -6.810 -10.697  17.658  0.00  0.00    +0.214 C 
ATOM     39  H   UNL     1      -5.522  -9.645  16.408  0.00  0.00    +0.149 HD
BRANCH   6  25
ATOM     25  C   UNL     1      -4.475 -11.352  17.089  0.00  0.00    +0.100 C 
ATOM     28  C   UNL     1      -3.936 -11.420  18.516  0.00  0.00    +0.033 C 
BRANCH  25  29
ATOM     29  C   UNL     1      -3.409 -10.978  16.082  0.00  0.00    -0.027 A 
ATOM     32  C   UNL     1      -2.113 -10.768  16.518  0.00  0.00    +0.005 A 
ATOM     33  C   UNL     1      -3.753 -10.856  14.747  0.00  0.00    +0.005 A 
ATOM     34  C   UNL     1      -1.129 -10.423  15.590  0.00  0.00    +0.000 A 
ATOM     35  C   UNL     1      -2.771 -10.512  13.819  0.00  0.00    +0.000 A 
ATOM     36  C   UNL     1      -1.459 -10.296  14.241  0.00  0.00    +0.000 A 
ENDBRANCH  25  29
ENDBRANCH   6  25
ENDBRANCH  21  22
ENDBRANCH  11  21
TORSDOF 8
ENDMDL
MODEL 9
REMARK VINA RESULT:      -5.9      2.896      7.692
REMARK  Name = 7156507
REMARK  11 active torsions:
REMARK  status: ('A' for Active; 'I' for Inactive)
REMARK    1  A    between atoms: O_2  and  C_13
REMARK    2  A    between atoms: O_3  and  C_18
REMARK    3  A    between atoms: N_6  and  C_25
REMARK    4  A    between atoms: C_8  and  C_16
REMARK    5  A    between atoms: C_10  and  C_18
REMARK    6  A    between atoms: C_10  and  C_19
REMARK    7  A    between atoms: C_11  and  C_21
REMARK    8  A    between atoms: C_21  and  C_22
REMARK    9  A    between atoms: C_23  and  C_24
REMARK   10  A    between atoms: C_25  and  C_28
REMARK   11  A    between atoms: C_25  and  C_29
REMARK                            x       y       z     vdW  Elec       q    Type
REMARK                         _______ _______ _______ _____ _____    ______ ____
ROOT
ATOM      1  S   UNL     1      -7.401 -10.401  11.616  0.00  0.00    -0.072 S 
ATOM      5  N   UNL     1      -8.503 -10.050  13.930  0.00  0.00    -0.243 NA
ATOM      8  C   UNL     1      -5.221 -11.288  15.534  0.00  0.00    -0.020 C 
ATOM      9  C   UNL     1      -4.333 -10.719  14.343  0.00  0.00    +0.011 C 
ATOM     10  C   UNL     1      -2.790 -11.045  14.382  0.00  0.00    +0.021 C 
ATOM     11  C   UNL     1      -6.608 -10.494  15.537  0.00  0.00    +0.053 C 
ATOM     12  C   UNL     1      -4.506 -11.024  16.884  0.00  0.00    +0.010 C 
ATOM     13  C   UNL     1      -2.244 -10.770  15.812  0.00  0.00    +0.123 C 
ATOM     14  C   UNL     1      -4.994 -10.987  12.960  0.00  0.00    +0.049 C 
ATOM     15  C   UNL     1      -3.049 -11.464  16.906  0.00  0.00    +0.032 C 
ATOM     16  C   UNL     1      -5.498 -12.807  15.407  0.00  0.00    +0.012 C 
ATOM     17  C   UNL     1      -7.183 -10.402  14.146  0.00  0.00    +0.056 A 
ATOM     19  C   UNL     1      -2.044 -10.087  13.411  0.00  0.00    +0.016 C 
ATOM     20  C   UNL     1      -6.437 -10.609  13.004  0.00  0.00    +0.014 A 
ATOM     23  C   UNL     1      -8.731 -10.024  12.635  0.00  0.00    +0.110 A 
ENDROOT
BRANCH  23  24
ATOM      7  N   UNL     1     -11.370  -9.626  10.038  0.00  0.00    -0.263 NA
ATOM     24  C   UNL     1     -10.001  -9.706  12.025  0.00  0.00    +0.025 A 
ATOM     26  C   UNL     1     -11.046  -9.194  12.781  0.00  0.00    +0.013 A 
ATOM     27  C   UNL     1     -10.208  -9.903  10.671  0.00  0.00    +0.121 A 
ATOM     30  C   UNL     1     -12.257  -8.897  12.167  0.00  0.00    +0.020 A 
ATOM     31  C   UNL     1     -12.368  -9.129  10.805  0.00  0.00    +0.111 A 
ENDBRANCH  23  24
BRANCH  13   2
ATOM      2  O   UNL     1      -0.880 -11.177  15.917  0.00  0.00    -0.391 OA
ATOM     37  H   UNL     1      -0.346 -10.381  16.084  0.00  0.00    +0.210 HD
ENDBRANCH  13   2
BRANCH  10  18
ATOM     18  C   UNL     1      -2.425 -12.473  13.919  0.00  0.00    +0.165 C 
BRANCH  18   3
ATOM      3  O   UNL     1      -1.431 -12.363  12.925  0.00  0.00    -0.394 OA
ATOM     38  H   UNL     1      -0.578 -12.213  13.366  0.00  0.00    +0.209 HD
ENDBRANCH  18   3
ENDBRANCH  10  18
BRANCH  11  21
ATOM     21  C   UNL     1      -7.644 -11.022  16.539  0.00  0.00    +0.106 C 
BRANCH  21  22
ATOM      4  O   UNL     1      -7.637  -9.199  18.130  0.00  0.00    -0.276 OA
ATOM      6  N   UNL     1      -9.626  -9.811  17.095  0.00  0.00    -0.309 N 
ATOM     22  C   UNL     1      -8.266  -9.910  17.350  0.00  0.00    +0.214 C 
ATOM     39  H   UNL     1     -10.034 -10.378  16.358  0.00  0.00    +0.149 HD
BRANCH   6  25
ATOM     25  C   UNL     1     -10.481  -8.835  17.733  0.00  0.00    +0.100 C 
ATOM     28  C   UNL     1     -11.499  -9.536  18.630  0.00  0.00    +0.033 C 
BRANCH  25  29
ATOM     29  C   UNL     1     -11.132  -7.922  16.718  0.00  0.00    -0.027 A 
ATOM     32  C   UNL     1     -12.464  -8.112  16.394  0.00  0.00    +0.005 A 
ATOM     33  C   UNL     1     -10.381  -6.915  16.134  0.00  0.00    +0.005 A 
ATOM     34  C   UNL     1     -13.064  -7.270  15.457  0.00  0.00    +0.000 A 
ATOM     35  C   UNL     1     -10.981  -6.073  15.199  0.00  0.00    +0.000 A 
ATOM     36  C   UNL     1     -12.323  -6.251  14.860  0.00  0.00    +0.000 A 
ENDBRANCH  25  29
ENDBRANCH   6  25
ENDBRANCH  21  22
ENDBRANCH  11  21
TORSDOF 8
ENDMDL
MODEL 10
REMARK VINA RESULT:      -5.9      4.060      7.903
REMARK  Name = 7156507
REMARK  11 active torsions:
REMARK  status: ('A' for Active; 'I' for Inactive)
REMARK    1  A    between atoms: O_2  and  C_13
REMARK    2  A    between atoms: O_3  and  C_18
REMARK    3  A    between atoms: N_6  and  C_25
REMARK    4  A    between atoms: C_8  and  C_16
REMARK    5  A    between atoms: C_10  and  C_18
REMARK    6  A    between atoms: C_10  and  C_19
REMARK    7  A    between atoms: C_11  and  C_21
REMARK    8  A    between atoms: C_21  and  C_22
REMARK    9  A    between atoms: C_23  and  C_24
REMARK   10  A    between atoms: C_25  and  C_28
REMARK   11  A    between atoms: C_25  and  C_29
REMARK                            x       y       z     vdW  Elec       q    Type
REMARK                         _______ _______ _______ _____ _____    ______ ____
ROOT
ATOM      1  S   UNL     1      -2.957 -11.235  11.463  0.00  0.00    -0.072 S 
ATOM      5  N   UNL     1      -5.081 -10.448  12.714  0.00  0.00    -0.243 NA
ATOM      8  C   UNL     1      -6.833 -10.164   9.290  0.00  0.00    -0.020 C 
ATOM      9  C   UNL     1      -5.975 -11.351   8.665  0.00  0.00    +0.011 C 
ATOM     10  C   UNL     1      -6.179 -11.649   7.129  0.00  0.00    +0.021 C 
ATOM     11  C   UNL     1      -6.810 -10.324  10.880  0.00  0.00    +0.053 C 
ATOM     12  C   UNL     1      -8.303 -10.281   8.810  0.00  0.00    +0.010 C 
ATOM     13  C   UNL     1      -7.700 -11.686   6.812  0.00  0.00    +0.123 C 
ATOM     14  C   UNL     1      -4.482 -11.261   9.093  0.00  0.00    +0.049 C 
ATOM     15  C   UNL     1      -8.447 -10.451   7.304  0.00  0.00    +0.032 C 
ATOM     16  C   UNL     1      -6.294  -8.764   8.905  0.00  0.00    +0.012 C 
ATOM     17  C   UNL     1      -5.411 -10.586  11.378  0.00  0.00    +0.056 A 
ATOM     19  C   UNL     1      -5.605 -13.057   6.805  0.00  0.00    +0.016 C 
ATOM     20  C   UNL     1      -4.387 -11.023  10.563  0.00  0.00    +0.014 A 
ATOM     23  C   UNL     1      -3.813 -10.757  12.874  0.00  0.00    +0.110 A 
ENDROOT
BRANCH  23  24
ATOM      7  N   UNL     1      -1.063 -10.269  15.337  0.00  0.00    -0.263 NA
ATOM     24  C   UNL     1      -3.105 -10.723  14.132  0.00  0.00    +0.025 A 
ATOM     26  C   UNL     1      -3.735 -11.089  15.314  0.00  0.00    +0.013 A 
ATOM     27  C   UNL     1      -1.782 -10.323  14.193  0.00  0.00    +0.121 A 
ATOM     30  C   UNL     1      -3.029 -11.047  16.510  0.00  0.00    +0.020 A 
ATOM     31  C   UNL     1      -1.707 -10.633  16.469  0.00  0.00    +0.111 A 
ENDBRANCH  23  24
BRANCH  13   2
ATOM      2  O   UNL     1      -7.918 -11.825   5.408  0.00  0.00    -0.391 OA
ATOM     37  H   UNL     1      -7.370 -12.565   5.095  0.00  0.00    +0.210 HD
ENDBRANCH  13   2
BRANCH  10  18
ATOM     18  C   UNL     1      -5.442 -10.673   6.185  0.00  0.00    +0.165 C 
BRANCH  18   3
ATOM      3  O   UNL     1      -4.932 -11.422   5.104  0.00  0.00    -0.394 OA
ATOM     38  H   UNL     1      -4.683 -10.802   4.398  0.00  0.00    +0.209 HD
ENDBRANCH  18   3
ENDBRANCH  10  18
BRANCH  11  21
ATOM     21  C   UNL     1      -7.473  -9.172  11.646  0.00  0.00    +0.106 C 
BRANCH  21  22
ATOM      4  O   UNL     1      -9.530 -10.201  12.397  0.00  0.00    -0.276 OA
ATOM      6  N   UNL     1      -7.988  -9.443  13.963  0.00  0.00    -0.309 N 
ATOM     22  C   UNL     1      -8.458  -9.670  12.678  0.00  0.00    +0.214 C 
ATOM     39  H   UNL     1      -7.044  -9.090  14.090  0.00  0.00    +0.149 HD
BRANCH   6  25
ATOM     25  C   UNL     1      -8.724  -9.814  15.150  0.00  0.00    +0.100 C 
ATOM     28  C   UNL     1      -9.463  -8.601  15.710  0.00  0.00    +0.033 C 
BRANCH  25  29
ATOM     29  C   UNL     1      -7.826 -10.471  16.175  0.00  0.00    -0.027 A 
ATOM     32  C   UNL     1      -7.221  -9.690  17.143  0.00  0.00    +0.005 A 
ATOM     33  C   UNL     1      -7.628 -11.841  16.122  0.00  0.00    +0.005 A 
ATOM     34  C   UNL     1      -6.392 -10.295  18.088  0.00  0.00    +0.000 A 
ATOM     35  C   UNL     1      -6.800 -12.447  17.066  0.00  0.00    +0.000 A 
ATOM     36  C   UNL     1      -6.182 -11.674  18.050  0.00  0.00    +0.000 A 
ENDBRANCH  25  29
ENDBRANCH   6  25
ENDBRANCH  21  22
ENDBRANCH  11  21
TORSDOF 8
ENDMDL
