MODEL 1
REMARK VINA RESULT:      -8.2      0.000      0.000
REMARK  Name = 40778240
REMARK  8 active torsions:
REMARK  status: ('A' for Active; 'I' for Inactive)
REMARK    1  A    between atoms: O_3  and  C_13
REMARK    2  A    between atoms: O_4  and  C_14
REMARK    3  A    between atoms: N_7  and  C_17
REMARK    4  A    between atoms: N_9  and  C_25
REMARK    5  A    between atoms: C_10  and  C_19
REMARK    6  A    between atoms: C_11  and  C_17
REMARK    7  A    between atoms: C_12  and  C_18
REMARK    8  A    between atoms: C_18  and  C_20
REMARK                            x       y       z     vdW  Elec       q    Type
REMARK                         _______ _______ _______ _____ _____    ______ ____
ROOT
ATOM      2  O   UNL     1      11.102   8.997  20.140  0.00  0.00    -0.366 OA
ATOM     11  C   UNL     1      10.737   9.166  21.528  0.00  0.00    +0.167 C 
ATOM     12  C   UNL     1      11.695   7.697  19.969  0.00  0.00    +0.159 C 
ATOM     13  C   UNL     1      10.981   7.821  22.204  0.00  0.00    +0.176 C 
ATOM     14  C   UNL     1      12.099   7.243  21.361  0.00  0.00    +0.175 C 
ENDROOT
BRANCH  13   3
ATOM      3  O   UNL     1       9.798   7.034  22.066  0.00  0.00    -0.387 OA
ATOM     32  H   UNL     1       9.789   6.681  21.160  0.00  0.00    +0.210 HD
ENDBRANCH  13   3
BRANCH  14   4
ATOM      4  O   UNL     1      12.199   5.838  21.452  0.00  0.00    -0.387 OA
ATOM     33  H   UNL     1      11.414   5.521  21.931  0.00  0.00    +0.210 HD
ENDBRANCH  14   4
BRANCH  11  17
ATOM     17  C   UNL     1      11.593  10.286  22.103  0.00  0.00    +0.138 C 
BRANCH  17   7
ATOM      5  O   UNL     1      12.558  12.104  24.157  0.00  0.00    -0.276 OA
ATOM      7  N   UNL     1      10.802  11.167  22.950  0.00  0.00    -0.313 N 
ATOM     19  C   UNL     1      11.366  11.991  23.897  0.00  0.00    +0.216 C 
ATOM     31  H   UNL     1       9.794  11.160  22.828  0.00  0.00    +0.149 HD
BRANCH  19  10
ATOM     10  C   UNL     1      10.368  12.808  24.650  0.00  0.00    +0.075 C 
ATOM     15  C   UNL     1      10.835  14.016  25.408  0.00  0.00    +0.013 C 
ATOM     16  C   UNL     1      10.028  14.183  24.154  0.00  0.00    +0.013 C 
ENDBRANCH  19  10
ENDBRANCH  17   7
ENDBRANCH  11  17
BRANCH  12  18
ATOM     18  C   UNL     1      12.864   7.792  19.004  0.00  0.00    +0.130 C 
BRANCH  18  20
ATOM      6  O   UNL     1      13.679   9.881  19.785  0.00  0.00    -0.276 OA
ATOM      8  N   UNL     1      15.168   8.098  19.829  0.00  0.00    -0.298 N 
ATOM      9  N   UNL     1      17.701   6.924  20.596  0.00  0.00    -0.327 N 
ATOM     20  C   UNL     1      13.932   8.692  19.576  0.00  0.00    +0.218 C 
ATOM     21  C   UNL     1      16.256   8.905  20.379  0.00  0.00    +0.126 C 
ATOM     22  C   UNL     1      15.464   6.684  19.590  0.00  0.00    +0.126 C 
ATOM     23  C   UNL     1      17.162   8.091  21.299  0.00  0.00    +0.124 C 
ATOM     24  C   UNL     1      16.961   6.408  19.441  0.00  0.00    +0.124 C 
BRANCH   9  25
ATOM      1  F   UNL     1      22.467   4.631  22.181  0.00  0.00    -0.205 F 
ATOM     25  C   UNL     1      18.903   6.345  20.995  0.00  0.00    +0.030 A 
ATOM     26  C   UNL     1      19.506   6.745  22.188  0.00  0.00    +0.026 A 
ATOM     27  C   UNL     1      19.503   5.365  20.205  0.00  0.00    +0.026 A 
ATOM     28  C   UNL     1      20.711   6.166  22.589  0.00  0.00    +0.040 A 
ATOM     29  C   UNL     1      20.707   4.787  20.605  0.00  0.00    +0.040 A 
ATOM     30  C   UNL     1      21.311   5.186  21.797  0.00  0.00    +0.124 A 
ENDBRANCH   9  25
ENDBRANCH  18  20
ENDBRANCH  12  18
TORSDOF 8
ENDMDL
MODEL 2
REMARK VINA RESULT:      -7.4      3.505      5.166
REMARK  Name = 40778240
REMARK  8 active torsions:
REMARK  status: ('A' for Active; 'I' for Inactive)
REMARK    1  A    between atoms: O_3  and  C_13
REMARK    2  A    between atoms: O_4  and  C_14
REMARK    3  A    between atoms: N_7  and  C_17
REMARK    4  A    between atoms: N_9  and  C_25
REMARK    5  A    between atoms: C_10  and  C_19
REMARK    6  A    between atoms: C_11  and  C_17
REMARK    7  A    between atoms: C_12  and  C_18
REMARK    8  A    between atoms: C_18  and  C_20
REMARK                            x       y       z     vdW  Elec       q    Type
REMARK                         _______ _______ _______ _____ _____    ______ ____
ROOT
ATOM      2  O   UNL     1      13.341   6.969  19.097  0.00  0.00    -0.366 OA
ATOM     11  C   UNL     1      12.143   7.285  19.843  0.00  0.00    +0.167 C 
ATOM     12  C   UNL     1      14.442   6.847  20.014  0.00  0.00    +0.159 C 
ATOM     13  C   UNL     1      12.518   7.191  21.318  0.00  0.00    +0.176 C 
ATOM     14  C   UNL     1      13.993   7.535  21.291  0.00  0.00    +0.175 C 
ENDROOT
BRANCH  13   3
ATOM      3  O   UNL     1      12.332   5.839  21.736  0.00  0.00    -0.387 OA
ATOM     32  H   UNL     1      12.677   5.266  21.030  0.00  0.00    +0.210 HD
ENDBRANCH  13   3
BRANCH  14   4
ATOM      4  O   UNL     1      14.697   7.067  22.422  0.00  0.00    -0.387 OA
ATOM     33  H   UNL     1      15.619   6.921  22.150  0.00  0.00    +0.210 HD
ENDBRANCH  14   4
BRANCH  11  17
ATOM     17  C   UNL     1      11.692   8.680  19.431  0.00  0.00    +0.138 C 
BRANCH  17   7
ATOM      5  O   UNL     1      10.868   8.247  16.676  0.00  0.00    -0.276 OA
ATOM      7  N   UNL     1      12.376   9.115  18.221  0.00  0.00    -0.313 N 
ATOM     19  C   UNL     1      11.894   8.853  16.959  0.00  0.00    +0.216 C 
ATOM     31  H   UNL     1      13.245   9.629  18.330  0.00  0.00    +0.149 HD
BRANCH  19  10
ATOM     10  C   UNL     1      12.756   9.394  15.866  0.00  0.00    +0.075 C 
ATOM     15  C   UNL     1      14.036  10.091  16.222  0.00  0.00    +0.013 C 
ATOM     16  C   UNL     1      14.072   8.735  15.581  0.00  0.00    +0.013 C 
ENDBRANCH  19  10
ENDBRANCH  17   7
ENDBRANCH  11  17
BRANCH  12  18
ATOM     18  C   UNL     1      15.687   7.465  19.403  0.00  0.00    +0.130 C 
BRANCH  18  20
ATOM      6  O   UNL     1      16.752   5.443  18.758  0.00  0.00    -0.276 OA
ATOM      8  N   UNL     1      17.904   6.799  20.253  0.00  0.00    -0.298 N 
ATOM      9  N   UNL     1      20.290   7.475  21.747  0.00  0.00    -0.327 N 
ATOM     20  C   UNL     1      16.823   6.473  19.433  0.00  0.00    +0.218 C 
ATOM     21  C   UNL     1      19.042   5.886  20.340  0.00  0.00    +0.126 C 
ATOM     22  C   UNL     1      17.992   8.027  21.046  0.00  0.00    +0.126 C 
ATOM     23  C   UNL     1      20.358   6.632  20.551  0.00  0.00    +0.124 C 
ATOM     24  C   UNL     1      18.970   7.908  22.216  0.00  0.00    +0.124 C 
BRANCH   9  25
ATOM      1  F   UNL     1      24.878   8.856  24.491  0.00  0.00    -0.205 F 
ATOM     25  C   UNL     1      21.448   7.823  22.439  0.00  0.00    +0.030 A 
ATOM     26  C   UNL     1      21.980   9.105  22.306  0.00  0.00    +0.026 A 
ATOM     27  C   UNL     1      22.073   6.890  23.267  0.00  0.00    +0.026 A 
ATOM     28  C   UNL     1      23.139   9.454  22.999  0.00  0.00    +0.040 A 
ATOM     29  C   UNL     1      23.232   7.239  23.959  0.00  0.00    +0.040 A 
ATOM     30  C   UNL     1      23.766   8.521  23.826  0.00  0.00    +0.124 A 
ENDBRANCH   9  25
ENDBRANCH  18  20
ENDBRANCH  12  18
TORSDOF 8
ENDMDL
MODEL 3
REMARK VINA RESULT:      -7.2      3.550      5.867
REMARK  Name = 40778240
REMARK  8 active torsions:
REMARK  status: ('A' for Active; 'I' for Inactive)
REMARK    1  A    between atoms: O_3  and  C_13
REMARK    2  A    between atoms: O_4  and  C_14
REMARK    3  A    between atoms: N_7  and  C_17
REMARK    4  A    between atoms: N_9  and  C_25
REMARK    5  A    between atoms: C_10  and  C_19
REMARK    6  A    between atoms: C_11  and  C_17
REMARK    7  A    between atoms: C_12  and  C_18
REMARK    8  A    between atoms: C_18  and  C_20
REMARK                            x       y       z     vdW  Elec       q    Type
REMARK                         _______ _______ _______ _____ _____    ______ ____
ROOT
ATOM      2  O   UNL     1      15.310   6.704  21.250  0.00  0.00    -0.366 OA
ATOM     11  C   UNL     1      13.996   7.271  21.047  0.00  0.00    +0.167 C 
ATOM     12  C   UNL     1      16.282   7.765  21.243  0.00  0.00    +0.159 C 
ATOM     13  C   UNL     1      14.171   8.786  21.078  0.00  0.00    +0.176 C 
ATOM     14  C   UNL     1      15.594   8.949  20.584  0.00  0.00    +0.175 C 
ENDROOT
BRANCH  13   3
ATOM      3  O   UNL     1      14.066   9.216  22.435  0.00  0.00    -0.387 OA
ATOM     32  H   UNL     1      14.417   8.502  22.995  0.00  0.00    +0.210 HD
ENDBRANCH  13   3
BRANCH  14   4
ATOM      4  O   UNL     1      16.179  10.178  20.959  0.00  0.00    -0.387 OA
ATOM     33  H   UNL     1      15.996  10.311  21.905  0.00  0.00    +0.210 HD
ENDBRANCH  14   4
BRANCH  11  17
ATOM     17  C   UNL     1      13.468   6.760  19.713  0.00  0.00    +0.138 C 
BRANCH  17   7
ATOM      5  O   UNL     1      13.684   7.424  16.891  0.00  0.00    -0.276 OA
ATOM      7  N   UNL     1      12.763   7.810  18.993  0.00  0.00    -0.313 N 
ATOM     19  C   UNL     1      12.942   8.039  17.648  0.00  0.00    +0.216 C 
ATOM     31  H   UNL     1      12.117   8.392  19.519  0.00  0.00    +0.149 HD
BRANCH  19  10
ATOM     10  C   UNL     1      12.116   9.164  17.117  0.00  0.00    +0.075 C 
ATOM     15  C   UNL     1      11.945   9.307  15.633  0.00  0.00    +0.013 C 
ATOM     16  C   UNL     1      10.792   8.861  16.482  0.00  0.00    +0.013 C 
ENDBRANCH  19  10
ENDBRANCH  17   7
ENDBRANCH  11  17
BRANCH  12  18
ATOM     18  C   UNL     1      17.530   7.309  20.510  0.00  0.00    +0.130 C 
BRANCH  18  20
ATOM      6  O   UNL     1      18.856   8.637  21.965  0.00  0.00    -0.276 OA
ATOM      8  N   UNL     1      19.703   6.550  21.398  0.00  0.00    -0.298 N 
ATOM      9  N   UNL     1      21.639   4.422  21.721  0.00  0.00    -0.327 N 
ATOM     20  C   UNL     1      18.750   7.568  21.360  0.00  0.00    +0.218 C 
ATOM     21  C   UNL     1      20.915   6.727  22.195  0.00  0.00    +0.126 C 
ATOM     22  C   UNL     1      19.572   5.276  20.687  0.00  0.00    +0.126 C 
ATOM     23  C   UNL     1      21.411   5.407  22.782  0.00  0.00    +0.124 C 
ATOM     24  C   UNL     1      20.916   4.585  20.457  0.00  0.00    +0.124 C 
BRANCH   9  25
ATOM      1  F   UNL     1      25.244   0.301  22.432  0.00  0.00    -0.205 F 
ATOM     25  C   UNL     1      22.548   3.382  21.901  0.00  0.00    +0.030 A 
ATOM     26  C   UNL     1      23.271   2.893  20.813  0.00  0.00    +0.026 A 
ATOM     27  C   UNL     1      22.738   2.832  23.169  0.00  0.00    +0.026 A 
ATOM     28  C   UNL     1      24.182   1.851  20.992  0.00  0.00    +0.040 A 
ATOM     29  C   UNL     1      23.648   1.791  23.348  0.00  0.00    +0.040 A 
ATOM     30  C   UNL     1      24.370   1.300  22.260  0.00  0.00    +0.124 A 
ENDBRANCH   9  25
ENDBRANCH  18  20
ENDBRANCH  12  18
TORSDOF 8
ENDMDL
MODEL 4
REMARK VINA RESULT:      -7.1     26.986     30.376
REMARK  Name = 40778240
REMARK  8 active torsions:
REMARK  status: ('A' for Active; 'I' for Inactive)
REMARK    1  A    between atoms: O_3  and  C_13
REMARK    2  A    between atoms: O_4  and  C_14
REMARK    3  A    between atoms: N_7  and  C_17
REMARK    4  A    between atoms: N_9  and  C_25
REMARK    5  A    between atoms: C_10  and  C_19
REMARK    6  A    between atoms: C_11  and  C_17
REMARK    7  A    between atoms: C_12  and  C_18
REMARK    8  A    between atoms: C_18  and  C_20
REMARK                            x       y       z     vdW  Elec       q    Type
REMARK                         _______ _______ _______ _____ _____    ______ ____
ROOT
ATOM      2  O   UNL     1      -3.841 -11.238  17.399  0.00  0.00    -0.366 OA
ATOM     11  C   UNL     1      -3.878 -11.793  16.065  0.00  0.00    +0.167 C 
ATOM     12  C   UNL     1      -4.830 -11.900  18.207  0.00  0.00    +0.159 C 
ATOM     13  C   UNL     1      -4.843 -12.972  16.116  0.00  0.00    +0.176 C 
ATOM     14  C   UNL     1      -5.785 -12.561  17.228  0.00  0.00    +0.175 C 
ENDROOT
BRANCH  13   3
ATOM      3  O   UNL     1      -4.103 -14.132  16.497  0.00  0.00    -0.387 OA
ATOM     32  H   UNL     1      -4.702 -14.895  16.426  0.00  0.00    +0.210 HD
ENDBRANCH  13   3
BRANCH  14   4
ATOM      4  O   UNL     1      -6.472 -13.648  17.811  0.00  0.00    -0.387 OA
ATOM     33  H   UNL     1      -7.340 -13.321  18.103  0.00  0.00    +0.210 HD
ENDBRANCH  14   4
BRANCH  11  17
ATOM     17  C   UNL     1      -4.332 -10.693  15.115  0.00  0.00    +0.138 C 
BRANCH  17   7
ATOM      5  O   UNL     1      -1.600 -10.008  14.395  0.00  0.00    -0.276 OA
ATOM      7  N   UNL     1      -3.697 -10.831  13.812  0.00  0.00    -0.313 N 
ATOM     19  C   UNL     1      -2.389 -10.473  13.581  0.00  0.00    +0.216 C 
ATOM     31  H   UNL     1      -4.257 -11.207  13.052  0.00  0.00    +0.149 HD
BRANCH  19  10
ATOM     10  C   UNL     1      -1.946 -10.702  12.173  0.00  0.00    +0.075 C 
ATOM     15  C   UNL     1      -2.737 -10.098  11.051  0.00  0.00    +0.013 C 
ATOM     16  C   UNL     1      -1.380  -9.554  11.390  0.00  0.00    +0.013 C 
ENDBRANCH  19  10
ENDBRANCH  17   7
ENDBRANCH  11  17
BRANCH  12  18
ATOM     18  C   UNL     1      -5.504 -10.890  19.118  0.00  0.00    +0.130 C 
BRANCH  18  20
ATOM      6  O   UNL     1      -7.224 -12.194  20.106  0.00  0.00    -0.276 OA
ATOM      8  N   UNL     1      -7.895 -10.541  18.618  0.00  0.00    -0.298 N 
ATOM      9  N   UNL     1      -9.953  -8.948  17.353  0.00  0.00    -0.327 N 
ATOM     20  C   UNL     1      -6.947 -11.274  19.334  0.00  0.00    +0.218 C 
ATOM     21  C   UNL     1      -9.313 -10.856  18.770  0.00  0.00    +0.126 C 
ATOM     22  C   UNL     1      -7.565  -9.441  17.709  0.00  0.00    +0.126 C 
ATOM     23  C   UNL     1     -10.192  -9.614  18.635  0.00  0.00    +0.124 C 
ATOM     24  C   UNL     1      -8.668  -9.169  16.685  0.00  0.00    +0.124 C 
BRANCH   9  25
ATOM      1  F   UNL     1     -13.862  -5.805  15.042  0.00  0.00    -0.205 F 
ATOM     25  C   UNL     1     -10.939  -8.155  16.769  0.00  0.00    +0.030 A 
ATOM     26  C   UNL     1     -12.256  -8.611  16.711  0.00  0.00    +0.026 A 
ATOM     27  C   UNL     1     -10.610  -6.904  16.246  0.00  0.00    +0.026 A 
ATOM     28  C   UNL     1     -13.244  -7.817  16.127  0.00  0.00    +0.040 A 
ATOM     29  C   UNL     1     -11.598  -6.111  15.662  0.00  0.00    +0.040 A 
ATOM     30  C   UNL     1     -12.914  -6.567  15.603  0.00  0.00    +0.124 A 
ENDBRANCH   9  25
ENDBRANCH  18  20
ENDBRANCH  12  18
TORSDOF 8
ENDMDL
MODEL 5
REMARK VINA RESULT:      -7.0     27.471     31.043
REMARK  Name = 40778240
REMARK  8 active torsions:
REMARK  status: ('A' for Active; 'I' for Inactive)
REMARK    1  A    between atoms: O_3  and  C_13
REMARK    2  A    between atoms: O_4  and  C_14
REMARK    3  A    between atoms: N_7  and  C_17
REMARK    4  A    between atoms: N_9  and  C_25
REMARK    5  A    between atoms: C_10  and  C_19
REMARK    6  A    between atoms: C_11  and  C_17
REMARK    7  A    between atoms: C_12  and  C_18
REMARK    8  A    between atoms: C_18  and  C_20
REMARK                            x       y       z     vdW  Elec       q    Type
REMARK                         _______ _______ _______ _____ _____    ______ ____
ROOT
ATOM      2  O   UNL     1      -7.063  -9.935  17.113  0.00  0.00    -0.366 OA
ATOM     11  C   UNL     1      -6.088 -10.664  17.892  0.00  0.00    +0.167 C 
ATOM     12  C   UNL     1      -8.301  -9.888  17.843  0.00  0.00    +0.159 C 
ATOM     13  C   UNL     1      -6.735 -10.936  19.246  0.00  0.00    +0.176 C 
ATOM     14  C   UNL     1      -8.206 -10.986  18.888  0.00  0.00    +0.175 C 
ENDROOT
BRANCH  13   3
ATOM      3  O   UNL     1      -6.469  -9.821  20.095  0.00  0.00    -0.387 OA
ATOM     32  H   UNL     1      -5.615  -9.984  20.531  0.00  0.00    +0.210 HD
ENDBRANCH  13   3
BRANCH  14   4
ATOM      4  O   UNL     1      -9.058 -10.747  19.988  0.00  0.00    -0.387 OA
ATOM     33  H   UNL     1      -9.854 -10.306  19.648  0.00  0.00    +0.210 HD
ENDBRANCH  14   4
BRANCH  11  17
ATOM     17  C   UNL     1      -5.741 -11.937  17.131  0.00  0.00    +0.138 C 
BRANCH  17   7
ATOM      5  O   UNL     1      -4.583 -10.563  14.845  0.00  0.00    -0.276 OA
ATOM      7  N   UNL     1      -4.347 -11.932  16.712  0.00  0.00    -0.313 N 
ATOM     19  C   UNL     1      -3.905 -11.243  15.605  0.00  0.00    +0.216 C 
ATOM     31  H   UNL     1      -3.684 -12.466  17.268  0.00  0.00    +0.149 HD
BRANCH  19  10
ATOM     10  C   UNL     1      -2.437 -11.376  15.364  0.00  0.00    +0.075 C 
ATOM     15  C   UNL     1      -1.752 -10.384  14.471  0.00  0.00    +0.013 C 
ATOM     16  C   UNL     1      -1.506 -10.358  15.951  0.00  0.00    +0.013 C 
ENDBRANCH  19  10
ENDBRANCH  17   7
ENDBRANCH  11  17
BRANCH  12  18
ATOM     18  C   UNL     1      -9.466 -10.067  16.886  0.00  0.00    +0.130 C 
BRANCH  18  20
ATOM      6  O   UNL     1     -10.948  -8.952  18.368  0.00  0.00    -0.276 OA
ATOM      8  N   UNL     1     -11.056  -8.339  16.130  0.00  0.00    -0.298 N 
ATOM      9  N   UNL     1     -12.016  -6.612  14.015  0.00  0.00    -0.327 N 
ATOM     20  C   UNL     1     -10.554  -9.072  17.206  0.00  0.00    +0.218 C 
ATOM     21  C   UNL     1     -12.115  -7.358  16.359  0.00  0.00    +0.126 C 
ATOM     22  C   UNL     1     -10.580  -8.474  14.752  0.00  0.00    +0.126 C 
ATOM     23  C   UNL     1     -12.004  -6.166  15.410  0.00  0.00    +0.124 C 
ATOM     24  C   UNL     1     -11.600  -7.987  13.722  0.00  0.00    +0.124 C 
BRANCH   9  25
ATOM      1  F   UNL     1     -13.726  -3.236   9.993  0.00  0.00    -0.205 F 
ATOM     25  C   UNL     1     -12.448  -5.761  13.000  0.00  0.00    +0.030 A 
ATOM     26  C   UNL     1     -12.436  -4.380  13.197  0.00  0.00    +0.026 A 
ATOM     27  C   UNL     1     -12.890  -6.288  11.787  0.00  0.00    +0.026 A 
ATOM     28  C   UNL     1     -12.868  -3.527  12.181  0.00  0.00    +0.040 A 
ATOM     29  C   UNL     1     -13.322  -5.436  10.772  0.00  0.00    +0.040 A 
ATOM     30  C   UNL     1     -13.311  -4.055  10.968  0.00  0.00    +0.124 A 
ENDBRANCH   9  25
ENDBRANCH  18  20
ENDBRANCH  12  18
TORSDOF 8
ENDMDL
MODEL 6
REMARK VINA RESULT:      -7.0     27.992     29.301
REMARK  Name = 40778240
REMARK  8 active torsions:
REMARK  status: ('A' for Active; 'I' for Inactive)
REMARK    1  A    between atoms: O_3  and  C_13
REMARK    2  A    between atoms: O_4  and  C_14
REMARK    3  A    between atoms: N_7  and  C_17
REMARK    4  A    between atoms: N_9  and  C_25
REMARK    5  A    between atoms: C_10  and  C_19
REMARK    6  A    between atoms: C_11  and  C_17
REMARK    7  A    between atoms: C_12  and  C_18
REMARK    8  A    between atoms: C_18  and  C_20
REMARK                            x       y       z     vdW  Elec       q    Type
REMARK                         _______ _______ _______ _____ _____    ______ ____
ROOT
ATOM      2  O   UNL     1      -7.132 -12.332  17.608  0.00  0.00    -0.366 OA
ATOM     11  C   UNL     1      -8.118 -11.298  17.827  0.00  0.00    +0.167 C 
ATOM     12  C   UNL     1      -6.249 -12.382  18.743  0.00  0.00    +0.159 C 
ATOM     13  C   UNL     1      -7.911 -10.801  19.253  0.00  0.00    +0.176 C 
ATOM     14  C   UNL     1      -6.433 -11.058  19.466  0.00  0.00    +0.175 C 
ENDROOT
BRANCH  13   3
ATOM      3  O   UNL     1      -8.687 -11.622  20.125  0.00  0.00    -0.387 OA
ATOM     32  H   UNL     1      -8.817 -11.127  20.952  0.00  0.00    +0.210 HD
ENDBRANCH  13   3
BRANCH  14   4
ATOM      4  O   UNL     1      -6.070 -11.143  20.827  0.00  0.00    -0.387 OA
ATOM     33  H   UNL     1      -6.012 -10.235  21.170  0.00  0.00    +0.210 HD
ENDBRANCH  14   4
BRANCH  11  17
ATOM     17  C   UNL     1      -7.897 -10.214  16.780  0.00  0.00    +0.138 C 
BRANCH  17   7
ATOM      5  O   UNL     1      -9.591  -8.767  14.912  0.00  0.00    -0.276 OA
ATOM      7  N   UNL     1      -8.723  -9.048  17.053  0.00  0.00    -0.313 N 
ATOM     19  C   UNL     1      -9.491  -8.437  16.087  0.00  0.00    +0.216 C 
ATOM     31  H   UNL     1      -8.722  -8.678  18.000  0.00  0.00    +0.149 HD
BRANCH  19  10
ATOM     10  C   UNL     1     -10.259  -7.259  16.589  0.00  0.00    +0.075 C 
ATOM     15  C   UNL     1     -10.713  -6.214  15.613  0.00  0.00    +0.013 C 
ATOM     16  C   UNL     1     -11.714  -7.137  16.245  0.00  0.00    +0.013 C 
ENDBRANCH  19  10
ENDBRANCH  17   7
ENDBRANCH  11  17
BRANCH  12  18
ATOM     18  C   UNL     1      -4.825 -12.617  18.272  0.00  0.00    +0.130 C 
BRANCH  18  20
ATOM      6  O   UNL     1      -5.050 -14.595  16.978  0.00  0.00    -0.276 OA
ATOM      8  N   UNL     1      -4.580 -12.639  15.817  0.00  0.00    -0.298 N 
ATOM      9  N   UNL     1      -4.284 -11.162  13.344  0.00  0.00    -0.327 N 
ATOM     20  C   UNL     1      -4.832 -13.382  16.970  0.00  0.00    +0.218 C 
ATOM     21  C   UNL     1      -4.566 -13.308  14.518  0.00  0.00    +0.126 C 
ATOM     22  C   UNL     1      -4.333 -11.195  15.808  0.00  0.00    +0.126 C 
ATOM     23  C   UNL     1      -5.070 -12.398  13.401  0.00  0.00    +0.124 C 
ATOM     24  C   UNL     1      -3.585 -10.730  14.558  0.00  0.00    +0.124 C 
BRANCH   9  25
ATOM      1  F   UNL     1      -3.858  -8.306   8.638  0.00  0.00    -0.205 F 
ATOM     25  C   UNL     1      -4.177 -10.441  12.157  0.00  0.00    +0.030 A 
ATOM     26  C   UNL     1      -2.925 -10.234  11.579  0.00  0.00    +0.026 A 
ATOM     27  C   UNL     1      -5.321  -9.930  11.545  0.00  0.00    +0.026 A 
ATOM     28  C   UNL     1      -2.817  -9.512  10.390  0.00  0.00    +0.040 A 
ATOM     29  C   UNL     1      -5.213  -9.208  10.357  0.00  0.00    +0.040 A 
ATOM     30  C   UNL     1      -3.962  -8.999   9.779  0.00  0.00    +0.124 A 
ENDBRANCH   9  25
ENDBRANCH  18  20
ENDBRANCH  12  18
TORSDOF 8
ENDMDL
MODEL 7
REMARK VINA RESULT:      -7.0     26.585     29.949
REMARK  Name = 40778240
REMARK  8 active torsions:
REMARK  status: ('A' for Active; 'I' for Inactive)
REMARK    1  A    between atoms: O_3  and  C_13
REMARK    2  A    between atoms: O_4  and  C_14
REMARK    3  A    between atoms: N_7  and  C_17
REMARK    4  A    between atoms: N_9  and  C_25
REMARK    5  A    between atoms: C_10  and  C_19
REMARK    6  A    between atoms: C_11  and  C_17
REMARK    7  A    between atoms: C_12  and  C_18
REMARK    8  A    between atoms: C_18  and  C_20
REMARK                            x       y       z     vdW  Elec       q    Type
REMARK                         _______ _______ _______ _____ _____    ______ ____
ROOT
ATOM      2  O   UNL     1      -3.604 -10.376  13.899  0.00  0.00    -0.366 OA
ATOM     11  C   UNL     1      -2.223 -10.303  13.478  0.00  0.00    +0.167 C 
ATOM     12  C   UNL     1      -3.649 -10.743  15.289  0.00  0.00    +0.159 C 
ATOM     13  C   UNL     1      -1.380 -10.482  14.736  0.00  0.00    +0.176 C 
ATOM     14  C   UNL     1      -2.284 -11.333  15.603  0.00  0.00    +0.175 C 
ENDROOT
BRANCH  13   3
ATOM      3  O   UNL     1      -1.190  -9.198  15.329  0.00  0.00    -0.387 OA
ATOM     32  H   UNL     1      -1.868  -8.605  14.962  0.00  0.00    +0.210 HD
ENDBRANCH  13   3
BRANCH  14   4
ATOM      4  O   UNL     1      -1.977 -11.255  16.979  0.00  0.00    -0.387 OA
ATOM     33  H   UNL     1      -1.337 -11.960  17.175  0.00  0.00    +0.210 HD
ENDBRANCH  14   4
BRANCH  11  17
ATOM     17  C   UNL     1      -1.991 -11.397  12.445  0.00  0.00    +0.138 C 
BRANCH  17   7
ATOM      5  O   UNL     1      -2.454  -9.320  10.463  0.00  0.00    -0.276 OA
ATOM      7  N   UNL     1      -3.019 -11.368  11.414  0.00  0.00    -0.313 N 
ATOM     19  C   UNL     1      -3.149 -10.328  10.522  0.00  0.00    +0.216 C 
ATOM     31  H   UNL     1      -3.660 -12.154  11.364  0.00  0.00    +0.149 HD
BRANCH  19  10
ATOM     10  C   UNL     1      -4.269 -10.508   9.551  0.00  0.00    +0.075 C 
ATOM     15  C   UNL     1      -5.549  -9.755   9.764  0.00  0.00    +0.013 C 
ATOM     16  C   UNL     1      -4.633  -9.375   8.638  0.00  0.00    +0.013 C 
ENDBRANCH  19  10
ENDBRANCH  17   7
ENDBRANCH  11  17
BRANCH  12  18
ATOM     18  C   UNL     1      -4.793 -11.713  15.524  0.00  0.00    +0.130 C 
BRANCH  18  20
ATOM      6  O   UNL     1      -5.080 -11.585  17.878  0.00  0.00    -0.276 OA
ATOM      8  N   UNL     1      -6.771 -10.675  16.570  0.00  0.00    -0.298 N 
ATOM      9  N   UNL     1      -9.207  -9.138  16.278  0.00  0.00    -0.327 N 
ATOM     20  C   UNL     1      -5.552 -11.322  16.769  0.00  0.00    +0.218 C 
ATOM     21  C   UNL     1      -7.568 -10.269  17.726  0.00  0.00    +0.126 C 
ATOM     22  C   UNL     1      -7.325 -10.354  15.252  0.00  0.00    +0.126 C 
ATOM     23  C   UNL     1      -8.350  -8.985  17.458  0.00  0.00    +0.124 C 
ATOM     24  C   UNL     1      -8.840 -10.147  15.281  0.00  0.00    +0.124 C 
BRANCH   9  25
ATOM      1  F   UNL     1     -13.771  -6.085  15.696  0.00  0.00    -0.205 F 
ATOM     25  C   UNL     1     -10.358  -8.368  16.132  0.00  0.00    +0.030 A 
ATOM     26  C   UNL     1     -10.269  -6.976  16.123  0.00  0.00    +0.026 A 
ATOM     27  C   UNL     1     -11.600  -8.989  15.991  0.00  0.00    +0.026 A 
ATOM     28  C   UNL     1     -11.423  -6.204  15.976  0.00  0.00    +0.040 A 
ATOM     29  C   UNL     1     -12.752  -8.217  15.844  0.00  0.00    +0.040 A 
ATOM     30  C   UNL     1     -12.664  -6.826  15.837  0.00  0.00    +0.124 A 
ENDBRANCH   9  25
ENDBRANCH  18  20
ENDBRANCH  12  18
TORSDOF 8
ENDMDL
MODEL 8
REMARK VINA RESULT:      -7.0      2.576      4.758
REMARK  Name = 40778240
REMARK  8 active torsions:
REMARK  status: ('A' for Active; 'I' for Inactive)
REMARK    1  A    between atoms: O_3  and  C_13
REMARK    2  A    between atoms: O_4  and  C_14
REMARK    3  A    between atoms: N_7  and  C_17
REMARK    4  A    between atoms: N_9  and  C_25
REMARK    5  A    between atoms: C_10  and  C_19
REMARK    6  A    between atoms: C_11  and  C_17
REMARK    7  A    between atoms: C_12  and  C_18
REMARK    8  A    between atoms: C_18  and  C_20
REMARK                            x       y       z     vdW  Elec       q    Type
REMARK                         _______ _______ _______ _____ _____    ______ ____
ROOT
ATOM      2  O   UNL     1      11.040  13.692  23.197  0.00  0.00    -0.366 OA
ATOM     11  C   UNL     1      11.623  14.269  24.387  0.00  0.00    +0.167 C 
ATOM     12  C   UNL     1      11.018  12.261  23.335  0.00  0.00    +0.159 C 
ATOM     13  C   UNL     1      11.820  13.120  25.370  0.00  0.00    +0.176 C 
ATOM     14  C   UNL     1      12.009  11.939  24.441  0.00  0.00    +0.175 C 
ENDROOT
BRANCH  13   3
ATOM      3  O   UNL     1      10.616  12.971  26.122  0.00  0.00    -0.387 OA
ATOM     32  H   UNL     1      10.103  12.255  25.711  0.00  0.00    +0.210 HD
ENDBRANCH  13   3
BRANCH  14   4
ATOM      4  O   UNL     1      11.736  10.696  25.053  0.00  0.00    -0.387 OA
ATOM     33  H   UNL     1      12.470  10.097  24.834  0.00  0.00    +0.210 HD
ENDBRANCH  14   4
BRANCH  11  17
ATOM     17  C   UNL     1      12.930  14.941  23.987  0.00  0.00    +0.138 C 
BRANCH  17   7
ATOM      5  O   UNL     1      14.707  13.430  22.251  0.00  0.00    -0.276 OA
ATOM      7  N   UNL     1      13.047  15.035  22.539  0.00  0.00    -0.313 N 
ATOM     19  C   UNL     1      13.928  14.268  21.812  0.00  0.00    +0.216 C 
ATOM     31  H   UNL     1      12.449  15.702  22.059  0.00  0.00    +0.149 HD
BRANCH  19  10
ATOM     10  C   UNL     1      13.878  14.528  20.342  0.00  0.00    +0.075 C 
ATOM     15  C   UNL     1      13.934  13.368  19.393  0.00  0.00    +0.013 C 
ATOM     16  C   UNL     1      12.654  14.131  19.572  0.00  0.00    +0.013 C 
ENDBRANCH  19  10
ENDBRANCH  17   7
ENDBRANCH  11  17
BRANCH  12  18
ATOM     18  C   UNL     1      11.367  11.613  22.007  0.00  0.00    +0.130 C 
BRANCH  18  20
ATOM      6  O   UNL     1      10.284   9.559  22.504  0.00  0.00    -0.276 OA
ATOM      8  N   UNL     1      12.506   9.432  21.835  0.00  0.00    -0.298 N 
ATOM      9  N   UNL     1      14.828   7.908  21.022  0.00  0.00    -0.327 N 
ATOM     20  C   UNL     1      11.326  10.111  22.139  0.00  0.00    +0.218 C 
ATOM     21  C   UNL     1      12.547   7.975  21.943  0.00  0.00    +0.126 C 
ATOM     22  C   UNL     1      13.738  10.087  21.391  0.00  0.00    +0.126 C 
ATOM     23  C   UNL     1      13.478   7.351  20.906  0.00  0.00    +0.124 C 
ATOM     24  C   UNL     1      14.983   9.231  21.632  0.00  0.00    +0.124 C 
BRANCH   9  25
ATOM      1  F   UNL     1      19.220   5.018  19.333  0.00  0.00    -0.205 F 
ATOM     25  C   UNL     1      15.936   7.179  20.595  0.00  0.00    +0.030 A 
ATOM     26  C   UNL     1      17.076   7.111  21.396  0.00  0.00    +0.026 A 
ATOM     27  C   UNL     1      15.905   6.515  19.368  0.00  0.00    +0.026 A 
ATOM     28  C   UNL     1      18.186   6.381  20.970  0.00  0.00    +0.040 A 
ATOM     29  C   UNL     1      17.015   5.786  18.942  0.00  0.00    +0.040 A 
ATOM     30  C   UNL     1      18.155   5.718  19.742  0.00  0.00    +0.124 A 
ENDBRANCH   9  25
ENDBRANCH  18  20
ENDBRANCH  12  18
TORSDOF 8
ENDMDL
MODEL 9
REMARK VINA RESULT:      -6.9     17.557     20.017
REMARK  Name = 40778240
REMARK  8 active torsions:
REMARK  status: ('A' for Active; 'I' for Inactive)
REMARK    1  A    between atoms: O_3  and  C_13
REMARK    2  A    between atoms: O_4  and  C_14
REMARK    3  A    between atoms: N_7  and  C_17
REMARK    4  A    between atoms: N_9  and  C_25
REMARK    5  A    between atoms: C_10  and  C_19
REMARK    6  A    between atoms: C_11  and  C_17
REMARK    7  A    between atoms: C_12  and  C_18
REMARK    8  A    between atoms: C_18  and  C_20
REMARK                            x       y       z     vdW  Elec       q    Type
REMARK                         _______ _______ _______ _____ _____    ______ ____
ROOT
ATOM      2  O   UNL     1       9.602   6.201   5.875  0.00  0.00    -0.366 OA
ATOM     11  C   UNL     1       9.368   6.119   7.299  0.00  0.00    +0.167 C 
ATOM     12  C   UNL     1      11.018   6.271   5.638  0.00  0.00    +0.159 C 
ATOM     13  C   UNL     1      10.738   5.970   7.951  0.00  0.00    +0.176 C 
ATOM     14  C   UNL     1      11.638   6.682   6.963  0.00  0.00    +0.175 C 
ENDROOT
BRANCH  13   3
ATOM      3  O   UNL     1      11.057   4.579   7.998  0.00  0.00    -0.387 OA
ATOM     32  H   UNL     1      10.932   4.283   8.916  0.00  0.00    +0.210 HD
ENDBRANCH  13   3
BRANCH  14   4
ATOM      4  O   UNL     1      12.992   6.295   7.058  0.00  0.00    -0.387 OA
ATOM     33  H   UNL     1      13.286   6.485   7.965  0.00  0.00    +0.210 HD
ENDBRANCH  14   4
BRANCH  11  17
ATOM     17  C   UNL     1       8.640   7.386   7.726  0.00  0.00    +0.138 C 
BRANCH  17   7
ATOM      5  O   UNL     1       9.572   9.824   6.446  0.00  0.00    -0.276 OA
ATOM      7  N   UNL     1       8.055   8.065   6.579  0.00  0.00    -0.313 N 
ATOM     19  C   UNL     1       8.581   9.221   6.051  0.00  0.00    +0.216 C 
ATOM     31  H   UNL     1       7.222   7.657   6.162  0.00  0.00    +0.149 HD
BRANCH  19  10
ATOM     10  C   UNL     1       7.822   9.743   4.876  0.00  0.00    +0.075 C 
ATOM     15  C   UNL     1       8.522   9.876   3.555  0.00  0.00    +0.013 C 
ATOM     16  C   UNL     1       7.486   8.809   3.751  0.00  0.00    +0.013 C 
ENDBRANCH  19  10
ENDBRANCH  17   7
ENDBRANCH  11  17
BRANCH  12  18
ATOM     18  C   UNL     1      11.301   7.249   4.512  0.00  0.00    +0.130 C 
BRANCH  18  20
ATOM      6  O   UNL     1      13.565   6.737   4.011  0.00  0.00    -0.276 OA
ATOM      8  N   UNL     1      11.992   6.206   2.385  0.00  0.00    -0.298 N 
ATOM      9  N   UNL     1      11.247   4.943  -0.111  0.00  0.00    -0.327 N 
ATOM     20  C   UNL     1      12.394   6.709   3.622  0.00  0.00    +0.218 C 
ATOM     21  C   UNL     1      12.993   5.670   1.466  0.00  0.00    +0.126 C 
ATOM     22  C   UNL     1      10.600   6.164   1.930  0.00  0.00    +0.126 C 
ATOM     23  C   UNL     1      12.440   4.519   0.627  0.00  0.00    +0.124 C 
ATOM     24  C   UNL     1      10.478   6.077   0.408  0.00  0.00    +0.124 C 
BRANCH   9  25
ATOM      1  F   UNL     1       9.786   2.411  -4.795  0.00  0.00    -0.205 F 
ATOM     25  C   UNL     1      10.878   4.304  -1.293  0.00  0.00    +0.030 A 
ATOM     26  C   UNL     1      11.527   3.133  -1.683  0.00  0.00    +0.026 A 
ATOM     27  C   UNL     1       9.860   4.835  -2.084  0.00  0.00    +0.026 A 
ATOM     28  C   UNL     1      11.158   2.493  -2.867  0.00  0.00    +0.040 A 
ATOM     29  C   UNL     1       9.491   4.196  -3.267  0.00  0.00    +0.040 A 
ATOM     30  C   UNL     1      10.140   3.025  -3.659  0.00  0.00    +0.124 A 
ENDBRANCH   9  25
ENDBRANCH  18  20
ENDBRANCH  12  18
TORSDOF 8
ENDMDL
MODEL 10
REMARK VINA RESULT:      -6.8      5.482     11.275
REMARK  Name = 40778240
REMARK  8 active torsions:
REMARK  status: ('A' for Active; 'I' for Inactive)
REMARK    1  A    between atoms: O_3  and  C_13
REMARK    2  A    between atoms: O_4  and  C_14
REMARK    3  A    between atoms: N_7  and  C_17
REMARK    4  A    between atoms: N_9  and  C_25
REMARK    5  A    between atoms: C_10  and  C_19
REMARK    6  A    between atoms: C_11  and  C_17
REMARK    7  A    between atoms: C_12  and  C_18
REMARK    8  A    between atoms: C_18  and  C_20
REMARK                            x       y       z     vdW  Elec       q    Type
REMARK                         _______ _______ _______ _____ _____    ______ ____
ROOT
ATOM      2  O   UNL     1      21.523   5.788  20.381  0.00  0.00    -0.366 OA
ATOM     11  C   UNL     1      22.592   5.116  21.086  0.00  0.00    +0.167 C 
ATOM     12  C   UNL     1      20.626   6.372  21.342  0.00  0.00    +0.159 C 
ATOM     13  C   UNL     1      22.412   5.453  22.562  0.00  0.00    +0.176 C 
ATOM     14  C   UNL     1      20.916   5.668  22.656  0.00  0.00    +0.175 C 
ENDROOT
BRANCH  13   3
ATOM      3  O   UNL     1      23.105   6.673  22.825  0.00  0.00    -0.387 OA
ATOM     32  H   UNL     1      22.451   7.314  23.152  0.00  0.00    +0.210 HD
ENDBRANCH  13   3
BRANCH  14   4
ATOM      4  O   UNL     1      20.531   6.445  23.770  0.00  0.00    -0.387 OA
ATOM     33  H   UNL     1      19.796   7.015  23.487  0.00  0.00    +0.210 HD
ENDBRANCH  14   4
BRANCH  11  17
ATOM     17  C   UNL     1      22.477   3.626  20.796  0.00  0.00    +0.138 C 
BRANCH  17   7
ATOM      5  O   UNL     1      24.914   2.792  19.448  0.00  0.00    -0.276 OA
ATOM      7  N   UNL     1      23.600   2.894  21.365  0.00  0.00    -0.313 N 
ATOM     19  C   UNL     1      24.711   2.548  20.631  0.00  0.00    +0.216 C 
ATOM     31  H   UNL     1      23.545   2.633  22.346  0.00  0.00    +0.149 HD
BRANCH  19  10
ATOM     10  C   UNL     1      25.739   1.803  21.417  0.00  0.00    +0.075 C 
ATOM     15  C   UNL     1      25.540   1.621  22.893  0.00  0.00    +0.013 C 
ATOM     16  C   UNL     1      25.399   0.450  21.966  0.00  0.00    +0.013 C 
ENDBRANCH  19  10
ENDBRANCH  17   7
ENDBRANCH  11  17
BRANCH  12  18
ATOM     18  C   UNL     1      19.193   6.204  20.871  0.00  0.00    +0.130 C 
BRANCH  18  20
ATOM      6  O   UNL     1      18.814   8.237  22.037  0.00  0.00    -0.276 OA
ATOM      8  N   UNL     1      17.209   7.616  20.476  0.00  0.00    -0.298 N 
ATOM      9  N   UNL     1      14.840   8.177  18.910  0.00  0.00    -0.327 N 
ATOM     20  C   UNL     1      18.398   7.447  21.187  0.00  0.00    +0.218 C 
ATOM     21  C   UNL     1      16.380   8.792  20.729  0.00  0.00    +0.126 C 
ATOM     22  C   UNL     1      16.721   6.682  19.459  0.00  0.00    +0.126 C 
ATOM     23  C   UNL     1      15.653   9.260  19.470  0.00  0.00    +0.124 C 
ATOM     24  C   UNL     1      15.214   6.795  19.225  0.00  0.00    +0.124 C 
BRANCH   9  25
ATOM      1  F   UNL     1      10.408   9.290  15.811  0.00  0.00    -0.205 F 
ATOM     25  C   UNL     1      13.722   8.458  18.128  0.00  0.00    +0.030 A 
ATOM     26  C   UNL     1      13.883   8.948  16.832  0.00  0.00    +0.026 A 
ATOM     27  C   UNL     1      12.441   8.246  18.640  0.00  0.00    +0.026 A 
ATOM     28  C   UNL     1      12.763   9.231  16.049  0.00  0.00    +0.040 A 
ATOM     29  C   UNL     1      11.323   8.528  17.857  0.00  0.00    +0.040 A 
ATOM     30  C   UNL     1      11.483   9.020  16.562  0.00  0.00    +0.124 A 
ENDBRANCH   9  25
ENDBRANCH  18  20
ENDBRANCH  12  18
TORSDOF 8
ENDMDL
