MODEL 1
REMARK VINA RESULT:      -7.2      0.000      0.000
REMARK  Name = 25313885
REMARK  7 active torsions:
REMARK  status: ('A' for Active; 'I' for Inactive)
REMARK    1  A    between atoms: N_6  and  C_30
REMARK    2  A    between atoms: N_7  and  C_23
REMARK    3  A    between atoms: C_9  and  C_13
REMARK    4  A    between atoms: C_10  and  C_14
REMARK    5  A    between atoms: C_13  and  C_16
REMARK    6  A    between atoms: C_14  and  C_17
REMARK    7  A    between atoms: C_23  and  C_24
REMARK                            x       y       z     vdW  Elec       q    Type
REMARK                         _______ _______ _______ _____ _____    ______ ____
ROOT
ATOM      4  N   UNL     1      -6.630 -13.938  17.558  0.00  0.00    -0.316 NA
ATOM      9  C   UNL     1      -6.901 -11.158  16.607  0.00  0.00    +0.004 C 
ATOM     10  C   UNL     1      -5.528 -11.837  16.826  0.00  0.00    +0.012 C 
ATOM     11  C   UNL     1      -7.962 -12.242  16.353  0.00  0.00    +0.019 C 
ATOM     12  C   UNL     1      -5.605 -12.947  17.887  0.00  0.00    +0.085 C 
ATOM     15  C   UNL     1      -7.952 -13.330  17.425  0.00  0.00    +0.081 C 
ATOM     36  H   UNL     1      -6.657 -14.650  18.286  0.00  0.00    +0.122 HD
ENDROOT
BRANCH   9  13
ATOM     13  C   UNL     1      -7.330 -10.233  17.752  0.00  0.00    +0.100 C 
BRANCH  13  16
ATOM      2  O   UNL     1      -8.600  -8.772  16.378  0.00  0.00    -0.276 OA
ATOM      5  N   UNL     1      -9.690  -9.686  18.214  0.00  0.00    -0.298 N 
ATOM      6  N   UNL     1     -12.089 -10.178  19.758  0.00  0.00    -0.327 N 
ATOM     16  C   UNL     1      -8.591  -9.494  17.377  0.00  0.00    +0.216 C 
ATOM     18  C   UNL     1     -10.946  -9.002  17.921  0.00  0.00    +0.126 C 
ATOM     19  C   UNL     1      -9.681 -10.554  19.395  0.00  0.00    +0.126 C 
ATOM     20  C   UNL     1     -12.160  -9.833  18.335  0.00  0.00    +0.124 C 
ATOM     21  C   UNL     1     -10.773 -10.195  20.402  0.00  0.00    +0.124 C 
BRANCH   6  30
ATOM      1  F   UNL     1     -16.684 -11.245  22.630  0.00  0.00    -0.205 F 
ATOM     30  C   UNL     1     -13.248 -10.447  20.482  0.00  0.00    +0.030 A 
ATOM     31  C   UNL     1     -13.343 -11.617  21.237  0.00  0.00    +0.026 A 
ATOM     32  C   UNL     1     -14.313  -9.548  20.453  0.00  0.00    +0.026 A 
ATOM     33  C   UNL     1     -14.503 -11.886  21.963  0.00  0.00    +0.040 A 
ATOM     34  C   UNL     1     -15.474  -9.817  21.179  0.00  0.00    +0.040 A 
ATOM     35  C   UNL     1     -15.569 -10.987  21.933  0.00  0.00    +0.124 A 
ENDBRANCH   6  30
ENDBRANCH  13  16
ENDBRANCH   9  13
BRANCH  10  14
ATOM     14  C   UNL     1      -4.417 -10.844  17.166  0.00  0.00    +0.064 C 
BRANCH  14  17
ATOM      3  O   UNL     1      -1.480 -10.589  15.099  0.00  0.00    -0.358 OA
ATOM      8  N   UNL     1      -2.111 -10.672  16.334  0.00  0.00    -0.083 NA
ATOM     17  C   UNL     1      -3.415 -10.740  16.052  0.00  0.00    +0.084 A 
ATOM     22  C   UNL     1      -3.665 -10.706  14.669  0.00  0.00    +0.072 A 
ATOM     24  C   UNL     1      -2.415 -10.610  14.115  0.00  0.00    +0.151 A 
BRANCH  24  23
ATOM     23  C   UNL     1      -1.918 -10.530  12.736  0.00  0.00    +0.161 C 
BRANCH  23   7
ATOM      7  N   UNL     1      -2.984 -10.367  11.748  0.00  0.00    -0.295 NA
ATOM     25  C   UNL     1      -3.339 -11.664  11.157  0.00  0.00    +0.085 C 
ATOM     26  C   UNL     1      -2.582  -9.403  10.713  0.00  0.00    +0.085 C 
ATOM     27  C   UNL     1      -4.487 -11.518  10.155  0.00  0.00    +0.015 C 
ATOM     28  C   UNL     1      -3.705  -9.183   9.698  0.00  0.00    +0.015 C 
ATOM     29  C   UNL     1      -4.152 -10.500   9.071  0.00  0.00    +0.002 C 
ENDBRANCH  23   7
ENDBRANCH  24  23
ENDBRANCH  14  17
ENDBRANCH  10  14
TORSDOF 7
ENDMDL
MODEL 2
REMARK VINA RESULT:      -7.0      5.052      9.922
REMARK  Name = 25313885
REMARK  7 active torsions:
REMARK  status: ('A' for Active; 'I' for Inactive)
REMARK    1  A    between atoms: N_6  and  C_30
REMARK    2  A    between atoms: N_7  and  C_23
REMARK    3  A    between atoms: C_9  and  C_13
REMARK    4  A    between atoms: C_10  and  C_14
REMARK    5  A    between atoms: C_13  and  C_16
REMARK    6  A    between atoms: C_14  and  C_17
REMARK    7  A    between atoms: C_23  and  C_24
REMARK                            x       y       z     vdW  Elec       q    Type
REMARK                         _______ _______ _______ _____ _____    ______ ____
ROOT
ATOM      4  N   UNL     1     -13.097 -10.730  18.454  0.00  0.00    -0.316 NA
ATOM      9  C   UNL     1     -10.294 -10.306  19.268  0.00  0.00    +0.004 C 
ATOM     10  C   UNL     1     -11.050  -9.331  18.335  0.00  0.00    +0.012 C 
ATOM     11  C   UNL     1     -11.314 -11.070  20.128  0.00  0.00    +0.019 C 
ATOM     12  C   UNL     1     -12.169 -10.042  17.556  0.00  0.00    +0.085 C 
ATOM     15  C   UNL     1     -12.417 -11.715  19.290  0.00  0.00    +0.081 C 
ATOM     36  H   UNL     1     -13.818 -11.195  17.902  0.00  0.00    +0.122 HD
ENDROOT
BRANCH   9  13
ATOM     13  C   UNL     1      -9.363 -11.278  18.533  0.00  0.00    +0.100 C 
BRANCH  13  16
ATOM      2  O   UNL     1      -7.616 -10.966  20.111  0.00  0.00    -0.276 OA
ATOM      5  N   UNL     1      -7.031 -10.833  17.866  0.00  0.00    -0.298 N 
ATOM      6  N   UNL     1      -5.047 -10.656  15.766  0.00  0.00    -0.327 N 
ATOM     16  C   UNL     1      -7.928 -11.013  18.919  0.00  0.00    +0.216 C 
ATOM     18  C   UNL     1      -5.624 -10.567  18.158  0.00  0.00    +0.126 C 
ATOM     19  C   UNL     1      -7.401 -10.901  16.450  0.00  0.00    +0.126 C 
ATOM     20  C   UNL     1      -4.699 -11.162  17.097  0.00  0.00    +0.124 C 
ATOM     21  C   UNL     1      -6.411 -10.170  15.544  0.00  0.00    +0.124 C 
BRANCH   6  30
ATOM      1  F   UNL     1      -1.262 -10.470  11.748  0.00  0.00    -0.205 F 
ATOM     30  C   UNL     1      -4.092 -10.609  14.752  0.00  0.00    +0.030 A 
ATOM     31  C   UNL     1      -2.735 -10.597  15.073  0.00  0.00    +0.026 A 
ATOM     32  C   UNL     1      -4.494 -10.573  13.417  0.00  0.00    +0.026 A 
ATOM     33  C   UNL     1      -1.779 -10.551  14.058  0.00  0.00    +0.040 A 
ATOM     34  C   UNL     1      -3.538 -10.526  12.402  0.00  0.00    +0.040 A 
ATOM     35  C   UNL     1      -2.180 -10.514  12.723  0.00  0.00    +0.124 A 
ENDBRANCH   6  30
ENDBRANCH  13  16
ENDBRANCH   9  13
BRANCH  10  14
ATOM     14  C   UNL     1     -10.124  -8.578  17.379  0.00  0.00    +0.064 C 
BRANCH  14  17
ATOM      3  O   UNL     1     -11.960  -6.105  15.515  0.00  0.00    -0.358 OA
ATOM      8  N   UNL     1     -11.268  -6.532  16.642  0.00  0.00    -0.083 NA
ATOM     17  C   UNL     1     -10.906  -7.789  16.369  0.00  0.00    +0.084 A 
ATOM     22  C   UNL     1     -11.336  -8.204  15.096  0.00  0.00    +0.072 A 
ATOM     24  C   UNL     1     -11.995  -7.108  14.602  0.00  0.00    +0.151 A 
BRANCH  24  23
ATOM     23  C   UNL     1     -12.693  -6.825  13.342  0.00  0.00    +0.161 C 
BRANCH  23   7
ATOM      7  N   UNL     1     -12.986  -5.405  13.152  0.00  0.00    -0.295 NA
ATOM     25  C   UNL     1     -14.437  -5.187  13.069  0.00  0.00    +0.085 C 
ATOM     26  C   UNL     1     -12.303  -4.895  11.954  0.00  0.00    +0.085 C 
ATOM     27  C   UNL     1     -14.764  -3.700  12.919  0.00  0.00    +0.015 C 
ATOM     28  C   UNL     1     -12.560  -3.399  11.769  0.00  0.00    +0.015 C 
ATOM     29  C   UNL     1     -14.053  -3.095  11.714  0.00  0.00    +0.002 C 
ENDBRANCH  23   7
ENDBRANCH  24  23
ENDBRANCH  14  17
ENDBRANCH  10  14
TORSDOF 7
ENDMDL
MODEL 3
REMARK VINA RESULT:      -6.7     22.988     26.997
REMARK  Name = 25313885
REMARK  7 active torsions:
REMARK  status: ('A' for Active; 'I' for Inactive)
REMARK    1  A    between atoms: N_6  and  C_30
REMARK    2  A    between atoms: N_7  and  C_23
REMARK    3  A    between atoms: C_9  and  C_13
REMARK    4  A    between atoms: C_10  and  C_14
REMARK    5  A    between atoms: C_13  and  C_16
REMARK    6  A    between atoms: C_14  and  C_17
REMARK    7  A    between atoms: C_23  and  C_24
REMARK                            x       y       z     vdW  Elec       q    Type
REMARK                         _______ _______ _______ _____ _____    ______ ____
ROOT
ATOM      4  N   UNL     1     -14.179   9.469  30.873  0.00  0.00    -0.316 NA
ATOM      9  C   UNL     1     -11.765   8.895  32.469  0.00  0.00    +0.004 C 
ATOM     10  C   UNL     1     -13.115   8.179  32.708  0.00  0.00    +0.012 C 
ATOM     11  C   UNL     1     -11.715   9.397  31.016  0.00  0.00    +0.019 C 
ATOM     12  C   UNL     1     -14.305   9.048  32.269  0.00  0.00    +0.085 C 
ATOM     15  C   UNL     1     -12.946  10.218  30.640  0.00  0.00    +0.081 C 
ATOM     36  H   UNL     1     -14.979  10.049  30.621  0.00  0.00    +0.122 HD
ENDROOT
BRANCH   9  13
ATOM     13  C   UNL     1     -11.481  10.037  33.452  0.00  0.00    +0.100 C 
BRANCH  13  16
ATOM      2  O   UNL     1      -9.145  10.291  33.107  0.00  0.00    -0.276 OA
ATOM      5  N   UNL     1      -9.818   9.591  35.218  0.00  0.00    -0.298 N 
ATOM      6  N   UNL     1      -9.254   8.986  37.992  0.00  0.00    -0.327 N 
ATOM     16  C   UNL     1     -10.041   9.989  33.899  0.00  0.00    +0.216 C 
ATOM     18  C   UNL     1      -8.451   9.514  35.725  0.00  0.00    +0.126 C 
ATOM     19  C   UNL     1     -10.884   9.242  36.161  0.00  0.00    +0.126 C 
ATOM     20  C   UNL     1      -8.372   9.859  37.211  0.00  0.00    +0.124 C 
ATOM     21  C   UNL     1     -10.392   8.363  37.311  0.00  0.00    +0.124 C 
BRANCH   6  30
ATOM      1  F   UNL     1      -8.216   7.973  43.321  0.00  0.00    -0.205 F 
ATOM     30  C   UNL     1      -8.992   8.730  39.336  0.00  0.00    +0.030 A 
ATOM     31  C   UNL     1      -7.815   9.198  39.918  0.00  0.00    +0.026 A 
ATOM     32  C   UNL     1      -9.907   8.005  40.099  0.00  0.00    +0.026 A 
ATOM     33  C   UNL     1      -7.553   8.943  41.264  0.00  0.00    +0.040 A 
ATOM     34  C   UNL     1      -9.645   7.749  41.445  0.00  0.00    +0.040 A 
ATOM     35  C   UNL     1      -8.467   8.218  42.028  0.00  0.00    +0.124 A 
ENDBRANCH   6  30
ENDBRANCH  13  16
ENDBRANCH   9  13
BRANCH  10  14
ATOM     14  C   UNL     1     -13.297   7.710  34.152  0.00  0.00    +0.064 C 
BRANCH  14  17
ATOM      3  O   UNL     1     -14.465   4.431  35.072  0.00  0.00    -0.358 OA
ATOM      8  N   UNL     1     -13.890   5.661  35.371  0.00  0.00    -0.083 NA
ATOM     17  C   UNL     1     -13.861   6.320  34.209  0.00  0.00    +0.084 A 
ATOM     22  C   UNL     1     -14.401   5.565  33.153  0.00  0.00    +0.072 A 
ATOM     24  C   UNL     1     -14.765   4.386  33.749  0.00  0.00    +0.151 A 
BRANCH  24  23
ATOM     23  C   UNL     1     -15.384   3.149  33.260  0.00  0.00    +0.161 C 
BRANCH  23   7
ATOM      7  N   UNL     1     -14.914   2.755  31.932  0.00  0.00    -0.295 NA
ATOM     25  C   UNL     1     -15.924   3.075  30.914  0.00  0.00    +0.085 C 
ATOM     26  C   UNL     1     -14.573   1.325  31.911  0.00  0.00    +0.085 C 
ATOM     27  C   UNL     1     -15.427   2.714  29.512  0.00  0.00    +0.015 C 
ATOM     28  C   UNL     1     -14.033   0.907  30.542  0.00  0.00    +0.015 C 
ATOM     29  C   UNL     1     -15.018   1.248  29.429  0.00  0.00    +0.002 C 
ENDBRANCH  23   7
ENDBRANCH  24  23
ENDBRANCH  14  17
ENDBRANCH  10  14
TORSDOF 7
ENDMDL
MODEL 4
REMARK VINA RESULT:      -6.6     26.435     30.633
REMARK  Name = 25313885
REMARK  7 active torsions:
REMARK  status: ('A' for Active; 'I' for Inactive)
REMARK    1  A    between atoms: N_6  and  C_30
REMARK    2  A    between atoms: N_7  and  C_23
REMARK    3  A    between atoms: C_9  and  C_13
REMARK    4  A    between atoms: C_10  and  C_14
REMARK    5  A    between atoms: C_13  and  C_16
REMARK    6  A    between atoms: C_14  and  C_17
REMARK    7  A    between atoms: C_23  and  C_24
REMARK                            x       y       z     vdW  Elec       q    Type
REMARK                         _______ _______ _______ _____ _____    ______ ____
ROOT
ATOM      4  N   UNL     1      16.171   4.034   0.637  0.00  0.00    -0.316 NA
ATOM      9  C   UNL     1      13.571   4.686  -0.595  0.00  0.00    +0.004 C 
ATOM     10  C   UNL     1      13.726   4.367   0.910  0.00  0.00    +0.012 C 
ATOM     11  C   UNL     1      14.914   5.201  -1.139  0.00  0.00    +0.019 C 
ATOM     12  C   UNL     1      14.938   3.459   1.178  0.00  0.00    +0.085 C 
ATOM     15  C   UNL     1      16.076   4.270  -0.802  0.00  0.00    +0.081 C 
ATOM     36  H   UNL     1      16.948   3.402   0.826  0.00  0.00    +0.122 HD
ENDROOT
BRANCH   9  13
ATOM     13  C   UNL     1      13.058   3.509  -1.434  0.00  0.00    +0.100 C 
BRANCH  13  16
ATOM      2  O   UNL     1      13.433   3.833  -3.756  0.00  0.00    -0.276 OA
ATOM      5  N   UNL     1      11.406   4.591  -2.911  0.00  0.00    -0.298 N 
ATOM      6  N   UNL     1       8.742   5.664  -3.280  0.00  0.00    -0.327 N 
ATOM     16  C   UNL     1      12.659   3.988  -2.808  0.00  0.00    +0.216 C 
ATOM     18  C   UNL     1      10.949   5.086  -4.207  0.00  0.00    +0.126 C 
ATOM     19  C   UNL     1      10.483   4.764  -1.786  0.00  0.00    +0.126 C 
ATOM     20  C   UNL     1       9.434   4.961  -4.365  0.00  0.00    +0.124 C 
ATOM     21  C   UNL     1       9.463   5.878  -2.023  0.00  0.00    +0.124 C 
BRANCH   6  30
ATOM      1  F   UNL     1       3.607   7.570  -3.985  0.00  0.00    -0.205 F 
ATOM     30  C   UNL     1       7.447   6.145  -3.458  0.00  0.00    +0.030 A 
ATOM     31  C   UNL     1       6.590   5.522  -4.366  0.00  0.00    +0.026 A 
ATOM     32  C   UNL     1       7.007   7.249  -2.730  0.00  0.00    +0.026 A 
ATOM     33  C   UNL     1       5.293   6.003  -4.543  0.00  0.00    +0.040 A 
ATOM     34  C   UNL     1       5.710   7.731  -2.908  0.00  0.00    +0.040 A 
ATOM     35  C   UNL     1       4.853   7.107  -3.815  0.00  0.00    +0.124 A 
ENDBRANCH   6  30
ENDBRANCH  13  16
ENDBRANCH   9  13
BRANCH  10  14
ATOM     14  C   UNL     1      12.461   3.770   1.529  0.00  0.00    +0.064 C 
BRANCH  14  17
ATOM      3  O   UNL     1      11.517   6.531   3.638  0.00  0.00    -0.358 OA
ATOM      8  N   UNL     1      12.424   5.852   2.835  0.00  0.00    -0.083 NA
ATOM     17  C   UNL     1      11.775   4.756   2.431  0.00  0.00    +0.084 A 
ATOM     22  C   UNL     1      10.467   4.691   2.941  0.00  0.00    +0.072 A 
ATOM     24  C   UNL     1      10.355   5.832   3.694  0.00  0.00    +0.151 A 
BRANCH  24  23
ATOM     23  C   UNL     1       9.278   6.411   4.506  0.00  0.00    +0.161 C 
BRANCH  23   7
ATOM      7  N   UNL     1       9.599   6.471   5.931  0.00  0.00    -0.295 NA
ATOM     25  C   UNL     1       9.704   5.117   6.492  0.00  0.00    +0.085 C 
ATOM     26  C   UNL     1       8.595   7.269   6.651  0.00  0.00    +0.085 C 
ATOM     27  C   UNL     1      10.087   5.161   7.973  0.00  0.00    +0.015 C 
ATOM     28  C   UNL     1       8.943   7.383   8.136  0.00  0.00    +0.015 C 
ATOM     29  C   UNL     1       9.106   6.008   8.775  0.00  0.00    +0.002 C 
ENDBRANCH  23   7
ENDBRANCH  24  23
ENDBRANCH  14  17
ENDBRANCH  10  14
TORSDOF 7
ENDMDL
MODEL 5
REMARK VINA RESULT:      -6.6     29.407     34.076
REMARK  Name = 25313885
REMARK  7 active torsions:
REMARK  status: ('A' for Active; 'I' for Inactive)
REMARK    1  A    between atoms: N_6  and  C_30
REMARK    2  A    between atoms: N_7  and  C_23
REMARK    3  A    between atoms: C_9  and  C_13
REMARK    4  A    between atoms: C_10  and  C_14
REMARK    5  A    between atoms: C_13  and  C_16
REMARK    6  A    between atoms: C_14  and  C_17
REMARK    7  A    between atoms: C_23  and  C_24
REMARK                            x       y       z     vdW  Elec       q    Type
REMARK                         _______ _______ _______ _____ _____    ______ ____
ROOT
ATOM      4  N   UNL     1      21.442   9.937  21.946  0.00  0.00    -0.316 NA
ATOM      9  C   UNL     1      21.191   7.260  20.732  0.00  0.00    +0.004 C 
ATOM     10  C   UNL     1      19.983   8.031  21.311  0.00  0.00    +0.012 C 
ATOM     11  C   UNL     1      22.285   8.266  20.335  0.00  0.00    +0.019 C 
ATOM     12  C   UNL     1      20.410   9.012  22.416  0.00  0.00    +0.085 C 
ATOM     15  C   UNL     1      22.629   9.231  21.467  0.00  0.00    +0.081 C 
ATOM     36  H   UNL     1      21.705  10.564  22.706  0.00  0.00    +0.122 HD
ENDROOT
BRANCH   9  13
ATOM     13  C   UNL     1      21.754   6.185  21.670  0.00  0.00    +0.100 C 
BRANCH  13  16
ATOM      2  O   UNL     1      21.016   4.683  19.985  0.00  0.00    -0.276 OA
ATOM      5  N   UNL     1      22.450   3.820  21.596  0.00  0.00    -0.298 N 
ATOM      6  N   UNL     1      24.135   1.702  22.624  0.00  0.00    -0.327 N 
ATOM     16  C   UNL     1      21.700   4.834  21.000  0.00  0.00    +0.216 C 
ATOM     18  C   UNL     1      22.447   2.482  21.010  0.00  0.00    +0.126 C 
ATOM     19  C   UNL     1      23.272   4.004  22.796  0.00  0.00    +0.126 C 
ATOM     20  C   UNL     1      23.785   1.771  21.202  0.00  0.00    +0.124 C 
ATOM     21  C   UNL     1      23.548   2.692  23.530  0.00  0.00    +0.124 C 
BRANCH   6  30
ATOM      1  F   UNL     1      27.465  -2.277  24.516  0.00  0.00    -0.205 F 
ATOM     30  C   UNL     1      24.975   0.698  23.102  0.00  0.00    +0.030 A 
ATOM     31  C   UNL     1      24.850   0.251  24.417  0.00  0.00    +0.026 A 
ATOM     32  C   UNL     1      25.941   0.141  22.264  0.00  0.00    +0.026 A 
ATOM     33  C   UNL     1      25.691  -0.754  24.895  0.00  0.00    +0.040 A 
ATOM     34  C   UNL     1      26.782  -0.864  22.743  0.00  0.00    +0.040 A 
ATOM     35  C   UNL     1      26.657  -1.311  24.058  0.00  0.00    +0.124 A 
ENDBRANCH   6  30
ENDBRANCH  13  16
ENDBRANCH   9  13
BRANCH  10  14
ATOM     14  C   UNL     1      18.869   7.111  21.812  0.00  0.00    +0.064 C 
BRANCH  14  17
ATOM      3  O   UNL     1      16.851   6.182  18.978  0.00  0.00    -0.358 OA
ATOM      8  N   UNL     1      18.020   6.125  19.727  0.00  0.00    -0.083 NA
ATOM     17  C   UNL     1      17.801   6.929  20.771  0.00  0.00    +0.084 A 
ATOM     22  C   UNL     1      16.523   7.514  20.736  0.00  0.00    +0.072 A 
ATOM     24  C   UNL     1      15.967   7.012  19.588  0.00  0.00    +0.151 A 
BRANCH  24  23
ATOM     23  C   UNL     1      14.669   7.189  18.926  0.00  0.00    +0.161 C 
BRANCH  23   7
ATOM      7  N   UNL     1      13.634   7.711  19.818  0.00  0.00    -0.295 NA
ATOM     25  C   UNL     1      12.594   6.699  20.045  0.00  0.00    +0.085 C 
ATOM     26  C   UNL     1      13.061   8.949  19.270  0.00  0.00    +0.085 C 
ATOM     27  C   UNL     1      11.527   7.212  21.015  0.00  0.00    +0.015 C 
ATOM     28  C   UNL     1      12.010   9.535  20.215  0.00  0.00    +0.015 C 
ATOM     29  C   UNL     1      10.916   8.520  20.526  0.00  0.00    +0.002 C 
ENDBRANCH  23   7
ENDBRANCH  24  23
ENDBRANCH  14  17
ENDBRANCH  10  14
TORSDOF 7
ENDMDL
MODEL 6
REMARK VINA RESULT:      -6.6     28.366     32.142
REMARK  Name = 25313885
REMARK  7 active torsions:
REMARK  status: ('A' for Active; 'I' for Inactive)
REMARK    1  A    between atoms: N_6  and  C_30
REMARK    2  A    between atoms: N_7  and  C_23
REMARK    3  A    between atoms: C_9  and  C_13
REMARK    4  A    between atoms: C_10  and  C_14
REMARK    5  A    between atoms: C_13  and  C_16
REMARK    6  A    between atoms: C_14  and  C_17
REMARK    7  A    between atoms: C_23  and  C_24
REMARK                            x       y       z     vdW  Elec       q    Type
REMARK                         _______ _______ _______ _____ _____    ______ ____
ROOT
ATOM      4  N   UNL     1      23.401  -4.334   2.455  0.00  0.00    -0.316 NA
ATOM      9  C   UNL     1      22.428  -6.127   0.324  0.00  0.00    +0.004 C 
ATOM     10  C   UNL     1      21.545  -5.027   0.959  0.00  0.00    +0.012 C 
ATOM     11  C   UNL     1      23.907  -5.741   0.489  0.00  0.00    +0.019 C 
ATOM     12  C   UNL     1      21.987  -4.703   2.396  0.00  0.00    +0.085 C 
ATOM     15  C   UNL     1      24.262  -5.394   1.934  0.00  0.00    +0.081 C 
ATOM     36  H   UNL     1      23.658  -4.135   3.422  0.00  0.00    +0.122 HD
ENDROOT
BRANCH   9  13
ATOM     13  C   UNL     1      22.167  -7.534   0.876  0.00  0.00    +0.100 C 
BRANCH  13  16
ATOM      2  O   UNL     1      21.622  -8.297  -1.305  0.00  0.00    -0.276 OA
ATOM      5  N   UNL     1      20.288  -9.069   0.434  0.00  0.00    -0.298 N 
ATOM      6  N   UNL     1      18.212 -10.804   1.464  0.00  0.00    -0.327 N 
ATOM     16  C   UNL     1      21.342  -8.330  -0.104  0.00  0.00    +0.216 C 
ATOM     18  C   UNL     1      19.440  -9.863  -0.452  0.00  0.00    +0.126 C 
ATOM     19  C   UNL     1      19.964  -9.117   1.862  0.00  0.00    +0.126 C 
ATOM     20  C   UNL     1      18.933 -11.133   0.230  0.00  0.00    +0.124 C 
ATOM     21  C   UNL     1      18.517  -9.533   2.126  0.00  0.00    +0.124 C 
BRANCH   6  30
ATOM      1  F   UNL     1      14.358 -14.214   3.469  0.00  0.00    -0.205 F 
ATOM     30  C   UNL     1      17.240 -11.664   1.970  0.00  0.00    +0.030 A 
ATOM     31  C   UNL     1      16.861 -12.793   1.243  0.00  0.00    +0.026 A 
ATOM     32  C   UNL     1      16.645 -11.396   3.202  0.00  0.00    +0.026 A 
ATOM     33  C   UNL     1      15.889 -13.654   1.750  0.00  0.00    +0.040 A 
ATOM     34  C   UNL     1      15.671 -12.258   3.708  0.00  0.00    +0.040 A 
ATOM     35  C   UNL     1      15.293 -13.386   2.982  0.00  0.00    +0.124 A 
ENDBRANCH   6  30
ENDBRANCH  13  16
ENDBRANCH   9  13
BRANCH  10  14
ATOM     14  C   UNL     1      20.053  -5.358   0.917  0.00  0.00    +0.064 C 
BRANCH  14  17
ATOM      3  O   UNL     1      18.953  -3.986  -2.224  0.00  0.00    -0.358 OA
ATOM      8  N   UNL     1      19.583  -3.882  -0.991  0.00  0.00    -0.083 NA
ATOM     17  C   UNL     1      19.472  -5.095  -0.443  0.00  0.00    +0.084 A 
ATOM     22  C   UNL     1      18.789  -5.998  -1.277  0.00  0.00    +0.072 A 
ATOM     24  C   UNL     1      18.483  -5.249  -2.384  0.00  0.00    +0.151 A 
BRANCH  24  23
ATOM     23  C   UNL     1      17.784  -5.536  -3.642  0.00  0.00    +0.161 C 
BRANCH  23   7
ATOM      7  N   UNL     1      16.412  -6.002  -3.446  0.00  0.00    -0.295 NA
ATOM     25  C   UNL     1      16.144  -7.177  -4.286  0.00  0.00    +0.085 C 
ATOM     26  C   UNL     1      15.457  -4.919  -3.727  0.00  0.00    +0.085 C 
ATOM     27  C   UNL     1      14.726  -7.707  -4.057  0.00  0.00    +0.015 C 
ATOM     28  C   UNL     1      14.018  -5.376  -3.479  0.00  0.00    +0.015 C 
ATOM     29  C   UNL     1      13.683  -6.621  -4.293  0.00  0.00    +0.002 C 
ENDBRANCH  23   7
ENDBRANCH  24  23
ENDBRANCH  14  17
ENDBRANCH  10  14
TORSDOF 7
ENDMDL
MODEL 7
REMARK VINA RESULT:      -6.6     27.326     31.033
REMARK  Name = 25313885
REMARK  7 active torsions:
REMARK  status: ('A' for Active; 'I' for Inactive)
REMARK    1  A    between atoms: N_6  and  C_30
REMARK    2  A    between atoms: N_7  and  C_23
REMARK    3  A    between atoms: C_9  and  C_13
REMARK    4  A    between atoms: C_10  and  C_14
REMARK    5  A    between atoms: C_13  and  C_16
REMARK    6  A    between atoms: C_14  and  C_17
REMARK    7  A    between atoms: C_23  and  C_24
REMARK                            x       y       z     vdW  Elec       q    Type
REMARK                         _______ _______ _______ _____ _____    ______ ____
ROOT
ATOM      4  N   UNL     1       5.482   9.960  -4.471  0.00  0.00    -0.316 NA
ATOM      9  C   UNL     1       6.424   7.185  -4.808  0.00  0.00    +0.004 C 
ATOM     10  C   UNL     1       4.946   7.536  -4.520  0.00  0.00    +0.012 C 
ATOM     11  C   UNL     1       7.107   8.393  -5.472  0.00  0.00    +0.019 C 
ATOM     12  C   UNL     1       4.816   8.868  -3.761  0.00  0.00    +0.085 C 
ATOM     15  C   UNL     1       6.901   9.685  -4.684  0.00  0.00    +0.081 C 
ATOM     36  H   UNL     1       5.382  10.822  -3.935  0.00  0.00    +0.122 HD
ENDROOT
BRANCH   9  13
ATOM     13  C   UNL     1       7.209   6.725  -3.574  0.00  0.00    +0.100 C 
BRANCH  13  16
ATOM      2  O   UNL     1       7.863   4.925  -4.976  0.00  0.00    -0.276 OA
ATOM      5  N   UNL     1       9.023   5.165  -2.978  0.00  0.00    -0.298 N 
ATOM      6  N   UNL     1      11.200   4.460  -1.205  0.00  0.00    -0.327 N 
ATOM     16  C   UNL     1       8.056   5.524  -3.916  0.00  0.00    +0.216 C 
ATOM     18  C   UNL     1       9.880   4.009  -3.233  0.00  0.00    +0.126 C 
ATOM     19  C   UNL     1       9.258   5.884  -1.723  0.00  0.00    +0.126 C 
ATOM     20  C   UNL     1      11.277   4.192  -2.644  0.00  0.00    +0.124 C 
ATOM     21  C   UNL     1       9.959   5.026  -0.671  0.00  0.00    +0.124 C 
BRANCH   6  30
ATOM      1  F   UNL     1      15.435   3.227   2.119  0.00  0.00    -0.205 F 
ATOM     30  C   UNL     1      12.269   4.148  -0.366  0.00  0.00    +0.030 A 
ATOM     31  C   UNL     1      13.575   4.206  -0.851  0.00  0.00    +0.026 A 
ATOM     32  C   UNL     1      12.031   3.779   0.957  0.00  0.00    +0.026 A 
ATOM     33  C   UNL     1      14.645   3.896  -0.011  0.00  0.00    +0.040 A 
ATOM     34  C   UNL     1      13.102   3.468   1.797  0.00  0.00    +0.040 A 
ATOM     35  C   UNL     1      14.408   3.525   1.312  0.00  0.00    +0.124 A 
ENDBRANCH   6  30
ENDBRANCH  13  16
ENDBRANCH   9  13
BRANCH  10  14
ATOM     14  C   UNL     1       4.198   6.424  -3.784  0.00  0.00    +0.064 C 
BRANCH  14  17
ATOM      3  O   UNL     1       1.424   5.228  -5.743  0.00  0.00    -0.358 OA
ATOM      8  N   UNL     1       1.999   6.107  -4.834  0.00  0.00    -0.083 NA
ATOM     17  C   UNL     1       3.262   5.693  -4.704  0.00  0.00    +0.084 A 
ATOM     22  C   UNL     1       3.541   4.568  -5.501  0.00  0.00    +0.072 A 
ATOM     24  C   UNL     1       2.351   4.316  -6.134  0.00  0.00    +0.151 A 
BRANCH  24  23
ATOM     23  C   UNL     1       1.910   3.305  -7.101  0.00  0.00    +0.161 C 
BRANCH  23   7
ATOM      7  N   UNL     1       0.871   2.419  -6.576  0.00  0.00    -0.295 NA
ATOM     25  C   UNL     1       1.458   1.412  -5.681  0.00  0.00    +0.085 C 
ATOM     26  C   UNL     1       0.132   1.785  -7.678  0.00  0.00    +0.085 C 
ATOM     27  C   UNL     1       0.378   0.507  -5.085  0.00  0.00    +0.015 C 
ATOM     28  C   UNL     1      -0.991   0.892  -7.146  0.00  0.00    +0.015 C 
ATOM     29  C   UNL     1      -0.455  -0.155  -6.175  0.00  0.00    +0.002 C 
ENDBRANCH  23   7
ENDBRANCH  24  23
ENDBRANCH  14  17
ENDBRANCH  10  14
TORSDOF 7
ENDMDL
MODEL 8
REMARK VINA RESULT:      -6.5     28.357     32.717
REMARK  Name = 25313885
REMARK  7 active torsions:
REMARK  status: ('A' for Active; 'I' for Inactive)
REMARK    1  A    between atoms: N_6  and  C_30
REMARK    2  A    between atoms: N_7  and  C_23
REMARK    3  A    between atoms: C_9  and  C_13
REMARK    4  A    between atoms: C_10  and  C_14
REMARK    5  A    between atoms: C_13  and  C_16
REMARK    6  A    between atoms: C_14  and  C_17
REMARK    7  A    between atoms: C_23  and  C_24
REMARK                            x       y       z     vdW  Elec       q    Type
REMARK                         _______ _______ _______ _____ _____    ______ ____
ROOT
ATOM      4  N   UNL     1      16.837  13.062  21.986  0.00  0.00    -0.316 NA
ATOM      9  C   UNL     1      16.546  10.346  20.872  0.00  0.00    +0.004 C 
ATOM     10  C   UNL     1      15.535  10.951  21.874  0.00  0.00    +0.012 C 
ATOM     11  C   UNL     1      17.263  11.488  20.132  0.00  0.00    +0.019 C 
ATOM     12  C   UNL     1      16.192  12.011  22.774  0.00  0.00    +0.085 C 
ATOM     15  C   UNL     1      17.855  12.521  21.088  0.00  0.00    +0.081 C 
ATOM     36  H   UNL     1      17.267  13.740  22.615  0.00  0.00    +0.122 HD
ENDROOT
BRANCH   9  13
ATOM     13  C   UNL     1      17.559   9.387  21.509  0.00  0.00    +0.100 C 
BRANCH  13  16
ATOM      2  O   UNL     1      16.572   7.778  20.069  0.00  0.00    -0.276 OA
ATOM      5  N   UNL     1      18.594   7.196  21.053  0.00  0.00    -0.298 N 
ATOM      6  N   UNL     1      20.871   5.429  21.322  0.00  0.00    -0.327 N 
ATOM     16  C   UNL     1      17.521   8.052  20.807  0.00  0.00    +0.216 C 
ATOM     18  C   UNL     1      18.628   5.883  20.414  0.00  0.00    +0.126 C 
ATOM     19  C   UNL     1      19.727   7.527  21.922  0.00  0.00    +0.126 C 
ATOM     20  C   UNL     1      20.055   5.435  20.104  0.00  0.00    +0.124 C 
ATOM     21  C   UNL     1      20.460   6.289  22.435  0.00  0.00    +0.124 C 
BRANCH   6  30
ATOM      1  F   UNL     1      25.289   2.141  21.736  0.00  0.00    -0.205 F 
ATOM     30  C   UNL     1      21.986   4.600  21.427  0.00  0.00    +0.030 A 
ATOM     31  C   UNL     1      22.006   3.574  22.372  0.00  0.00    +0.026 A 
ATOM     32  C   UNL     1      23.081   4.796  20.587  0.00  0.00    +0.026 A 
ATOM     33  C   UNL     1      23.121   2.743  22.476  0.00  0.00    +0.040 A 
ATOM     34  C   UNL     1      24.198   3.965  20.691  0.00  0.00    +0.040 A 
ATOM     35  C   UNL     1      24.218   2.939  21.636  0.00  0.00    +0.124 A 
ENDBRANCH   6  30
ENDBRANCH  13  16
ENDBRANCH   9  13
BRANCH  10  14
ATOM     14  C   UNL     1      14.824   9.894  22.720  0.00  0.00    +0.064 C 
BRANCH  14  17
ATOM      3  O   UNL     1      12.718   7.449  21.125  0.00  0.00    -0.358 OA
ATOM      8  N   UNL     1      13.758   7.810  21.972  0.00  0.00    -0.083 NA
ATOM     17  C   UNL     1      13.803   9.144  21.914  0.00  0.00    +0.084 A 
ATOM     22  C   UNL     1      12.824   9.675  21.056  0.00  0.00    +0.072 A 
ATOM     24  C   UNL     1      12.169   8.566  20.585  0.00  0.00    +0.151 A 
BRANCH  24  23
ATOM     23  C   UNL     1      11.048   8.365  19.660  0.00  0.00    +0.161 C 
BRANCH  23   7
ATOM      7  N   UNL     1      11.462   8.295  18.259  0.00  0.00    -0.295 NA
ATOM     25  C   UNL     1      12.782   8.916  18.082  0.00  0.00    +0.085 C 
ATOM     26  C   UNL     1      10.456   8.928  17.393  0.00  0.00    +0.085 C 
ATOM     27  C   UNL     1      13.252   8.808  16.629  0.00  0.00    +0.015 C 
ATOM     28  C   UNL     1      10.851   8.820  15.919  0.00  0.00    +0.015 C 
ATOM     29  C   UNL     1      12.233   9.412  15.670  0.00  0.00    +0.002 C 
ENDBRANCH  23   7
ENDBRANCH  24  23
ENDBRANCH  14  17
ENDBRANCH  10  14
TORSDOF 7
ENDMDL
MODEL 9
REMARK VINA RESULT:      -6.4     27.455     31.437
REMARK  Name = 25313885
REMARK  7 active torsions:
REMARK  status: ('A' for Active; 'I' for Inactive)
REMARK    1  A    between atoms: N_6  and  C_30
REMARK    2  A    between atoms: N_7  and  C_23
REMARK    3  A    between atoms: C_9  and  C_13
REMARK    4  A    between atoms: C_10  and  C_14
REMARK    5  A    between atoms: C_13  and  C_16
REMARK    6  A    between atoms: C_14  and  C_17
REMARK    7  A    between atoms: C_23  and  C_24
REMARK                            x       y       z     vdW  Elec       q    Type
REMARK                         _______ _______ _______ _____ _____    ______ ____
ROOT
ATOM      4  N   UNL     1      10.106   9.285   7.913  0.00  0.00    -0.316 NA
ATOM      9  C   UNL     1      10.718   6.670   6.693  0.00  0.00    +0.004 C 
ATOM     10  C   UNL     1      11.676   7.881   6.598  0.00  0.00    +0.012 C 
ATOM     11  C   UNL     1       9.826   6.832   7.935  0.00  0.00    +0.019 C 
ATOM     12  C   UNL     1      10.917   9.215   6.697  0.00  0.00    +0.085 C 
ATOM     15  C   UNL     1       9.137   8.194   7.985  0.00  0.00    +0.081 C 
ATOM     36  H   UNL     1       9.613  10.177   7.939  0.00  0.00    +0.122 HD
ENDROOT
BRANCH   9  13
ATOM     13  C   UNL     1       9.868   6.446   5.436  0.00  0.00    +0.100 C 
BRANCH  13  16
ATOM      2  O   UNL     1       9.804   4.076   5.577  0.00  0.00    -0.276 OA
ATOM      5  N   UNL     1      10.661   4.982   3.616  0.00  0.00    -0.298 N 
ATOM      6  N   UNL     1      11.614   4.707   0.897  0.00  0.00    -0.327 N 
ATOM     16  C   UNL     1      10.103   5.058   4.892  0.00  0.00    +0.216 C 
ATOM     18  C   UNL     1      10.923   3.674   3.022  0.00  0.00    +0.126 C 
ATOM     19  C   UNL     1      11.005   6.149   2.800  0.00  0.00    +0.126 C 
ATOM     20  C   UNL     1      10.750   3.691   1.504  0.00  0.00    +0.124 C 
ATOM     21  C   UNL     1      12.047   5.834   1.727  0.00  0.00    +0.124 C 
BRANCH   6  30
ATOM      1  F   UNL     1      13.293   4.211  -4.341  0.00  0.00    -0.205 F 
ATOM     30  C   UNL     1      12.038   4.582  -0.425  0.00  0.00    +0.030 A 
ATOM     31  C   UNL     1      12.390   3.330  -0.928  0.00  0.00    +0.026 A 
ATOM     32  C   UNL     1      12.110   5.709  -1.243  0.00  0.00    +0.026 A 
ATOM     33  C   UNL     1      12.814   3.205  -2.251  0.00  0.00    +0.040 A 
ATOM     34  C   UNL     1      12.534   5.583  -2.567  0.00  0.00    +0.040 A 
ATOM     35  C   UNL     1      12.887   4.331  -3.070  0.00  0.00    +0.124 A 
ENDBRANCH   6  30
ENDBRANCH  13  16
ENDBRANCH   9  13
BRANCH  10  14
ATOM     14  C   UNL     1      12.554   7.854   5.347  0.00  0.00    +0.064 C 
BRANCH  14  17
ATOM      3  O   UNL     1      15.931   7.717   6.588  0.00  0.00    -0.358 OA
ATOM      8  N   UNL     1      14.637   7.219   6.485  0.00  0.00    -0.083 NA
ATOM     17  C   UNL     1      13.999   8.080   5.688  0.00  0.00    +0.084 A 
ATOM     22  C   UNL     1      14.831   9.130   5.260  0.00  0.00    +0.072 A 
ATOM     24  C   UNL     1      16.034   8.854   5.855  0.00  0.00    +0.151 A 
BRANCH  24  23
ATOM     23  C   UNL     1      17.344   9.516   5.853  0.00  0.00    +0.161 C 
BRANCH  23   7
ATOM      7  N   UNL     1      18.464   8.578   5.915  0.00  0.00    -0.295 NA
ATOM     25  C   UNL     1      19.497   9.073   6.836  0.00  0.00    +0.085 C 
ATOM     26  C   UNL     1      19.016   8.346   4.572  0.00  0.00    +0.085 C 
ATOM     27  C   UNL     1      20.656   8.079   6.950  0.00  0.00    +0.015 C 
ATOM     28  C   UNL     1      20.158   7.329   4.614  0.00  0.00    +0.015 C 
ATOM     29  C   UNL     1      21.252   7.762   5.584  0.00  0.00    +0.002 C 
ENDBRANCH  23   7
ENDBRANCH  24  23
ENDBRANCH  14  17
ENDBRANCH  10  14
TORSDOF 7
ENDMDL
MODEL 10
REMARK VINA RESULT:      -6.4     27.448     29.758
REMARK  Name = 25313885
REMARK  7 active torsions:
REMARK  status: ('A' for Active; 'I' for Inactive)
REMARK    1  A    between atoms: N_6  and  C_30
REMARK    2  A    between atoms: N_7  and  C_23
REMARK    3  A    between atoms: C_9  and  C_13
REMARK    4  A    between atoms: C_10  and  C_14
REMARK    5  A    between atoms: C_13  and  C_16
REMARK    6  A    between atoms: C_14  and  C_17
REMARK    7  A    between atoms: C_23  and  C_24
REMARK                            x       y       z     vdW  Elec       q    Type
REMARK                         _______ _______ _______ _____ _____    ______ ____
ROOT
ATOM      4  N   UNL     1       6.956   8.847  -1.949  0.00  0.00    -0.316 NA
ATOM      9  C   UNL     1       5.591   6.659  -3.382  0.00  0.00    +0.004 C 
ATOM     10  C   UNL     1       7.113   6.657  -3.107  0.00  0.00    +0.012 C 
ATOM     11  C   UNL     1       4.894   7.544  -2.335  0.00  0.00    +0.019 C 
ATOM     12  C   UNL     1       7.669   8.084  -2.974  0.00  0.00    +0.085 C 
ATOM     15  C   UNL     1       5.525   8.932  -2.231  0.00  0.00    +0.081 C 
ATOM     36  H   UNL     1       7.346   9.788  -1.896  0.00  0.00    +0.122 HD
ENDROOT
BRANCH   9  13
ATOM     13  C   UNL     1       5.213   7.095  -4.803  0.00  0.00    +0.100 C 
BRANCH  13  16
ATOM      2  O   UNL     1       3.152   8.273  -4.813  0.00  0.00    -0.276 OA
ATOM      5  N   UNL     1       3.047   5.984  -5.195  0.00  0.00    -0.298 N 
ATOM      6  N   UNL     1       1.586   3.599  -5.943  0.00  0.00    -0.327 N 
ATOM     16  C   UNL     1       3.713   7.182  -4.936  0.00  0.00    +0.216 C 
ATOM     18  C   UNL     1       1.592   5.984  -5.333  0.00  0.00    +0.126 C 
ATOM     19  C   UNL     1       3.715   4.690  -5.352  0.00  0.00    +0.126 C 
ATOM     20  C   UNL     1       1.113   4.931  -6.330  0.00  0.00    +0.124 C 
ATOM     21  C   UNL     1       2.781   3.507  -5.100  0.00  0.00    +0.124 C 
BRANCH   6  30
ATOM      1  F   UNL     1      -1.157  -0.931  -7.511  0.00  0.00    -0.205 F 
ATOM     30  C   UNL     1       0.894   2.456  -6.338  0.00  0.00    +0.030 A 
ATOM     31  C   UNL     1       0.669   1.426  -5.425  0.00  0.00    +0.026 A 
ATOM     32  C   UNL     1       0.428   2.342  -7.647  0.00  0.00    +0.026 A 
ATOM     33  C   UNL     1      -0.024   0.282  -5.821  0.00  0.00    +0.040 A 
ATOM     34  C   UNL     1      -0.266   1.198  -8.043  0.00  0.00    +0.040 A 
ATOM     35  C   UNL     1      -0.491   0.168  -7.130  0.00  0.00    +0.124 A 
ENDBRANCH   6  30
ENDBRANCH  13  16
ENDBRANCH   9  13
BRANCH  10  14
ATOM     14  C   UNL     1       7.908   5.866  -4.147  0.00  0.00    +0.064 C 
BRANCH  14  17
ATOM      3  O   UNL     1       9.855   3.089  -2.939  0.00  0.00    -0.358 OA
ATOM      8  N   UNL     1       8.798   3.627  -3.662  0.00  0.00    -0.083 NA
ATOM     17  C   UNL     1       8.901   4.948  -3.493  0.00  0.00    +0.084 A 
ATOM     22  C   UNL     1       9.995   5.300  -2.682  0.00  0.00    +0.072 A 
ATOM     24  C   UNL     1      10.561   4.093  -2.360  0.00  0.00    +0.151 A 
BRANCH  24  23
ATOM     23  C   UNL     1      11.721   3.700  -1.553  0.00  0.00    +0.161 C 
BRANCH  23   7
ATOM      7  N   UNL     1      11.761   4.350  -0.243  0.00  0.00    -0.295 NA
ATOM     25  C   UNL     1      12.858   3.806   0.568  0.00  0.00    +0.085 C 
ATOM     26  C   UNL     1      10.469   4.203   0.443  0.00  0.00    +0.085 C 
ATOM     27  C   UNL     1      12.944   4.511   1.924  0.00  0.00    +0.015 C 
ATOM     28  C   UNL     1      10.477   4.921   1.794  0.00  0.00    +0.015 C 
ATOM     29  C   UNL     1      11.621   4.431   2.675  0.00  0.00    +0.002 C 
ENDBRANCH  23   7
ENDBRANCH  24  23
ENDBRANCH  14  17
ENDBRANCH  10  14
TORSDOF 7
ENDMDL
