MODEL 1
REMARK VINA RESULT:      -7.7      0.000      0.000
REMARK  Name = 45361317
REMARK  7 active torsions:
REMARK  status: ('A' for Active; 'I' for Inactive)
REMARK    1  A    between atoms: O_3  and  C_9
REMARK    2  A    between atoms: C_7  and  C_15
REMARK    3  A    between atoms: C_10  and  C_16
REMARK    4  A    between atoms: C_12  and  C_19
REMARK    5  A    between atoms: C_16  and  C_20
REMARK    6  A    between atoms: C_16  and  C_21
REMARK    7  A    between atoms: C_22  and  C_27
REMARK                            x       y       z     vdW  Elec       q    Type
REMARK                         _______ _______ _______ _____ _____    ______ ____
ROOT
ATOM      1  S   UNL     1      -6.001  -9.936   6.701  0.00  0.00    -0.072 S 
ATOM      5  N   UNL     1      -7.310  -8.528   8.430  0.00  0.00    -0.243 NA
ATOM      7  C   UNL     1      -3.998 -10.470  10.252  0.00  0.00    -0.022 C 
ATOM      8  C   UNL     1      -5.258 -10.268  11.183  0.00  0.00    +0.033 C 
ATOM      9  C   UNL     1      -4.839 -10.039  12.663  0.00  0.00    +0.123 C 
ATOM     10  C   UNL     1      -3.874 -11.126  13.185  0.00  0.00    +0.029 C 
ATOM     11  C   UNL     1      -3.098 -11.587  10.832  0.00  0.00    +0.008 C 
ATOM     12  C   UNL     1      -6.233  -9.152  10.625  0.00  0.00    +0.042 C 
ATOM     13  C   UNL     1      -2.668 -11.325  12.269  0.00  0.00    +0.007 C 
ATOM     14  C   UNL     1      -4.457 -10.930   8.834  0.00  0.00    +0.051 C 
ATOM     15  C   UNL     1      -3.162  -9.172  10.114  0.00  0.00    +0.012 C 
ATOM     17  C   UNL     1      -6.375  -9.273   9.126  0.00  0.00    +0.055 A 
ATOM     18  C   UNL     1      -5.565 -10.068   8.341  0.00  0.00    +0.014 A 
ATOM     19  C   UNL     1      -7.619  -9.172  11.285  0.00  0.00    +0.014 C 
ATOM     22  C   UNL     1      -7.213  -8.805   7.148  0.00  0.00    +0.109 A 
ENDROOT
BRANCH  22  27
ATOM      2  F   UNL     1     -10.397  -6.586   3.148  0.00  0.00    -0.205 F 
ATOM     27  C   UNL     1      -8.037  -8.229   6.112  0.00  0.00    +0.007 A 
ATOM     28  C   UNL     1      -9.169  -7.488   6.452  0.00  0.00    +0.013 A 
ATOM     29  C   UNL     1      -7.702  -8.415   4.771  0.00  0.00    +0.013 A 
ATOM     30  C   UNL     1      -9.966  -6.933   5.451  0.00  0.00    +0.039 A 
ATOM     31  C   UNL     1      -8.499  -7.859   3.769  0.00  0.00    +0.039 A 
ATOM     32  C   UNL     1      -9.631  -7.118   4.109  0.00  0.00    +0.123 A 
ENDBRANCH  22  27
BRANCH   9   3
ATOM      3  O   UNL     1      -5.999 -10.068  13.493  0.00  0.00    -0.391 OA
ATOM     33  H   UNL     1      -6.608 -10.737  13.137  0.00  0.00    +0.210 HD
ENDBRANCH   9   3
BRANCH  10  16
ATOM     16  C   UNL     1      -3.392 -10.824  14.609  0.00  0.00    +0.078 C 
ATOM     21  C   UNL     1      -1.891 -10.603  14.644  0.00  0.00    +0.017 C 
BRANCH  16  20
ATOM      4  O   UNL     1      -3.510 -13.137  15.162  0.00  0.00    -0.275 OA
ATOM      6  N   UNL     1      -4.401 -11.643  16.681  0.00  0.00    -0.301 N 
ATOM     20  C   UNL     1      -3.766 -11.980  15.501  0.00  0.00    +0.219 C 
ATOM     23  C   UNL     1      -4.832 -12.643  17.646  0.00  0.00    +0.108 C 
ATOM     24  C   UNL     1      -4.728 -10.297  17.141  0.00  0.00    +0.108 C 
ATOM     25  C   UNL     1      -5.167 -11.847  18.898  0.00  0.00    +0.020 C 
ATOM     26  C   UNL     1      -5.650 -10.517  18.333  0.00  0.00    +0.020 C 
ENDBRANCH  16  20
ENDBRANCH  10  16
TORSDOF 4
ENDMDL
MODEL 2
REMARK VINA RESULT:      -6.8     23.308     26.381
REMARK  Name = 45361317
REMARK  7 active torsions:
REMARK  status: ('A' for Active; 'I' for Inactive)
REMARK    1  A    between atoms: O_3  and  C_9
REMARK    2  A    between atoms: C_7  and  C_15
REMARK    3  A    between atoms: C_10  and  C_16
REMARK    4  A    between atoms: C_12  and  C_19
REMARK    5  A    between atoms: C_16  and  C_20
REMARK    6  A    between atoms: C_16  and  C_21
REMARK    7  A    between atoms: C_22  and  C_27
REMARK                            x       y       z     vdW  Elec       q    Type
REMARK                         _______ _______ _______ _____ _____    ______ ____
ROOT
ATOM      1  S   UNL     1      11.643   7.048   5.097  0.00  0.00    -0.072 S 
ATOM      5  N   UNL     1      10.497   4.827   4.431  0.00  0.00    -0.243 NA
ATOM      7  C   UNL     1      13.073   6.191   1.337  0.00  0.00    -0.022 C 
ATOM      8  C   UNL     1      11.794   5.400   0.853  0.00  0.00    +0.033 C 
ATOM      9  C   UNL     1      12.088   4.585  -0.440  0.00  0.00    +0.123 C 
ATOM     10  C   UNL     1      12.723   5.444  -1.555  0.00  0.00    +0.029 C 
ATOM     11  C   UNL     1      13.632   7.040   0.171  0.00  0.00    +0.008 C 
ATOM     12  C   UNL     1      11.160   4.532   2.015  0.00  0.00    +0.042 C 
ATOM     13  C   UNL     1      13.948   6.217  -1.071  0.00  0.00    +0.007 C 
ATOM     14  C   UNL     1      12.682   7.174   2.485  0.00  0.00    +0.051 C 
ATOM     15  C   UNL     1      14.186   5.241   1.848  0.00  0.00    +0.012 C 
ATOM     17  C   UNL     1      11.161   5.302   3.314  0.00  0.00    +0.055 A 
ATOM     18  C   UNL     1      11.856   6.479   3.507  0.00  0.00    +0.014 A 
ATOM     19  C   UNL     1       9.740   4.041   1.699  0.00  0.00    +0.014 C 
ATOM     22  C   UNL     1      10.672   5.671   5.426  0.00  0.00    +0.109 A 
ENDROOT
BRANCH  22  27
ATOM      2  F   UNL     1       8.530   5.076  10.536  0.00  0.00    -0.205 F 
ATOM     27  C   UNL     1      10.116   5.517   6.749  0.00  0.00    +0.007 A 
ATOM     28  C   UNL     1       9.590   6.622   7.417  0.00  0.00    +0.013 A 
ATOM     29  C   UNL     1      10.106   4.263   7.359  0.00  0.00    +0.013 A 
ATOM     30  C   UNL     1       9.054   6.473   8.697  0.00  0.00    +0.039 A 
ATOM     31  C   UNL     1       9.569   4.114   8.638  0.00  0.00    +0.039 A 
ATOM     32  C   UNL     1       9.044   5.219   9.307  0.00  0.00    +0.123 A 
ENDBRANCH  22  27
BRANCH   9   3
ATOM      3  O   UNL     1      10.866   4.059  -0.954  0.00  0.00    -0.391 OA
ATOM     33  H   UNL     1      10.335   4.800  -1.291  0.00  0.00    +0.210 HD
ENDBRANCH   9   3
BRANCH  10  16
ATOM     16  C   UNL     1      13.100   4.599  -2.778  0.00  0.00    +0.078 C 
ATOM     21  C   UNL     1      14.595   4.643  -3.035  0.00  0.00    +0.017 C 
BRANCH  16  20
ATOM      4  O   UNL     1      12.630   6.231  -4.448  0.00  0.00    -0.275 OA
ATOM      6  N   UNL     1      11.366   4.299  -4.477  0.00  0.00    -0.301 N 
ATOM     20  C   UNL     1      12.354   5.127  -3.977  0.00  0.00    +0.219 C 
ATOM     23  C   UNL     1      10.551   4.666  -5.626  0.00  0.00    +0.108 C 
ATOM     24  C   UNL     1      10.992   2.982  -3.970  0.00  0.00    +0.108 C 
ATOM     25  C   UNL     1       9.851   3.376  -6.025  0.00  0.00    +0.020 C 
ATOM     26  C   UNL     1       9.695   2.651  -4.693  0.00  0.00    +0.020 C 
ENDBRANCH  16  20
ENDBRANCH  10  16
TORSDOF 4
ENDMDL
MODEL 3
REMARK VINA RESULT:      -6.6     29.226     32.313
REMARK  Name = 45361317
REMARK  7 active torsions:
REMARK  status: ('A' for Active; 'I' for Inactive)
REMARK    1  A    between atoms: O_3  and  C_9
REMARK    2  A    between atoms: C_7  and  C_15
REMARK    3  A    between atoms: C_10  and  C_16
REMARK    4  A    between atoms: C_12  and  C_19
REMARK    5  A    between atoms: C_16  and  C_20
REMARK    6  A    between atoms: C_16  and  C_21
REMARK    7  A    between atoms: C_22  and  C_27
REMARK                            x       y       z     vdW  Elec       q    Type
REMARK                         _______ _______ _______ _____ _____    ______ ____
ROOT
ATOM      1  S   UNL     1      19.667   5.023  20.119  0.00  0.00    -0.072 S 
ATOM      5  N   UNL     1      19.821   6.849  21.944  0.00  0.00    -0.243 NA
ATOM      7  C   UNL     1      16.104   7.064  19.893  0.00  0.00    -0.022 C 
ATOM      8  C   UNL     1      16.674   8.445  20.406  0.00  0.00    +0.033 C 
ATOM      9  C   UNL     1      15.528   9.417  20.809  0.00  0.00    +0.123 C 
ATOM     10  C   UNL     1      14.466   9.579  19.700  0.00  0.00    +0.029 C 
ATOM     11  C   UNL     1      15.066   7.314  18.773  0.00  0.00    +0.008 C 
ATOM     12  C   UNL     1      17.763   8.252  21.539  0.00  0.00    +0.042 C 
ATOM     13  C   UNL     1      13.934   8.237  19.200  0.00  0.00    +0.007 C 
ATOM     14  C   UNL     1      17.258   6.212  19.280  0.00  0.00    +0.051 C 
ATOM     15  C   UNL     1      15.431   6.254  21.031  0.00  0.00    +0.012 C 
ATOM     17  C   UNL     1      18.681   7.101  21.201  0.00  0.00    +0.055 A 
ATOM     18  C   UNL     1      18.432   6.193  20.192  0.00  0.00    +0.014 A 
ATOM     19  C   UNL     1      18.590   9.518  21.807  0.00  0.00    +0.014 C 
ATOM     22  C   UNL     1      20.425   5.786  21.457  0.00  0.00    +0.109 A 
ENDROOT
BRANCH  22  27
ATOM      2  F   UNL     1      25.177   3.634  23.417  0.00  0.00    -0.205 F 
ATOM     27  C   UNL     1      21.655   5.228  21.965  0.00  0.00    +0.007 A 
ATOM     28  C   UNL     1      22.211   5.724  23.145  0.00  0.00    +0.013 A 
ATOM     29  C   UNL     1      22.289   4.195  21.276  0.00  0.00    +0.013 A 
ATOM     30  C   UNL     1      23.401   5.185  23.635  0.00  0.00    +0.039 A 
ATOM     31  C   UNL     1      23.479   3.655  21.767  0.00  0.00    +0.039 A 
ATOM     32  C   UNL     1      24.034   4.151  22.946  0.00  0.00    +0.123 A 
ENDBRANCH  22  27
BRANCH   9   3
ATOM      3  O   UNL     1      16.073  10.710  21.065  0.00  0.00    -0.391 OA
ATOM     33  H   UNL     1      17.025  10.682  20.868  0.00  0.00    +0.210 HD
ENDBRANCH   9   3
BRANCH  10  16
ATOM     16  C   UNL     1      13.294  10.457  20.158  0.00  0.00    +0.078 C 
ATOM     21  C   UNL     1      11.981   9.699  20.087  0.00  0.00    +0.017 C 
BRANCH  16  20
ATOM      4  O   UNL     1      13.617  11.625  18.107  0.00  0.00    -0.275 OA
ATOM      6  N   UNL     1      12.739  12.822  19.876  0.00  0.00    -0.301 N 
ATOM     20  C   UNL     1      13.235  11.679  19.278  0.00  0.00    +0.219 C 
ATOM     23  C   UNL     1      12.623  14.086  19.164  0.00  0.00    +0.108 C 
ATOM     24  C   UNL     1      12.267  12.952  21.251  0.00  0.00    +0.108 C 
ATOM     25  C   UNL     1      11.753  14.952  20.062  0.00  0.00    +0.020 C 
ATOM     26  C   UNL     1      12.105  14.451  21.457  0.00  0.00    +0.020 C 
ENDBRANCH  16  20
ENDBRANCH  10  16
TORSDOF 4
ENDMDL
MODEL 4
REMARK VINA RESULT:      -6.5      5.407      9.991
REMARK  Name = 45361317
REMARK  7 active torsions:
REMARK  status: ('A' for Active; 'I' for Inactive)
REMARK    1  A    between atoms: O_3  and  C_9
REMARK    2  A    between atoms: C_7  and  C_15
REMARK    3  A    between atoms: C_10  and  C_16
REMARK    4  A    between atoms: C_12  and  C_19
REMARK    5  A    between atoms: C_16  and  C_20
REMARK    6  A    between atoms: C_16  and  C_21
REMARK    7  A    between atoms: C_22  and  C_27
REMARK                            x       y       z     vdW  Elec       q    Type
REMARK                         _______ _______ _______ _____ _____    ______ ____
ROOT
ATOM      1  S   UNL     1      -7.676 -10.839  19.696  0.00  0.00    -0.072 S 
ATOM      5  N   UNL     1      -9.011 -11.403  17.554  0.00  0.00    -0.243 NA
ATOM      7  C   UNL     1      -4.828 -11.509  16.806  0.00  0.00    -0.022 C 
ATOM      8  C   UNL     1      -5.722 -11.049  15.587  0.00  0.00    +0.033 C 
ATOM      9  C   UNL     1      -5.105 -11.498  14.231  0.00  0.00    +0.123 C 
ATOM     10  C   UNL     1      -3.625 -11.084  14.083  0.00  0.00    +0.029 C 
ATOM     11  C   UNL     1      -3.371 -11.037  16.590  0.00  0.00    +0.008 C 
ATOM     12  C   UNL     1      -7.234 -11.483  15.765  0.00  0.00    +0.042 C 
ATOM     13  C   UNL     1      -2.774 -11.519  15.275  0.00  0.00    +0.007 C 
ATOM     14  C   UNL     1      -5.345 -10.844  18.120  0.00  0.00    +0.051 C 
ATOM     15  C   UNL     1      -4.837 -13.049  16.986  0.00  0.00    +0.012 C 
ATOM     17  C   UNL     1      -7.683 -11.269  17.191  0.00  0.00    +0.055 A 
ATOM     18  C   UNL     1      -6.821 -10.993  18.233  0.00  0.00    +0.014 A 
ATOM     19  C   UNL     1      -8.189 -10.761  14.803  0.00  0.00    +0.014 C 
ATOM     22  C   UNL     1      -9.127 -11.186  18.847  0.00  0.00    +0.109 A 
ENDROOT
BRANCH  22  27
ATOM      2  F   UNL     1     -13.914 -11.335  21.697  0.00  0.00    -0.205 F 
ATOM     27  C   UNL     1     -10.367 -11.225  19.584  0.00  0.00    +0.007 A 
ATOM     28  C   UNL     1     -11.115 -10.059  19.753  0.00  0.00    +0.013 A 
ATOM     29  C   UNL     1     -10.817 -12.427  20.129  0.00  0.00    +0.013 A 
ATOM     30  C   UNL     1     -12.314 -10.097  20.466  0.00  0.00    +0.039 A 
ATOM     31  C   UNL     1     -12.016 -12.465  20.843  0.00  0.00    +0.039 A 
ATOM     32  C   UNL     1     -12.764 -11.299  21.011  0.00  0.00    +0.123 A 
ENDBRANCH  22  27
BRANCH   9   3
ATOM      3  O   UNL     1      -5.825 -10.890  13.160  0.00  0.00    -0.391 OA
ATOM     33  H   UNL     1      -5.469  -9.995  13.027  0.00  0.00    +0.210 HD
ENDBRANCH   9   3
BRANCH  10  16
ATOM     16  C   UNL     1      -3.009 -11.626  12.787  0.00  0.00    +0.078 C 
ATOM     21  C   UNL     1      -1.834 -12.541  13.081  0.00  0.00    +0.017 C 
BRANCH  16  20
ATOM      4  O   UNL     1      -1.510  -9.871  12.201  0.00  0.00    -0.275 OA
ATOM      6  N   UNL     1      -3.399 -10.125  10.897  0.00  0.00    -0.301 N 
ATOM     20  C   UNL     1      -2.559 -10.462  11.942  0.00  0.00    +0.219 C 
ATOM     23  C   UNL     1      -3.111  -9.022   9.993  0.00  0.00    +0.108 C 
ATOM     24  C   UNL     1      -4.650 -10.785  10.535  0.00  0.00    +0.108 C 
ATOM     25  C   UNL     1      -4.082  -9.211   8.838  0.00  0.00    +0.020 C 
ATOM     26  C   UNL     1      -5.287  -9.855   9.513  0.00  0.00    +0.020 C 
ENDBRANCH  16  20
ENDBRANCH  10  16
TORSDOF 4
ENDMDL
MODEL 5
REMARK VINA RESULT:      -6.4      6.140      9.975
REMARK  Name = 45361317
REMARK  7 active torsions:
REMARK  status: ('A' for Active; 'I' for Inactive)
REMARK    1  A    between atoms: O_3  and  C_9
REMARK    2  A    between atoms: C_7  and  C_15
REMARK    3  A    between atoms: C_10  and  C_16
REMARK    4  A    between atoms: C_12  and  C_19
REMARK    5  A    between atoms: C_16  and  C_20
REMARK    6  A    between atoms: C_16  and  C_21
REMARK    7  A    between atoms: C_22  and  C_27
REMARK                            x       y       z     vdW  Elec       q    Type
REMARK                         _______ _______ _______ _____ _____    ______ ____
ROOT
ATOM      1  S   UNL     1     -10.391 -10.725  20.086  0.00  0.00    -0.072 S 
ATOM      5  N   UNL     1     -10.935 -10.107  17.635  0.00  0.00    -0.243 NA
ATOM      7  C   UNL     1      -7.121 -11.961  17.921  0.00  0.00    -0.022 C 
ATOM      8  C   UNL     1      -7.263 -10.878  16.779  0.00  0.00    +0.033 C 
ATOM      9  C   UNL     1      -6.391 -11.241  15.542  0.00  0.00    +0.123 C 
ATOM     10  C   UNL     1      -4.922 -11.535  15.913  0.00  0.00    +0.029 C 
ATOM     11  C   UNL     1      -5.625 -12.180  18.247  0.00  0.00    +0.008 C 
ATOM     12  C   UNL     1      -8.778 -10.591  16.420  0.00  0.00    +0.042 C 
ATOM     13  C   UNL     1      -4.797 -12.571  17.030  0.00  0.00    +0.007 C 
ATOM     14  C   UNL     1      -7.813 -11.449  19.222  0.00  0.00    +0.051 C 
ATOM     15  C   UNL     1      -7.752 -13.318  17.517  0.00  0.00    +0.012 C 
ATOM     17  C   UNL     1      -9.616 -10.524  17.674  0.00  0.00    +0.055 A 
ATOM     18  C   UNL     1      -9.169 -10.921  18.918  0.00  0.00    +0.014 A 
ATOM     19  C   UNL     1      -8.973  -9.314  15.590  0.00  0.00    +0.014 C 
ATOM     22  C   UNL     1     -11.439 -10.160  18.849  0.00  0.00    +0.109 A 
ENDROOT
BRANCH  22  27
ATOM      2  F   UNL     1     -16.649  -8.725  20.212  0.00  0.00    -0.205 F 
ATOM     27  C   UNL     1     -12.788  -9.787  19.202  0.00  0.00    +0.007 A 
ATOM     28  C   UNL     1     -13.133  -9.606  20.541  0.00  0.00    +0.013 A 
ATOM     29  C   UNL     1     -13.746  -9.610  18.204  0.00  0.00    +0.013 A 
ATOM     30  C   UNL     1     -14.438  -9.247  20.882  0.00  0.00    +0.039 A 
ATOM     31  C   UNL     1     -15.051  -9.250  18.545  0.00  0.00    +0.039 A 
ATOM     32  C   UNL     1     -15.396  -9.069  19.884  0.00  0.00    +0.123 A 
ENDBRANCH  22  27
BRANCH   9   3
ATOM      3  O   UNL     1      -6.386 -10.145  14.630  0.00  0.00    -0.391 OA
ATOM     33  H   UNL     1      -6.875  -9.410  15.037  0.00  0.00    +0.210 HD
ENDBRANCH   9   3
BRANCH  10  16
ATOM     16  C   UNL     1      -4.108 -11.992  14.697  0.00  0.00    +0.078 C 
ATOM     21  C   UNL     1      -3.667 -13.437  14.844  0.00  0.00    +0.017 C 
BRANCH  16  20
ATOM      4  O   UNL     1      -2.220 -10.812  15.543  0.00  0.00    -0.275 OA
ATOM      6  N   UNL     1      -2.648 -10.635  13.280  0.00  0.00    -0.301 N 
ATOM     20  C   UNL     1      -2.904 -11.096  14.558  0.00  0.00    +0.219 C 
ATOM     23  C   UNL     1      -1.527  -9.756  12.980  0.00  0.00    +0.108 C 
ATOM     24  C   UNL     1      -3.413 -10.937  12.074  0.00  0.00    +0.108 C 
ATOM     25  C   UNL     1      -1.428  -9.768  11.463  0.00  0.00    +0.020 C 
ATOM     26  C   UNL     1      -2.876  -9.967  11.031  0.00  0.00    +0.020 C 
ENDBRANCH  16  20
ENDBRANCH  10  16
TORSDOF 4
ENDMDL
MODEL 6
REMARK VINA RESULT:      -6.4      7.433     11.459
REMARK  Name = 45361317
REMARK  7 active torsions:
REMARK  status: ('A' for Active; 'I' for Inactive)
REMARK    1  A    between atoms: O_3  and  C_9
REMARK    2  A    between atoms: C_7  and  C_15
REMARK    3  A    between atoms: C_10  and  C_16
REMARK    4  A    between atoms: C_12  and  C_19
REMARK    5  A    between atoms: C_16  and  C_20
REMARK    6  A    between atoms: C_16  and  C_21
REMARK    7  A    between atoms: C_22  and  C_27
REMARK                            x       y       z     vdW  Elec       q    Type
REMARK                         _______ _______ _______ _____ _____    ______ ____
ROOT
ATOM      1  S   UNL     1      -7.205  -9.352  16.703  0.00  0.00    -0.072 S 
ATOM      5  N   UNL     1      -6.783 -11.727  17.635  0.00  0.00    -0.243 NA
ATOM      7  C   UNL     1     -10.831 -10.569  18.215  0.00  0.00    -0.022 C 
ATOM      8  C   UNL     1     -10.234 -11.519  19.327  0.00  0.00    +0.033 C 
ATOM      9  C   UNL     1     -11.322 -12.468  19.906  0.00  0.00    +0.123 C 
ATOM     10  C   UNL     1     -12.585 -11.713  20.375  0.00  0.00    +0.029 C 
ATOM     11  C   UNL     1     -12.075  -9.836  18.770  0.00  0.00    +0.008 C 
ATOM     12  C   UNL     1      -8.939 -12.279  18.824  0.00  0.00    +0.042 C 
ATOM     13  C   UNL     1     -13.143 -10.784  19.297  0.00  0.00    +0.007 C 
ATOM     14  C   UNL     1      -9.781  -9.481  17.830  0.00  0.00    +0.051 C 
ATOM     15  C   UNL     1     -11.236 -11.351  16.938  0.00  0.00    +0.012 C 
ATOM     17  C   UNL     1      -8.054 -11.348  18.028  0.00  0.00    +0.055 A 
ATOM     18  C   UNL     1      -8.453 -10.104  17.584  0.00  0.00    +0.014 A 
ATOM     19  C   UNL     1      -8.133 -12.922  19.961  0.00  0.00    +0.014 C 
ATOM     22  C   UNL     1      -6.238 -10.750  16.943  0.00  0.00    +0.109 A 
ENDROOT
BRANCH  22  27
ATOM      2  F   UNL     1      -1.109 -10.846  14.766  0.00  0.00    -0.205 F 
ATOM     27  C   UNL     1      -4.909 -10.776  16.379  0.00  0.00    +0.007 A 
ATOM     28  C   UNL     1      -3.802 -10.933  17.212  0.00  0.00    +0.013 A 
ATOM     29  C   UNL     1      -4.734 -10.643  15.002  0.00  0.00    +0.013 A 
ATOM     30  C   UNL     1      -2.517 -10.957  16.666  0.00  0.00    +0.039 A 
ATOM     31  C   UNL     1      -3.450 -10.667  14.456  0.00  0.00    +0.039 A 
ATOM     32  C   UNL     1      -2.342 -10.824  15.289  0.00  0.00    +0.123 A 
ENDBRANCH  22  27
BRANCH   9   3
ATOM      3  O   UNL     1     -10.795 -13.156  21.039  0.00  0.00    -0.391 OA
ATOM     33  H   UNL     1     -11.539 -13.416  21.608  0.00  0.00    +0.210 HD
ENDBRANCH   9   3
BRANCH  10  16
ATOM     16  C   UNL     1     -13.683 -12.675  20.843  0.00  0.00    +0.078 C 
ATOM     21  C   UNL     1     -14.779 -12.805  19.801  0.00  0.00    +0.017 C 
BRANCH  16  20
ATOM      4  O   UNL     1     -14.929 -11.124  22.152  0.00  0.00    -0.275 OA
ATOM      6  N   UNL     1     -13.972 -12.910  23.260  0.00  0.00    -0.301 N 
ATOM     20  C   UNL     1     -14.258 -12.157  22.136  0.00  0.00    +0.219 C 
ATOM     23  C   UNL     1     -14.448 -12.541  24.585  0.00  0.00    +0.108 C 
ATOM     24  C   UNL     1     -13.190 -14.141  23.309  0.00  0.00    +0.108 C 
ATOM     25  C   UNL     1     -14.197 -13.775  25.438  0.00  0.00    +0.020 C 
ATOM     26  C   UNL     1     -12.958 -14.384  24.794  0.00  0.00    +0.020 C 
ENDBRANCH  16  20
ENDBRANCH  10  16
TORSDOF 4
ENDMDL
MODEL 7
REMARK VINA RESULT:      -6.3     24.051     26.635
REMARK  Name = 45361317
REMARK  7 active torsions:
REMARK  status: ('A' for Active; 'I' for Inactive)
REMARK    1  A    between atoms: O_3  and  C_9
REMARK    2  A    between atoms: C_7  and  C_15
REMARK    3  A    between atoms: C_10  and  C_16
REMARK    4  A    between atoms: C_12  and  C_19
REMARK    5  A    between atoms: C_16  and  C_20
REMARK    6  A    between atoms: C_16  and  C_21
REMARK    7  A    between atoms: C_22  and  C_27
REMARK                            x       y       z     vdW  Elec       q    Type
REMARK                         _______ _______ _______ _____ _____    ______ ____
ROOT
ATOM      1  S   UNL     1       9.282   8.760   8.419  0.00  0.00    -0.072 S 
ATOM      5  N   UNL     1      10.193  10.385   6.625  0.00  0.00    -0.243 NA
ATOM      7  C   UNL     1       9.986   6.419   5.111  0.00  0.00    -0.022 C 
ATOM      8  C   UNL     1      11.160   7.303   4.533  0.00  0.00    +0.033 C 
ATOM      9  C   UNL     1      11.472   6.933   3.054  0.00  0.00    +0.123 C 
ATOM     10  C   UNL     1      11.704   5.419   2.854  0.00  0.00    +0.029 C 
ATOM     11  C   UNL     1      10.305   4.921   4.891  0.00  0.00    +0.008 C 
ATOM     12  C   UNL     1      10.901   8.849   4.753  0.00  0.00    +0.042 C 
ATOM     13  C   UNL     1      10.570   4.573   3.433  0.00  0.00    +0.007 C 
ATOM     14  C   UNL     1       9.861   6.649   6.650  0.00  0.00    +0.051 C 
ATOM     15  C   UNL     1       8.626   6.747   4.443  0.00  0.00    +0.012 C 
ATOM     17  C   UNL     1      10.334   9.101   6.131  0.00  0.00    +0.055 A 
ATOM     18  C   UNL     1       9.866   8.103   6.961  0.00  0.00    +0.014 A 
ATOM     19  C   UNL     1      12.153   9.711   4.537  0.00  0.00    +0.014 C 
ATOM     22  C   UNL     1       9.661  10.326   7.828  0.00  0.00    +0.109 A 
ENDROOT
BRANCH  22  27
ATOM      2  F   UNL     1       8.566  14.735  11.056  0.00  0.00    -0.205 F 
ATOM     27  C   UNL     1       9.377  11.468   8.663  0.00  0.00    +0.007 A 
ATOM     28  C   UNL     1       9.537  12.759   8.159  0.00  0.00    +0.013 A 
ATOM     29  C   UNL     1       8.942  11.281   9.975  0.00  0.00    +0.013 A 
ATOM     30  C   UNL     1       9.263  13.862   8.968  0.00  0.00    +0.039 A 
ATOM     31  C   UNL     1       8.668  12.384  10.784  0.00  0.00    +0.039 A 
ATOM     32  C   UNL     1       8.829  13.675  10.280  0.00  0.00    +0.123 A 
ENDBRANCH  22  27
BRANCH   9   3
ATOM      3  O   UNL     1      12.662   7.601   2.641  0.00  0.00    -0.391 OA
ATOM     33  H   UNL     1      13.174   7.828   3.436  0.00  0.00    +0.210 HD
ENDBRANCH   9   3
BRANCH  10  16
ATOM     16  C   UNL     1      11.906   5.064   1.376  0.00  0.00    +0.078 C 
ATOM     21  C   UNL     1      10.651   4.447   0.785  0.00  0.00    +0.017 C 
BRANCH  16  20
ATOM      4  O   UNL     1      12.945   2.942   1.671  0.00  0.00    -0.275 OA
ATOM      6  N   UNL     1      14.210   4.610   0.696  0.00  0.00    -0.301 N 
ATOM     20  C   UNL     1      13.058   4.100   1.265  0.00  0.00    +0.219 C 
ATOM     23  C   UNL     1      15.413   3.809   0.523  0.00  0.00    +0.108 C 
ATOM     24  C   UNL     1      14.407   5.966   0.192  0.00  0.00    +0.108 C 
ATOM     25  C   UNL     1      16.288   4.632  -0.411  0.00  0.00    +0.020 C 
ATOM     26  C   UNL     1      15.906   6.064  -0.057  0.00  0.00    +0.020 C 
ENDBRANCH  16  20
ENDBRANCH  10  16
TORSDOF 4
ENDMDL
MODEL 8
REMARK VINA RESULT:      -6.3     28.044     30.317
REMARK  Name = 45361317
REMARK  7 active torsions:
REMARK  status: ('A' for Active; 'I' for Inactive)
REMARK    1  A    between atoms: O_3  and  C_9
REMARK    2  A    between atoms: C_7  and  C_15
REMARK    3  A    between atoms: C_10  and  C_16
REMARK    4  A    between atoms: C_12  and  C_19
REMARK    5  A    between atoms: C_16  and  C_20
REMARK    6  A    between atoms: C_16  and  C_21
REMARK    7  A    between atoms: C_22  and  C_27
REMARK                            x       y       z     vdW  Elec       q    Type
REMARK                         _______ _______ _______ _____ _____    ______ ____
ROOT
ATOM      1  S   UNL     1      21.119  -4.482  24.720  0.00  0.00    -0.072 S 
ATOM      5  N   UNL     1      19.468  -5.137  22.840  0.00  0.00    -0.243 NA
ATOM      7  C   UNL     1      22.272  -8.252  23.549  0.00  0.00    -0.022 C 
ATOM      8  C   UNL     1      21.771  -8.120  22.057  0.00  0.00    +0.033 C 
ATOM      9  C   UNL     1      21.706  -9.507  21.356  0.00  0.00    +0.123 C 
ATOM     10  C   UNL     1      23.025 -10.301  21.480  0.00  0.00    +0.029 C 
ATOM     11  C   UNL     1      23.604  -9.038  23.583  0.00  0.00    +0.008 C 
ATOM     12  C   UNL     1      20.421  -7.300  21.956  0.00  0.00    +0.042 C 
ATOM     13  C   UNL     1      23.508 -10.408  22.926  0.00  0.00    +0.007 C 
ATOM     14  C   UNL     1      22.550  -6.835  24.140  0.00  0.00    +0.051 C 
ATOM     15  C   UNL     1      21.237  -8.977  24.448  0.00  0.00    +0.012 C 
ATOM     17  C   UNL     1      20.455  -6.106  22.881  0.00  0.00    +0.055 A 
ATOM     18  C   UNL     1      21.411  -5.921  23.858  0.00  0.00    +0.014 A 
ATOM     19  C   UNL     1      20.093  -6.844  20.526  0.00  0.00    +0.014 C 
ATOM     22  C   UNL     1      19.722  -4.226  23.755  0.00  0.00    +0.109 A 
ENDROOT
BRANCH  22  27
ATOM      2  F   UNL     1      16.615   0.301  24.706  0.00  0.00    -0.205 F 
ATOM     27  C   UNL     1      18.918  -3.053  24.001  0.00  0.00    +0.007 A 
ATOM     28  C   UNL     1      19.383  -2.055  24.857  0.00  0.00    +0.013 A 
ATOM     29  C   UNL     1      17.675  -2.918  23.382  0.00  0.00    +0.013 A 
ATOM     30  C   UNL     1      18.605  -0.922  25.094  0.00  0.00    +0.039 A 
ATOM     31  C   UNL     1      16.897  -1.785  23.620  0.00  0.00    +0.039 A 
ATOM     32  C   UNL     1      17.362  -0.787  24.476  0.00  0.00    +0.123 A 
ENDBRANCH  22  27
BRANCH   9   3
ATOM      3  O   UNL     1      21.453  -9.322  19.964  0.00  0.00    -0.391 OA
ATOM     33  H   UNL     1      20.738  -8.669  19.872  0.00  0.00    +0.210 HD
ENDBRANCH   9   3
BRANCH  10  16
ATOM     16  C   UNL     1      22.904 -11.705  20.874  0.00  0.00    +0.078 C 
ATOM     21  C   UNL     1      22.797 -12.762  21.958  0.00  0.00    +0.017 C 
BRANCH  16  20
ATOM      4  O   UNL     1      25.231 -12.073  20.525  0.00  0.00    -0.275 OA
ATOM      6  N   UNL     1      23.873 -12.061  18.657  0.00  0.00    -0.301 N 
ATOM     20  C   UNL     1      24.114 -11.965  20.015  0.00  0.00    +0.219 C 
ATOM     23  C   UNL     1      24.936 -12.303  17.693  0.00  0.00    +0.108 C 
ATOM     24  C   UNL     1      22.579 -11.947  17.992  0.00  0.00    +0.108 C 
ATOM     25  C   UNL     1      24.209 -12.657  16.405  0.00  0.00    +0.020 C 
ATOM     26  C   UNL     1      22.921 -11.850  16.512  0.00  0.00    +0.020 C 
ENDBRANCH  16  20
ENDBRANCH  10  16
TORSDOF 4
ENDMDL
MODEL 9
REMARK VINA RESULT:      -6.2      4.580     11.247
REMARK  Name = 45361317
REMARK  7 active torsions:
REMARK  status: ('A' for Active; 'I' for Inactive)
REMARK    1  A    between atoms: O_3  and  C_9
REMARK    2  A    between atoms: C_7  and  C_15
REMARK    3  A    between atoms: C_10  and  C_16
REMARK    4  A    between atoms: C_12  and  C_19
REMARK    5  A    between atoms: C_16  and  C_20
REMARK    6  A    between atoms: C_16  and  C_21
REMARK    7  A    between atoms: C_22  and  C_27
REMARK                            x       y       z     vdW  Elec       q    Type
REMARK                         _______ _______ _______ _____ _____    ______ ____
ROOT
ATOM      1  S   UNL     1      -6.943  -9.208  11.021  0.00  0.00    -0.072 S 
ATOM      5  N   UNL     1      -5.214  -9.641   9.148  0.00  0.00    -0.243 NA
ATOM      7  C   UNL     1      -8.783  -7.965   7.559  0.00  0.00    -0.022 C 
ATOM      8  C   UNL     1      -8.020  -8.963   6.602  0.00  0.00    +0.033 C 
ATOM      9  C   UNL     1      -8.185  -8.555   5.110  0.00  0.00    +0.123 C 
ATOM     10  C   UNL     1      -9.661  -8.345   4.708  0.00  0.00    +0.029 C 
ATOM     11  C   UNL     1     -10.254  -7.828   7.103  0.00  0.00    +0.008 C 
ATOM     12  C   UNL     1      -6.511  -9.165   7.037  0.00  0.00    +0.042 C 
ATOM     13  C   UNL     1     -10.393  -7.391   5.651  0.00  0.00    +0.007 C 
ATOM     14  C   UNL     1      -8.795  -8.533   9.013  0.00  0.00    +0.051 C 
ATOM     15  C   UNL     1      -8.128  -6.560   7.575  0.00  0.00    +0.012 C 
ATOM     17  C   UNL     1      -6.403  -9.281   8.539  0.00  0.00    +0.055 A 
ATOM     18  C   UNL     1      -7.434  -8.985   9.407  0.00  0.00    +0.014 A 
ATOM     19  C   UNL     1      -5.844 -10.376   6.369  0.00  0.00    +0.014 C 
ATOM     22  C   UNL     1      -5.384  -9.648  10.453  0.00  0.00    +0.109 A 
ENDROOT
BRANCH  22  27
ATOM      2  F   UNL     1      -1.457 -10.968  14.180  0.00  0.00    -0.205 F 
ATOM     27  C   UNL     1      -4.367  -9.988  11.418  0.00  0.00    +0.007 A 
ATOM     28  C   UNL     1      -3.022  -9.966  11.051  0.00  0.00    +0.013 A 
ATOM     29  C   UNL     1      -4.730 -10.341  12.718  0.00  0.00    +0.013 A 
ATOM     30  C   UNL     1      -2.038 -10.297  11.984  0.00  0.00    +0.039 A 
ATOM     31  C   UNL     1      -3.747 -10.672  13.651  0.00  0.00    +0.039 A 
ATOM     32  C   UNL     1      -2.401 -10.650  13.284  0.00  0.00    +0.123 A 
ENDBRANCH  22  27
BRANCH   9   3
ATOM      3  O   UNL     1      -7.662  -9.588   4.277  0.00  0.00    -0.391 OA
ATOM     33  H   UNL     1      -6.712  -9.678   4.467  0.00  0.00    +0.210 HD
ENDBRANCH   9   3
BRANCH  10  16
ATOM     16  C   UNL     1      -9.792  -7.842   3.265  0.00  0.00    +0.078 C 
ATOM     21  C   UNL     1     -10.581  -6.547   3.207  0.00  0.00    +0.017 C 
BRANCH  16  20
ATOM      4  O   UNL     1     -11.442  -9.521   2.903  0.00  0.00    -0.275 OA
ATOM      6  N   UNL     1      -9.950  -9.119   1.186  0.00  0.00    -0.301 N 
ATOM     20  C   UNL     1     -10.479  -8.903   2.445  0.00  0.00    +0.219 C 
ATOM     23  C   UNL     1     -10.495 -10.114   0.274  0.00  0.00    +0.108 C 
ATOM     24  C   UNL     1      -8.818  -8.422   0.584  0.00  0.00    +0.108 C 
ATOM     25  C   UNL     1      -9.852  -9.794  -1.067  0.00  0.00    +0.020 C 
ATOM     26  C   UNL     1      -8.495  -9.229  -0.665  0.00  0.00    +0.020 C 
ENDBRANCH  16  20
ENDBRANCH  10  16
TORSDOF 4
ENDMDL
MODEL 10
REMARK VINA RESULT:      -6.1      3.664      5.333
REMARK  Name = 45361317
REMARK  7 active torsions:
REMARK  status: ('A' for Active; 'I' for Inactive)
REMARK    1  A    between atoms: O_3  and  C_9
REMARK    2  A    between atoms: C_7  and  C_15
REMARK    3  A    between atoms: C_10  and  C_16
REMARK    4  A    between atoms: C_12  and  C_19
REMARK    5  A    between atoms: C_16  and  C_20
REMARK    6  A    between atoms: C_16  and  C_21
REMARK    7  A    between atoms: C_22  and  C_27
REMARK                            x       y       z     vdW  Elec       q    Type
REMARK                         _______ _______ _______ _____ _____    ______ ____
ROOT
ATOM      1  S   UNL     1      -5.539 -13.749  10.401  0.00  0.00    -0.072 S 
ATOM      5  N   UNL     1      -5.186 -11.192  10.571  0.00  0.00    -0.243 NA
ATOM      7  C   UNL     1      -5.711 -12.910  14.424  0.00  0.00    -0.022 C 
ATOM      8  C   UNL     1      -6.257 -11.437  14.260  0.00  0.00    +0.033 C 
ATOM      9  C   UNL     1      -6.120 -10.630  15.583  0.00  0.00    +0.123 C 
ATOM     10  C   UNL     1      -6.728 -11.367  16.796  0.00  0.00    +0.029 C 
ATOM     11  C   UNL     1      -6.384 -13.582  15.643  0.00  0.00    +0.008 C 
ATOM     12  C   UNL     1      -5.621 -10.705  13.008  0.00  0.00    +0.042 C 
ATOM     13  C   UNL     1      -6.206 -12.796  16.935  0.00  0.00    +0.007 C 
ATOM     14  C   UNL     1      -6.079 -13.752  13.163  0.00  0.00    +0.051 C 
ATOM     15  C   UNL     1      -4.173 -12.941  14.617  0.00  0.00    +0.012 C 
ATOM     17  C   UNL     1      -5.537 -11.646  11.830  0.00  0.00    +0.055 A 
ATOM     18  C   UNL     1      -5.737 -13.009  11.921  0.00  0.00    +0.014 A 
ATOM     19  C   UNL     1      -6.374  -9.428  12.605  0.00  0.00    +0.014 C 
ATOM     22  C   UNL     1      -5.167 -12.210   9.737  0.00  0.00    +0.109 A 
ENDROOT
BRANCH  22  27
ATOM      2  F   UNL     1      -3.970 -11.869   4.305  0.00  0.00    -0.205 F 
ATOM     27  C   UNL     1      -4.856 -12.121   8.330  0.00  0.00    +0.007 A 
ATOM     28  C   UNL     1      -5.369 -11.071   7.568  0.00  0.00    +0.013 A 
ATOM     29  C   UNL     1      -4.044 -13.085   7.733  0.00  0.00    +0.013 A 
ATOM     30  C   UNL     1      -5.069 -10.986   6.208  0.00  0.00    +0.039 A 
ATOM     31  C   UNL     1      -3.744 -13.000   6.373  0.00  0.00    +0.039 A 
ATOM     32  C   UNL     1      -4.257 -11.951   5.611  0.00  0.00    +0.123 A 
ENDBRANCH  22  27
BRANCH   9   3
ATOM      3  O   UNL     1      -6.807  -9.388  15.453  0.00  0.00    -0.391 OA
ATOM     33  H   UNL     1      -6.576  -9.003  14.591  0.00  0.00    +0.210 HD
ENDBRANCH   9   3
BRANCH  10  16
ATOM     16  C   UNL     1      -6.488 -10.604  18.105  0.00  0.00    +0.078 C 
ATOM     21  C   UNL     1      -5.067 -10.800  18.601  0.00  0.00    +0.017 C 
BRANCH  16  20
ATOM      4  O   UNL     1      -7.103 -11.859  20.033  0.00  0.00    -0.275 OA
ATOM      6  N   UNL     1      -8.767 -10.642  18.993  0.00  0.00    -0.301 N 
ATOM     20  C   UNL     1      -7.469 -11.096  19.137  0.00  0.00    +0.219 C 
ATOM     23  C   UNL     1      -9.834 -11.030  19.903  0.00  0.00    +0.108 C 
ATOM     24  C   UNL     1      -9.264  -9.738  17.960  0.00  0.00    +0.108 C 
ATOM     25  C   UNL     1     -10.973 -10.074  19.587  0.00  0.00    +0.020 C 
ATOM     26  C   UNL     1     -10.778  -9.797  18.101  0.00  0.00    +0.020 C 
ENDBRANCH  16  20
ENDBRANCH  10  16
TORSDOF 4
ENDMDL
