MODEL 1
REMARK VINA RESULT:      -6.9      0.000      0.000
REMARK  Name = 45784301
REMARK  6 active torsions:
REMARK  status: ('A' for Active; 'I' for Inactive)
REMARK    1  A    between atoms: O_1  and  C_18
REMARK    2  A    between atoms: O_1  and  C_24
REMARK    3  A    between atoms: N_2  and  C_10
REMARK    4  A    between atoms: C_5  and  C_9
REMARK    5  A    between atoms: C_10  and  C_11
REMARK    6  A    between atoms: C_22  and  C_23
REMARK                            x       y       z     vdW  Elec       q    Type
REMARK                         _______ _______ _______ _____ _____    ______ ____
ROOT
ATOM      2  N   UNL     1      -2.114 -10.965  13.782  0.00  0.00    -0.297 NA
ATOM      5  C   UNL     1      -3.264 -10.239  15.692  0.00  0.00    +0.070 C 
ATOM      6  C   UNL     1      -1.840 -10.670  16.083  0.00  0.00    +0.028 C 
ATOM      7  C   UNL     1      -3.479 -10.831  14.293  0.00  0.00    +0.096 C 
ATOM      8  C   UNL     1      -1.342 -11.499  14.906  0.00  0.00    +0.085 C 
ENDROOT
BRANCH   5   9
ATOM      3  N   UNL     1      -5.479  -9.899  16.824  0.00  0.00    -0.341 N 
ATOM      4  N   UNL     1      -4.329 -11.688  17.468  0.00  0.00    -0.232 NA
ATOM      9  C   UNL     1      -4.341 -10.641  16.675  0.00  0.00    +0.113 A 
ATOM     12  C   UNL     1      -6.255 -10.509  17.776  0.00  0.00    +0.070 A 
ATOM     13  C   UNL     1      -5.515 -11.623  18.163  0.00  0.00    +0.089 A 
ATOM     16  C   UNL     1      -7.502 -10.192  18.316  0.00  0.00    +0.073 A 
ATOM     17  C   UNL     1      -6.034 -12.483  19.145  0.00  0.00    +0.033 A 
ATOM     18  C   UNL     1      -8.003 -11.058  19.292  0.00  0.00    +0.122 A 
ATOM     21  C   UNL     1      -7.285 -12.183  19.702  0.00  0.00    +0.048 A 
ATOM     25  H   UNL     1      -5.713  -9.052  16.322  0.00  0.00    +0.167 HD
BRANCH  18   1
ATOM      1  O   UNL     1      -9.218 -10.797  19.854  0.00  0.00    -0.495 OA
ATOM     24  C   UNL     1     -10.238 -10.302  18.990  0.00  0.00    +0.277 C 
ENDBRANCH  18   1
ENDBRANCH   5   9
BRANCH   2  10
ATOM     10  C   UNL     1      -2.042 -11.819  12.606  0.00  0.00    +0.119 C 
BRANCH  10  11
ATOM     11  C   UNL     1      -2.799 -11.234  11.443  0.00  0.00    -0.033 A 
ATOM     14  C   UNL     1      -3.689 -12.029  10.720  0.00  0.00    +0.005 A 
ATOM     15  C   UNL     1      -2.606  -9.900  11.085  0.00  0.00    +0.005 A 
ATOM     19  C   UNL     1      -4.387 -11.488   9.640  0.00  0.00    +0.003 A 
ATOM     20  C   UNL     1      -3.304  -9.360  10.005  0.00  0.00    +0.003 A 
ATOM     22  C   UNL     1      -4.195 -10.154   9.282  0.00  0.00    -0.050 A 
ATOM     23  C   UNL     1      -4.941  -9.576   8.127  0.00  0.00    +0.044 C 
ENDBRANCH  10  11
ENDBRANCH   2  10
TORSDOF 4
ENDMDL
MODEL 2
REMARK VINA RESULT:      -6.9     25.707     28.438
REMARK  Name = 45784301
REMARK  6 active torsions:
REMARK  status: ('A' for Active; 'I' for Inactive)
REMARK    1  A    between atoms: O_1  and  C_18
REMARK    2  A    between atoms: O_1  and  C_24
REMARK    3  A    between atoms: N_2  and  C_10
REMARK    4  A    between atoms: C_5  and  C_9
REMARK    5  A    between atoms: C_10  and  C_11
REMARK    6  A    between atoms: C_22  and  C_23
REMARK                            x       y       z     vdW  Elec       q    Type
REMARK                         _______ _______ _______ _____ _____    ______ ____
ROOT
ATOM      2  N   UNL     1      16.236   8.551   5.158  0.00  0.00    -0.297 NA
ATOM      5  C   UNL     1      14.107   7.577   5.022  0.00  0.00    +0.070 C 
ATOM      6  C   UNL     1      14.165   8.815   4.111  0.00  0.00    +0.028 C 
ATOM      7  C   UNL     1      15.326   7.716   5.944  0.00  0.00    +0.096 C 
ATOM      8  C   UNL     1      15.387   9.594   4.582  0.00  0.00    +0.085 C 
ENDROOT
BRANCH   5   9
ATOM      3  N   UNL     1      12.665   6.435   6.732  0.00  0.00    -0.341 N 
ATOM      4  N   UNL     1      11.718   8.124   5.640  0.00  0.00    -0.232 NA
ATOM      9  C   UNL     1      12.811   7.408   5.782  0.00  0.00    +0.113 A 
ATOM     12  C   UNL     1      11.395   6.531   7.238  0.00  0.00    +0.070 A 
ATOM     13  C   UNL     1      10.823   7.592   6.540  0.00  0.00    +0.089 A 
ATOM     16  C   UNL     1      10.716   5.803   8.216  0.00  0.00    +0.073 A 
ATOM     17  C   UNL     1       9.498   7.962   6.821  0.00  0.00    +0.033 A 
ATOM     18  C   UNL     1       9.398   6.185   8.483  0.00  0.00    +0.122 A 
ATOM     21  C   UNL     1       8.797   7.245   7.800  0.00  0.00    +0.048 A 
ATOM     25  H   UNL     1      13.367   5.765   7.015  0.00  0.00    +0.167 HD
BRANCH  18   1
ATOM      1  O   UNL     1       8.687   5.509   9.430  0.00  0.00    -0.495 OA
ATOM     24  C   UNL     1       9.268   4.313   9.944  0.00  0.00    +0.277 C 
ENDBRANCH  18   1
ENDBRANCH   5   9
BRANCH   2  10
ATOM     10  C   UNL     1      17.320   9.099   5.960  0.00  0.00    +0.119 C 
BRANCH  10  11
ATOM     11  C   UNL     1      18.650   8.501   5.588  0.00  0.00    -0.033 A 
ATOM     14  C   UNL     1      18.872   8.049   4.287  0.00  0.00    +0.005 A 
ATOM     15  C   UNL     1      19.659   8.393   6.545  0.00  0.00    +0.005 A 
ATOM     19  C   UNL     1      20.103   7.491   3.943  0.00  0.00    +0.003 A 
ATOM     20  C   UNL     1      20.891   7.835   6.201  0.00  0.00    +0.003 A 
ATOM     22  C   UNL     1      21.113   7.384   4.899  0.00  0.00    -0.050 A 
ATOM     23  C   UNL     1      22.429   6.787   4.532  0.00  0.00    +0.044 C 
ENDBRANCH  10  11
ENDBRANCH   2  10
TORSDOF 4
ENDMDL
MODEL 3
REMARK VINA RESULT:      -6.9     19.909     20.959
REMARK  Name = 45784301
REMARK  6 active torsions:
REMARK  status: ('A' for Active; 'I' for Inactive)
REMARK    1  A    between atoms: O_1  and  C_18
REMARK    2  A    between atoms: O_1  and  C_24
REMARK    3  A    between atoms: N_2  and  C_10
REMARK    4  A    between atoms: C_5  and  C_9
REMARK    5  A    between atoms: C_10  and  C_11
REMARK    6  A    between atoms: C_22  and  C_23
REMARK                            x       y       z     vdW  Elec       q    Type
REMARK                         _______ _______ _______ _____ _____    ______ ____
ROOT
ATOM      2  N   UNL     1     -14.977   5.949  22.046  0.00  0.00    -0.297 NA
ATOM      5  C   UNL     1     -15.676   3.974  23.100  0.00  0.00    +0.070 C 
ATOM      6  C   UNL     1     -16.884   4.660  22.438  0.00  0.00    +0.028 C 
ATOM      7  C   UNL     1     -14.590   5.057  23.140  0.00  0.00    +0.096 C 
ATOM      8  C   UNL     1     -16.428   6.088  22.169  0.00  0.00    +0.085 C 
ENDROOT
BRANCH   5   9
ATOM      3  N   UNL     1     -15.810   4.098  25.604  0.00  0.00    -0.341 N 
ATOM      4  N   UNL     1     -16.346   2.138  24.702  0.00  0.00    -0.232 NA
ATOM      9  C   UNL     1     -15.955   3.368  24.456  0.00  0.00    +0.113 A 
ATOM     12  C   UNL     1     -16.131   3.285  26.660  0.00  0.00    +0.070 A 
ATOM     13  C   UNL     1     -16.462   2.067  26.071  0.00  0.00    +0.089 A 
ATOM     16  C   UNL     1     -16.159   3.502  28.038  0.00  0.00    +0.073 A 
ATOM     17  C   UNL     1     -16.845   0.992  26.890  0.00  0.00    +0.033 A 
ATOM     18  C   UNL     1     -16.544   2.422  28.838  0.00  0.00    +0.122 A 
ATOM     21  C   UNL     1     -16.881   1.188  28.277  0.00  0.00    +0.048 A 
ATOM     25  H   UNL     1     -15.520   5.064  25.666  0.00  0.00    +0.167 HD
BRANCH  18   1
ATOM      1  O   UNL     1     -16.590   2.578  30.192  0.00  0.00    -0.495 OA
ATOM     24  C   UNL     1     -15.448   2.151  30.931  0.00  0.00    +0.277 C 
ENDBRANCH  18   1
ENDBRANCH   5   9
BRANCH   2  10
ATOM     10  C   UNL     1     -14.290   7.231  22.105  0.00  0.00    +0.119 C 
BRANCH  10  11
ATOM     11  C   UNL     1     -13.406   7.449  20.906  0.00  0.00    -0.033 A 
ATOM     14  C   UNL     1     -13.971   7.760  19.669  0.00  0.00    +0.005 A 
ATOM     15  C   UNL     1     -12.021   7.335  21.031  0.00  0.00    +0.005 A 
ATOM     19  C   UNL     1     -13.151   7.957  18.558  0.00  0.00    +0.003 A 
ATOM     20  C   UNL     1     -11.202   7.533  19.920  0.00  0.00    +0.003 A 
ATOM     22  C   UNL     1     -11.767   7.843  18.683  0.00  0.00    -0.050 A 
ATOM     23  C   UNL     1     -10.891   8.054  17.495  0.00  0.00    +0.044 C 
ENDBRANCH  10  11
ENDBRANCH   2  10
TORSDOF 4
ENDMDL
MODEL 4
REMARK VINA RESULT:      -6.8     26.458     28.167
REMARK  Name = 45784301
REMARK  6 active torsions:
REMARK  status: ('A' for Active; 'I' for Inactive)
REMARK    1  A    between atoms: O_1  and  C_18
REMARK    2  A    between atoms: O_1  and  C_24
REMARK    3  A    between atoms: N_2  and  C_10
REMARK    4  A    between atoms: C_5  and  C_9
REMARK    5  A    between atoms: C_10  and  C_11
REMARK    6  A    between atoms: C_22  and  C_23
REMARK                            x       y       z     vdW  Elec       q    Type
REMARK                         _______ _______ _______ _____ _____    ______ ____
ROOT
ATOM      2  N   UNL     1      13.010   7.183  20.629  0.00  0.00    -0.297 NA
ATOM      5  C   UNL     1      11.649   8.383  22.114  0.00  0.00    +0.070 C 
ATOM      6  C   UNL     1      10.843   8.022  20.854  0.00  0.00    +0.028 C 
ATOM      7  C   UNL     1      13.113   8.160  21.714  0.00  0.00    +0.096 C 
ATOM      8  C   UNL     1      11.887   7.644  19.812  0.00  0.00    +0.085 C 
ENDROOT
BRANCH   5   9
ATOM      3  N   UNL     1      11.324  10.007  24.001  0.00  0.00    -0.341 N 
ATOM      4  N   UNL     1      11.207  10.867  21.955  0.00  0.00    -0.232 NA
ATOM      9  C   UNL     1      11.391   9.771  22.656  0.00  0.00    +0.113 A 
ATOM     12  C   UNL     1      11.082  11.344  24.180  0.00  0.00    +0.070 A 
ATOM     13  C   UNL     1      11.012  11.859  22.888  0.00  0.00    +0.089 A 
ATOM     16  C   UNL     1      10.922  12.125  25.325  0.00  0.00    +0.073 A 
ATOM     17  C   UNL     1      10.769  13.231  22.709  0.00  0.00    +0.033 A 
ATOM     18  C   UNL     1      10.681  13.488  25.129  0.00  0.00    +0.122 A 
ATOM     21  C   UNL     1      10.604  14.034  23.846  0.00  0.00    +0.048 A 
ATOM     25  H   UNL     1      11.435   9.321  24.736  0.00  0.00    +0.167 HD
BRANCH  18   1
ATOM      1  O   UNL     1      10.517  14.299  26.214  0.00  0.00    -0.495 OA
ATOM     24  C   UNL     1      11.690  14.902  26.754  0.00  0.00    +0.277 C 
ENDBRANCH  18   1
ENDBRANCH   5   9
BRANCH   2  10
ATOM     10  C   UNL     1      14.243   7.070  19.864  0.00  0.00    +0.119 C 
BRANCH  10  11
ATOM     11  C   UNL     1      14.283   8.046  18.719  0.00  0.00    -0.033 A 
ATOM     14  C   UNL     1      14.619   9.380  18.951  0.00  0.00    +0.005 A 
ATOM     15  C   UNL     1      13.980   7.619  17.426  0.00  0.00    +0.005 A 
ATOM     19  C   UNL     1      14.652  10.286  17.891  0.00  0.00    +0.003 A 
ATOM     20  C   UNL     1      14.014   8.524  16.366  0.00  0.00    +0.003 A 
ATOM     22  C   UNL     1      14.349   9.858  16.598  0.00  0.00    -0.050 A 
ATOM     23  C   UNL     1      14.385  10.827  15.465  0.00  0.00    +0.044 C 
ENDBRANCH  10  11
ENDBRANCH   2  10
TORSDOF 4
ENDMDL
MODEL 5
REMARK VINA RESULT:      -6.7     22.947     26.793
REMARK  Name = 45784301
REMARK  6 active torsions:
REMARK  status: ('A' for Active; 'I' for Inactive)
REMARK    1  A    between atoms: O_1  and  C_18
REMARK    2  A    between atoms: O_1  and  C_24
REMARK    3  A    between atoms: N_2  and  C_10
REMARK    4  A    between atoms: C_5  and  C_9
REMARK    5  A    between atoms: C_10  and  C_11
REMARK    6  A    between atoms: C_22  and  C_23
REMARK                            x       y       z     vdW  Elec       q    Type
REMARK                         _______ _______ _______ _____ _____    ______ ____
ROOT
ATOM      2  N   UNL     1      10.832   5.605   4.078  0.00  0.00    -0.297 NA
ATOM      5  C   UNL     1      11.932   4.561   2.290  0.00  0.00    +0.070 C 
ATOM      6  C   UNL     1      12.577   5.931   2.561  0.00  0.00    +0.028 C 
ATOM      7  C   UNL     1      10.590   4.610   3.032  0.00  0.00    +0.096 C 
ATOM      8  C   UNL     1      11.561   6.684   3.410  0.00  0.00    +0.085 C 
ENDROOT
BRANCH   5   9
ATOM      3  N   UNL     1      10.796   4.758   0.060  0.00  0.00    -0.341 N 
ATOM      4  N   UNL     1      12.534   3.376   0.140  0.00  0.00    -0.232 NA
ATOM      9  C   UNL     1      11.784   4.207   0.827  0.00  0.00    +0.113 A 
ATOM     12  C   UNL     1      10.917   4.250  -1.208  0.00  0.00    +0.070 A 
ATOM     13  C   UNL     1      12.009   3.389  -1.132  0.00  0.00    +0.089 A 
ATOM     16  C   UNL     1      10.188   4.461  -2.378  0.00  0.00    +0.073 A 
ATOM     17  C   UNL     1      12.411   2.690  -2.282  0.00  0.00    +0.033 A 
ATOM     18  C   UNL     1      10.602   3.758  -3.513  0.00  0.00    +0.122 A 
ATOM     21  C   UNL     1      11.693   2.887  -3.469  0.00  0.00    +0.048 A 
ATOM     25  H   UNL     1      10.099   5.424   0.367  0.00  0.00    +0.167 HD
BRANCH  18   1
ATOM      1  O   UNL     1       9.926   3.926  -4.686  0.00  0.00    -0.495 OA
ATOM     24  C   UNL     1       9.832   2.794  -5.547  0.00  0.00    +0.277 C 
ENDBRANCH  18   1
ENDBRANCH   5   9
BRANCH   2  10
ATOM     10  C   UNL     1       9.600   6.069   4.698  0.00  0.00    +0.119 C 
BRANCH  10  11
ATOM     11  C   UNL     1       9.539   5.713   6.160  0.00  0.00    -0.033 A 
ATOM     14  C   UNL     1       9.868   4.422   6.577  0.00  0.00    +0.005 A 
ATOM     15  C   UNL     1       9.151   6.671   7.096  0.00  0.00    +0.005 A 
ATOM     19  C   UNL     1       9.808   4.091   7.930  0.00  0.00    +0.003 A 
ATOM     20  C   UNL     1       9.092   6.340   8.450  0.00  0.00    +0.003 A 
ATOM     22  C   UNL     1       9.420   5.049   8.867  0.00  0.00    -0.050 A 
ATOM     23  C   UNL     1       9.356   4.695  10.314  0.00  0.00    +0.044 C 
ENDBRANCH  10  11
ENDBRANCH   2  10
TORSDOF 4
ENDMDL
MODEL 6
REMARK VINA RESULT:      -6.6     28.515     31.183
REMARK  Name = 45784301
REMARK  6 active torsions:
REMARK  status: ('A' for Active; 'I' for Inactive)
REMARK    1  A    between atoms: O_1  and  C_18
REMARK    2  A    between atoms: O_1  and  C_24
REMARK    3  A    between atoms: N_2  and  C_10
REMARK    4  A    between atoms: C_5  and  C_9
REMARK    5  A    between atoms: C_10  and  C_11
REMARK    6  A    between atoms: C_22  and  C_23
REMARK                            x       y       z     vdW  Elec       q    Type
REMARK                         _______ _______ _______ _____ _____    ______ ____
ROOT
ATOM      2  N   UNL     1      22.922   3.502  22.272  0.00  0.00    -0.297 NA
ATOM      5  C   UNL     1      21.666   4.812  20.787  0.00  0.00    +0.070 C 
ATOM      6  C   UNL     1      22.772   5.672  21.422  0.00  0.00    +0.028 C 
ATOM      7  C   UNL     1      21.586   3.564  21.676  0.00  0.00    +0.096 C 
ATOM      8  C   UNL     1      23.233   4.884  22.641  0.00  0.00    +0.085 C 
ENDROOT
BRANCH   5   9
ATOM      3  N   UNL     1      19.401   5.060  19.732  0.00  0.00    -0.341 N 
ATOM      4  N   UNL     1      19.917   6.568  21.281  0.00  0.00    -0.232 NA
ATOM      9  C   UNL     1      20.333   5.508  20.627  0.00  0.00    +0.113 A 
ATOM     12  C   UNL     1      18.310   5.887  19.816  0.00  0.00    +0.070 A 
ATOM     13  C   UNL     1      18.657   6.820  20.790  0.00  0.00    +0.089 A 
ATOM     16  C   UNL     1      17.087   5.898  19.144  0.00  0.00    +0.073 A 
ATOM     17  C   UNL     1      17.742   7.832  21.126  0.00  0.00    +0.033 A 
ATOM     18  C   UNL     1      16.189   6.912  19.491  0.00  0.00    +0.122 A 
ATOM     21  C   UNL     1      16.508   7.863  20.464  0.00  0.00    +0.048 A 
ATOM     25  H   UNL     1      19.495   4.262  19.118  0.00  0.00    +0.167 HD
BRANCH  18   1
ATOM      1  O   UNL     1      14.978   6.972  18.867  0.00  0.00    -0.495 OA
ATOM     24  C   UNL     1      13.820   6.973  19.699  0.00  0.00    +0.277 C 
ENDBRANCH  18   1
ENDBRANCH   5   9
BRANCH   2  10
ATOM     10  C   UNL     1      22.980   2.598  23.411  0.00  0.00    +0.119 C 
BRANCH  10  11
ATOM     11  C   UNL     1      24.009   1.516  23.215  0.00  0.00    -0.033 A 
ATOM     14  C   UNL     1      24.441   0.759  24.305  0.00  0.00    +0.005 A 
ATOM     15  C   UNL     1      24.533   1.273  21.946  0.00  0.00    +0.005 A 
ATOM     19  C   UNL     1      25.396  -0.241  24.124  0.00  0.00    +0.003 A 
ATOM     20  C   UNL     1      25.488   0.273  21.765  0.00  0.00    +0.003 A 
ATOM     22  C   UNL     1      25.920  -0.484  22.854  0.00  0.00    -0.050 A 
ATOM     23  C   UNL     1      26.942  -1.553  22.661  0.00  0.00    +0.044 C 
ENDBRANCH  10  11
ENDBRANCH   2  10
TORSDOF 4
ENDMDL
MODEL 7
REMARK VINA RESULT:      -6.5     27.266     29.854
REMARK  Name = 45784301
REMARK  6 active torsions:
REMARK  status: ('A' for Active; 'I' for Inactive)
REMARK    1  A    between atoms: O_1  and  C_18
REMARK    2  A    between atoms: O_1  and  C_24
REMARK    3  A    between atoms: N_2  and  C_10
REMARK    4  A    between atoms: C_5  and  C_9
REMARK    5  A    between atoms: C_10  and  C_11
REMARK    6  A    between atoms: C_22  and  C_23
REMARK                            x       y       z     vdW  Elec       q    Type
REMARK                         _______ _______ _______ _____ _____    ______ ____
ROOT
ATOM      2  N   UNL     1      14.154   8.071  20.612  0.00  0.00    -0.297 NA
ATOM      5  C   UNL     1      16.411   7.754  20.059  0.00  0.00    +0.070 C 
ATOM      6  C   UNL     1      15.533   6.855  19.172  0.00  0.00    +0.028 C 
ATOM      7  C   UNL     1      15.488   8.189  21.205  0.00  0.00    +0.096 C 
ATOM      8  C   UNL     1      14.182   6.808  19.872  0.00  0.00    +0.085 C 
ENDROOT
BRANCH   5   9
ATOM      3  N   UNL     1      18.295   6.109  19.839  0.00  0.00    -0.341 N 
ATOM      4  N   UNL     1      18.351   7.407  21.642  0.00  0.00    -0.232 NA
ATOM      9  C   UNL     1      17.690   7.112  20.546  0.00  0.00    +0.113 A 
ATOM     12  C   UNL     1      19.421   5.734  20.524  0.00  0.00    +0.070 A 
ATOM     13  C   UNL     1      19.434   6.559  21.646  0.00  0.00    +0.089 A 
ATOM     16  C   UNL     1      20.400   4.773  20.268  0.00  0.00    +0.073 A 
ATOM     17  C   UNL     1      20.478   6.431  22.578  0.00  0.00    +0.033 A 
ATOM     18  C   UNL     1      21.432   4.660  21.206  0.00  0.00    +0.122 A 
ATOM     21  C   UNL     1      21.472   5.473  22.341  0.00  0.00    +0.048 A 
ATOM     25  H   UNL     1      17.972   5.713  18.966  0.00  0.00    +0.167 HD
BRANCH  18   1
ATOM      1  O   UNL     1      22.416   3.738  21.006  0.00  0.00    -0.495 OA
ATOM     24  C   UNL     1      23.647   3.947  21.693  0.00  0.00    +0.277 C 
ENDBRANCH  18   1
ENDBRANCH   5   9
BRANCH   2  10
ATOM     10  C   UNL     1      13.097   8.105  21.611  0.00  0.00    +0.119 C 
BRANCH  10  11
ATOM     11  C   UNL     1      12.472   9.471  21.719  0.00  0.00    -0.033 A 
ATOM     14  C   UNL     1      11.508   9.721  22.696  0.00  0.00    +0.005 A 
ATOM     15  C   UNL     1      12.854  10.484  20.841  0.00  0.00    +0.005 A 
ATOM     19  C   UNL     1      10.927  10.986  22.794  0.00  0.00    +0.003 A 
ATOM     20  C   UNL     1      12.273  11.748  20.938  0.00  0.00    +0.003 A 
ATOM     22  C   UNL     1      11.309  11.999  21.915  0.00  0.00    -0.050 A 
ATOM     23  C   UNL     1      10.687  13.351  22.020  0.00  0.00    +0.044 C 
ENDBRANCH  10  11
ENDBRANCH   2  10
TORSDOF 4
ENDMDL
MODEL 8
REMARK VINA RESULT:      -6.4     27.839     30.261
REMARK  Name = 45784301
REMARK  6 active torsions:
REMARK  status: ('A' for Active; 'I' for Inactive)
REMARK    1  A    between atoms: O_1  and  C_18
REMARK    2  A    between atoms: O_1  and  C_24
REMARK    3  A    between atoms: N_2  and  C_10
REMARK    4  A    between atoms: C_5  and  C_9
REMARK    5  A    between atoms: C_10  and  C_11
REMARK    6  A    between atoms: C_22  and  C_23
REMARK                            x       y       z     vdW  Elec       q    Type
REMARK                         _______ _______ _______ _____ _____    ______ ____
ROOT
ATOM      2  N   UNL     1      21.291   4.872  20.964  0.00  0.00    -0.297 NA
ATOM      5  C   UNL     1      19.628   6.487  20.608  0.00  0.00    +0.070 C 
ATOM      6  C   UNL     1      20.355   6.780  21.932  0.00  0.00    +0.028 C 
ATOM      7  C   UNL     1      20.016   5.043  20.264  0.00  0.00    +0.096 C 
ATOM      8  C   UNL     1      21.086   5.489  22.275  0.00  0.00    +0.085 C 
ENDROOT
BRANCH   5   9
ATOM      3  N   UNL     1      17.352   6.456  19.548  0.00  0.00    -0.341 N 
ATOM      4  N   UNL     1      17.424   7.128  21.665  0.00  0.00    -0.232 NA
ATOM      9  C   UNL     1      18.132   6.702  20.644  0.00  0.00    +0.113 A 
ATOM     12  C   UNL     1      16.054   6.741  19.885  0.00  0.00    +0.070 A 
ATOM     13  C   UNL     1      16.125   7.160  21.212  0.00  0.00    +0.089 A 
ATOM     16  C   UNL     1      14.860   6.672  19.167  0.00  0.00    +0.073 A 
ATOM     17  C   UNL     1      14.946   7.535  21.876  0.00  0.00    +0.033 A 
ATOM     18  C   UNL     1      13.696   7.049  19.843  0.00  0.00    +0.122 A 
ATOM     21  C   UNL     1      13.735   7.474  21.173  0.00  0.00    +0.048 A 
ATOM     25  H   UNL     1      17.671   6.121  18.649  0.00  0.00    +0.167 HD
BRANCH  18   1
ATOM      1  O   UNL     1      12.500   7.001  19.189  0.00  0.00    -0.495 OA
ATOM     24  C   UNL     1      11.812   8.236  19.007  0.00  0.00    +0.277 C 
ENDBRANCH  18   1
ENDBRANCH   5   9
BRANCH   2  10
ATOM     10  C   UNL     1      21.686   3.475  21.065  0.00  0.00    +0.119 C 
BRANCH  10  11
ATOM     11  C   UNL     1      23.180   3.308  20.978  0.00  0.00    -0.033 A 
ATOM     14  C   UNL     1      23.972   4.354  20.502  0.00  0.00    +0.005 A 
ATOM     15  C   UNL     1      23.772   2.107  21.368  0.00  0.00    +0.005 A 
ATOM     19  C   UNL     1      25.355   4.198  20.419  0.00  0.00    +0.003 A 
ATOM     20  C   UNL     1      25.156   1.951  21.285  0.00  0.00    +0.003 A 
ATOM     22  C   UNL     1      25.948   2.997  20.809  0.00  0.00    -0.050 A 
ATOM     23  C   UNL     1      27.427   2.831  20.719  0.00  0.00    +0.044 C 
ENDBRANCH  10  11
ENDBRANCH   2  10
TORSDOF 4
ENDMDL
MODEL 9
REMARK VINA RESULT:      -6.3      6.005      9.348
REMARK  Name = 45784301
REMARK  6 active torsions:
REMARK  status: ('A' for Active; 'I' for Inactive)
REMARK    1  A    between atoms: O_1  and  C_18
REMARK    2  A    between atoms: O_1  and  C_24
REMARK    3  A    between atoms: N_2  and  C_10
REMARK    4  A    between atoms: C_5  and  C_9
REMARK    5  A    between atoms: C_10  and  C_11
REMARK    6  A    between atoms: C_22  and  C_23
REMARK                            x       y       z     vdW  Elec       q    Type
REMARK                         _______ _______ _______ _____ _____    ______ ____
ROOT
ATOM      2  N   UNL     1      -9.095  -9.365  16.932  0.00  0.00    -0.297 NA
ATOM      5  C   UNL     1     -10.520  -7.507  16.800  0.00  0.00    +0.070 C 
ATOM      6  C   UNL     1     -11.143  -8.569  17.723  0.00  0.00    +0.028 C 
ATOM      7  C   UNL     1      -9.421  -8.256  16.034  0.00  0.00    +0.096 C 
ATOM      8  C   UNL     1     -10.388  -9.855  17.411  0.00  0.00    +0.085 C 
ENDROOT
BRANCH   5   9
ATOM      3  N   UNL     1     -11.100  -5.793  15.060  0.00  0.00    -0.341 N 
ATOM      4  N   UNL     1     -12.785  -7.054  15.775  0.00  0.00    -0.232 NA
ATOM      9  C   UNL     1     -11.500  -6.805  15.888  0.00  0.00    +0.113 A 
ATOM     12  C   UNL     1     -12.200  -5.361  14.366  0.00  0.00    +0.070 A 
ATOM     13  C   UNL     1     -13.240  -6.163  14.830  0.00  0.00    +0.089 A 
ATOM     16  C   UNL     1     -12.371  -4.368  13.401  0.00  0.00    +0.073 A 
ATOM     17  C   UNL     1     -14.532  -5.976  14.313  0.00  0.00    +0.033 A 
ATOM     18  C   UNL     1     -13.665  -4.196  12.897  0.00  0.00    +0.122 A 
ATOM     21  C   UNL     1     -14.728  -4.984  13.344  0.00  0.00    +0.048 A 
ATOM     25  H   UNL     1     -10.161  -5.428  14.971  0.00  0.00    +0.167 HD
BRANCH  18   1
ATOM      1  O   UNL     1     -13.890  -3.239  11.952  0.00  0.00    -0.495 OA
ATOM     24  C   UNL     1     -15.222  -3.116  11.461  0.00  0.00    +0.277 C 
ENDBRANCH  18   1
ENDBRANCH   5   9
BRANCH   2  10
ATOM     10  C   UNL     1      -8.318 -10.405  16.273  0.00  0.00    +0.119 C 
BRANCH  10  11
ATOM     11  C   UNL     1      -7.139 -10.835  17.103  0.00  0.00    -0.033 A 
ATOM     14  C   UNL     1      -7.281 -11.862  18.037  0.00  0.00    +0.005 A 
ATOM     15  C   UNL     1      -5.905 -10.205  16.942  0.00  0.00    +0.005 A 
ATOM     19  C   UNL     1      -6.189 -12.258  18.809  0.00  0.00    +0.003 A 
ATOM     20  C   UNL     1      -4.813 -10.601  17.714  0.00  0.00    +0.003 A 
ATOM     22  C   UNL     1      -4.955 -11.628  18.648  0.00  0.00    -0.050 A 
ATOM     23  C   UNL     1      -3.788 -12.051  19.474  0.00  0.00    +0.044 C 
ENDBRANCH  10  11
ENDBRANCH   2  10
TORSDOF 4
ENDMDL
MODEL 10
REMARK VINA RESULT:      -6.2      2.521      4.344
REMARK  Name = 45784301
REMARK  6 active torsions:
REMARK  status: ('A' for Active; 'I' for Inactive)
REMARK    1  A    between atoms: O_1  and  C_18
REMARK    2  A    between atoms: O_1  and  C_24
REMARK    3  A    between atoms: N_2  and  C_10
REMARK    4  A    between atoms: C_5  and  C_9
REMARK    5  A    between atoms: C_10  and  C_11
REMARK    6  A    between atoms: C_22  and  C_23
REMARK                            x       y       z     vdW  Elec       q    Type
REMARK                         _______ _______ _______ _____ _____    ______ ____
ROOT
ATOM      2  N   UNL     1      -4.403 -11.777  16.671  0.00  0.00    -0.297 NA
ATOM      5  C   UNL     1      -5.957 -10.301  17.622  0.00  0.00    +0.070 C 
ATOM      6  C   UNL     1      -5.679 -11.456  18.600  0.00  0.00    +0.028 C 
ATOM      7  C   UNL     1      -5.413 -10.794  16.275  0.00  0.00    +0.096 C 
ATOM      8  C   UNL     1      -5.025 -12.540  17.754  0.00  0.00    +0.085 C 
ENDROOT
BRANCH   5   9
ATOM      3  N   UNL     1      -7.811  -8.902  16.669  0.00  0.00    -0.341 N 
ATOM      4  N   UNL     1      -8.398 -10.319  18.277  0.00  0.00    -0.232 NA
ATOM      9  C   UNL     1      -7.403  -9.865  17.550  0.00  0.00    +0.113 A 
ATOM     12  C   UNL     1      -9.160  -8.725  16.838  0.00  0.00    +0.070 A 
ATOM     13  C   UNL     1      -9.503  -9.620  17.848  0.00  0.00    +0.089 A 
ATOM     16  C   UNL     1     -10.082  -7.884  16.214  0.00  0.00    +0.073 A 
ATOM     17  C   UNL     1     -10.840  -9.695  18.273  0.00  0.00    +0.033 A 
ATOM     18  C   UNL     1     -11.408  -7.971  16.650  0.00  0.00    +0.122 A 
ATOM     21  C   UNL     1     -11.783  -8.859  17.660  0.00  0.00    +0.048 A 
ATOM     25  H   UNL     1      -7.226  -8.408  16.008  0.00  0.00    +0.167 HD
BRANCH  18   1
ATOM      1  O   UNL     1     -12.352  -7.172  16.075  0.00  0.00    -0.495 OA
ATOM     24  C   UNL     1     -11.910  -5.924  15.546  0.00  0.00    +0.277 C 
ENDBRANCH  18   1
ENDBRANCH   5   9
BRANCH   2  10
ATOM     10  C   UNL     1      -3.989 -12.625  15.563  0.00  0.00    +0.119 C 
BRANCH  10  11
ATOM     11  C   UNL     1      -3.318 -11.833  14.472  0.00  0.00    -0.033 A 
ATOM     14  C   UNL     1      -2.239 -11.002  14.776  0.00  0.00    +0.005 A 
ATOM     15  C   UNL     1      -3.777 -11.927  13.158  0.00  0.00    +0.005 A 
ATOM     19  C   UNL     1      -1.621 -10.266  13.766  0.00  0.00    +0.003 A 
ATOM     20  C   UNL     1      -3.158 -11.191  12.148  0.00  0.00    +0.003 A 
ATOM     22  C   UNL     1      -2.080 -10.360  12.452  0.00  0.00    -0.050 A 
ATOM     23  C   UNL     1      -1.418  -9.573  11.372  0.00  0.00    +0.044 C 
ENDBRANCH  10  11
ENDBRANCH   2  10
TORSDOF 4
ENDMDL
