MODEL 1
REMARK VINA RESULT:      -7.5      0.000      0.000
REMARK  Name = 38030682
REMARK  10 active torsions:
REMARK  status: ('A' for Active; 'I' for Inactive)
REMARK    1  A    between atoms: N_3  and  C_11
REMARK    2  A    between atoms: C_6  and  C_10
REMARK    3  A    between atoms: C_7  and  C_11
REMARK    4  A    between atoms: C_9  and  C_14
REMARK    5  A    between atoms: C_10  and  C_15
REMARK    6  A    between atoms: C_10  and  C_16
REMARK    7  A    between atoms: C_13  and  C_17
REMARK    8  A    between atoms: C_14  and  C_20
REMARK    9  A    between atoms: C_23  and  C_24
REMARK   10  A    between atoms: C_29  and  C_30
REMARK                            x       y       z     vdW  Elec       q    Type
REMARK                         _______ _______ _______ _____ _____    ______ ____
ROOT
ATOM      6  C   UNL     1      13.155  10.594  21.733  0.00  0.00    +0.000 C 
ATOM      7  C   UNL     1      14.141   9.432  21.992  0.00  0.00    +0.029 C 
ATOM      8  C   UNL     1      12.230  10.263  20.553  0.00  0.00    +0.012 C 
ATOM      9  C   UNL     1      11.439   8.952  20.746  0.00  0.00    +0.024 C 
ATOM     12  C   UNL     1      13.471   8.082  21.935  0.00  0.00    -0.023 C 
ATOM     13  C   UNL     1      12.262   7.849  21.395  0.00  0.00    -0.073 C 
ATOM     17  C   UNL     1      11.649   6.478  21.469  0.00  0.00    +0.039 C 
ENDROOT
BRANCH   6  10
ATOM     10  C   UNL     1      12.346  10.934  22.993  0.00  0.00    -0.013 C 
ATOM     15  C   UNL     1      13.254  11.536  24.062  0.00  0.00    +0.007 C 
ATOM     16  C   UNL     1      11.205  11.888  22.653  0.00  0.00    +0.007 C 
ENDBRANCH   6  10
BRANCH   7  11
ATOM     11  C   UNL     1      15.314   9.454  21.006  0.00  0.00    +0.092 C 
BRANCH  11   3
ATOM      1  O   UNL     1      17.754   6.285  19.737  0.00  0.00    -0.377 OA
ATOM      3  N   UNL     1      15.886   8.118  20.855  0.00  0.00    -0.297 NA
ATOM     18  C   UNL     1      17.294   8.103  21.276  0.00  0.00    +0.112 C 
ATOM     19  C   UNL     1      15.771   7.655  19.465  0.00  0.00    +0.112 C 
ATOM     21  C   UNL     1      17.873   6.703  21.097  0.00  0.00    +0.175 C 
ATOM     22  C   UNL     1      16.386   6.265  19.330  0.00  0.00    +0.175 C 
ENDBRANCH  11   3
ENDBRANCH   7  11
BRANCH   9  14
ATOM     14  C   UNL     1      10.844   8.536  19.394  0.00  0.00    +0.105 C 
BRANCH  14  20
ATOM      2  O   UNL     1      12.600   9.530  18.020  0.00  0.00    -0.420 OA
ATOM      4  N   UNL     1      12.290   7.343  17.671  0.00  0.00    -0.112 NA
ATOM      5  N   UNL     1      13.304   7.769  16.834  0.00  0.00    -0.107 NA
ATOM     20  C   UNL     1      11.909   8.402  18.344  0.00  0.00    +0.218 A 
ATOM     23  C   UNL     1      13.451   9.052  17.072  0.00  0.00    +0.248 A 
BRANCH  23  24
ATOM     24  C   UNL     1      14.352  10.009  16.498  0.00  0.00    +0.038 A 
ATOM     25  C   UNL     1      14.839  11.060  17.275  0.00  0.00    +0.013 A 
ATOM     26  C   UNL     1      14.743   9.886  15.165  0.00  0.00    +0.013 A 
ATOM     27  C   UNL     1      15.716  11.991  16.717  0.00  0.00    +0.004 A 
ATOM     28  C   UNL     1      15.620  10.817  14.608  0.00  0.00    +0.004 A 
ATOM     29  C   UNL     1      16.107  11.869  15.383  0.00  0.00    -0.050 A 
ATOM     30  C   UNL     1      17.043  12.864  14.786  0.00  0.00    +0.044 C 
ENDBRANCH  23  24
ENDBRANCH  14  20
ENDBRANCH   9  14
TORSDOF 6
ENDMDL
MODEL 2
REMARK VINA RESULT:      -7.1     25.760     29.169
REMARK  Name = 38030682
REMARK  10 active torsions:
REMARK  status: ('A' for Active; 'I' for Inactive)
REMARK    1  A    between atoms: N_3  and  C_11
REMARK    2  A    between atoms: C_6  and  C_10
REMARK    3  A    between atoms: C_7  and  C_11
REMARK    4  A    between atoms: C_9  and  C_14
REMARK    5  A    between atoms: C_10  and  C_15
REMARK    6  A    between atoms: C_10  and  C_16
REMARK    7  A    between atoms: C_13  and  C_17
REMARK    8  A    between atoms: C_14  and  C_20
REMARK    9  A    between atoms: C_23  and  C_24
REMARK   10  A    between atoms: C_29  and  C_30
REMARK                            x       y       z     vdW  Elec       q    Type
REMARK                         _______ _______ _______ _____ _____    ______ ____
ROOT
ATOM      6  C   UNL     1      -5.437 -10.478  10.669  0.00  0.00    +0.000 C 
ATOM      7  C   UNL     1      -4.691 -10.096   9.370  0.00  0.00    +0.029 C 
ATOM      8  C   UNL     1      -4.487 -11.180  11.649  0.00  0.00    +0.012 C 
ATOM      9  C   UNL     1      -3.241 -10.338  12.001  0.00  0.00    +0.024 C 
ATOM     12  C   UNL     1      -3.333  -9.497   9.637  0.00  0.00    -0.023 C 
ATOM     13  C   UNL     1      -2.675  -9.583  10.808  0.00  0.00    -0.073 C 
ATOM     17  C   UNL     1      -1.362  -8.874  10.994  0.00  0.00    +0.039 C 
ENDROOT
BRANCH   6  10
ATOM     10  C   UNL     1      -6.097  -9.253  11.317  0.00  0.00    -0.013 C 
ATOM     15  C   UNL     1      -7.256  -8.756  10.457  0.00  0.00    +0.007 C 
ATOM     16  C   UNL     1      -6.574  -9.588  12.726  0.00  0.00    +0.007 C 
ENDBRANCH   6  10
BRANCH   7  11
ATOM     11  C   UNL     1      -4.535 -11.297   8.431  0.00  0.00    +0.092 C 
BRANCH  11   3
ATOM      1  O   UNL     1      -6.519 -11.008   4.744  0.00  0.00    -0.377 OA
ATOM      3  N   UNL     1      -4.861 -10.924   7.057  0.00  0.00    -0.297 NA
ATOM     18  C   UNL     1      -6.140 -10.202   7.002  0.00  0.00    +0.112 C 
ATOM     19  C   UNL     1      -4.915 -12.111   6.193  0.00  0.00    +0.112 C 
ATOM     21  C   UNL     1      -6.466  -9.835   5.557  0.00  0.00    +0.175 C 
ATOM     22  C   UNL     1      -5.269 -11.697   4.767  0.00  0.00    +0.175 C 
ENDBRANCH  11   3
ENDBRANCH   7  11
BRANCH   9  14
ATOM     14  C   UNL     1      -2.209 -11.251  12.675  0.00  0.00    +0.105 C 
BRANCH  14  20
ATOM      2  O   UNL     1      -3.429 -11.136  14.786  0.00  0.00    -0.420 OA
ATOM      4  N   UNL     1      -1.216 -10.886  14.991  0.00  0.00    -0.112 NA
ATOM      5  N   UNL     1      -1.774 -10.799  16.252  0.00  0.00    -0.107 NA
ATOM     20  C   UNL     1      -2.217 -11.082  14.167  0.00  0.00    +0.218 A 
ATOM     23  C   UNL     1      -3.067 -10.951  16.084  0.00  0.00    +0.248 A 
BRANCH  23  24
ATOM     24  C   UNL     1      -4.137 -10.952  17.039  0.00  0.00    +0.038 A 
ATOM     25  C   UNL     1      -5.309 -10.242  16.775  0.00  0.00    +0.013 A 
ATOM     26  C   UNL     1      -4.006 -11.663  18.232  0.00  0.00    +0.013 A 
ATOM     27  C   UNL     1      -6.349 -10.243  17.704  0.00  0.00    +0.004 A 
ATOM     28  C   UNL     1      -5.047 -11.664  19.161  0.00  0.00    +0.004 A 
ATOM     29  C   UNL     1      -6.219 -10.954  18.897  0.00  0.00    -0.050 A 
ATOM     30  C   UNL     1      -7.331 -10.954  19.890  0.00  0.00    +0.044 C 
ENDBRANCH  23  24
ENDBRANCH  14  20
ENDBRANCH   9  14
TORSDOF 6
ENDMDL
MODEL 3
REMARK VINA RESULT:      -7.1      2.765      6.845
REMARK  Name = 38030682
REMARK  10 active torsions:
REMARK  status: ('A' for Active; 'I' for Inactive)
REMARK    1  A    between atoms: N_3  and  C_11
REMARK    2  A    between atoms: C_6  and  C_10
REMARK    3  A    between atoms: C_7  and  C_11
REMARK    4  A    between atoms: C_9  and  C_14
REMARK    5  A    between atoms: C_10  and  C_15
REMARK    6  A    between atoms: C_10  and  C_16
REMARK    7  A    between atoms: C_13  and  C_17
REMARK    8  A    between atoms: C_14  and  C_20
REMARK    9  A    between atoms: C_23  and  C_24
REMARK   10  A    between atoms: C_29  and  C_30
REMARK                            x       y       z     vdW  Elec       q    Type
REMARK                         _______ _______ _______ _____ _____    ______ ____
ROOT
ATOM      6  C   UNL     1      13.816   9.416  18.145  0.00  0.00    +0.000 C 
ATOM      7  C   UNL     1      12.711  10.000  19.054  0.00  0.00    +0.029 C 
ATOM      8  C   UNL     1      14.782   8.547  18.962  0.00  0.00    +0.012 C 
ATOM      9  C   UNL     1      14.079   7.398  19.719  0.00  0.00    +0.024 C 
ATOM     12  C   UNL     1      12.152   8.981  20.014  0.00  0.00    -0.023 C 
ATOM     13  C   UNL     1      12.741   7.809  20.315  0.00  0.00    -0.073 C 
ATOM     17  C   UNL     1      12.054   6.825  21.221  0.00  0.00    +0.039 C 
ENDROOT
BRANCH   6  10
ATOM     10  C   UNL     1      13.218   8.628  16.971  0.00  0.00    -0.013 C 
ATOM     15  C   UNL     1      11.845   9.182  16.603  0.00  0.00    +0.007 C 
ATOM     16  C   UNL     1      14.157   8.667  15.769  0.00  0.00    +0.007 C 
ENDBRANCH   6  10
BRANCH   7  11
ATOM     11  C   UNL     1      13.210  11.215  19.843  0.00  0.00    +0.092 C 
BRANCH  11   3
ATOM      1  O   UNL     1      12.024  12.552  23.640  0.00  0.00    -0.377 OA
ATOM      3  N   UNL     1      12.573  11.274  21.157  0.00  0.00    -0.297 NA
ATOM     18  C   UNL     1      11.664  12.425  21.244  0.00  0.00    +0.112 C 
ATOM     19  C   UNL     1      13.581  11.347  22.223  0.00  0.00    +0.112 C 
ATOM     21  C   UNL     1      11.021  12.474  22.627  0.00  0.00    +0.175 C 
ATOM     22  C   UNL     1      12.892  11.420  23.583  0.00  0.00    +0.175 C 
ENDBRANCH  11   3
ENDBRANCH   7  11
BRANCH   9  14
ATOM     14  C   UNL     1      15.050   6.835  20.763  0.00  0.00    +0.105 C 
BRANCH  14  20
ATOM      2  O   UNL     1      17.461   6.464  20.852  0.00  0.00    -0.420 OA
ATOM      4  N   UNL     1      16.500   5.791  18.948  0.00  0.00    -0.112 NA
ATOM      5  N   UNL     1      17.853   5.523  18.861  0.00  0.00    -0.107 NA
ATOM     20  C   UNL     1      16.317   6.339  20.125  0.00  0.00    +0.218 A 
ATOM     23  C   UNL     1      18.374   5.932  19.994  0.00  0.00    +0.248 A 
BRANCH  23  24
ATOM     24  C   UNL     1      19.730   5.906  20.458  0.00  0.00    +0.038 A 
ATOM     25  C   UNL     1      20.314   7.064  20.974  0.00  0.00    +0.013 A 
ATOM     26  C   UNL     1      20.465   4.722  20.397  0.00  0.00    +0.013 A 
ATOM     27  C   UNL     1      21.633   7.038  21.426  0.00  0.00    +0.004 A 
ATOM     28  C   UNL     1      21.785   4.697  20.849  0.00  0.00    +0.004 A 
ATOM     29  C   UNL     1      22.369   5.854  21.364  0.00  0.00    -0.050 A 
ATOM     30  C   UNL     1      23.779   5.827  21.847  0.00  0.00    +0.044 C 
ENDBRANCH  23  24
ENDBRANCH  14  20
ENDBRANCH   9  14
TORSDOF 6
ENDMDL
MODEL 4
REMARK VINA RESULT:      -6.7     25.946     29.430
REMARK  Name = 38030682
REMARK  10 active torsions:
REMARK  status: ('A' for Active; 'I' for Inactive)
REMARK    1  A    between atoms: N_3  and  C_11
REMARK    2  A    between atoms: C_6  and  C_10
REMARK    3  A    between atoms: C_7  and  C_11
REMARK    4  A    between atoms: C_9  and  C_14
REMARK    5  A    between atoms: C_10  and  C_15
REMARK    6  A    between atoms: C_10  and  C_16
REMARK    7  A    between atoms: C_13  and  C_17
REMARK    8  A    between atoms: C_14  and  C_20
REMARK    9  A    between atoms: C_23  and  C_24
REMARK   10  A    between atoms: C_29  and  C_30
REMARK                            x       y       z     vdW  Elec       q    Type
REMARK                         _______ _______ _______ _____ _____    ______ ____
ROOT
ATOM      6  C   UNL     1     -13.312   8.712  20.614  0.00  0.00    +0.000 C 
ATOM      7  C   UNL     1     -11.989   7.983  20.287  0.00  0.00    +0.029 C 
ATOM      8  C   UNL     1     -14.484   7.720  20.627  0.00  0.00    +0.012 C 
ATOM      9  C   UNL     1     -14.284   6.551  21.616  0.00  0.00    +0.024 C 
ATOM     12  C   UNL     1     -11.845   6.682  21.035  0.00  0.00    -0.023 C 
ATOM     13  C   UNL     1     -12.854   6.034  21.645  0.00  0.00    -0.073 C 
ATOM     17  C   UNL     1     -12.583   4.785  22.438  0.00  0.00    +0.039 C 
ENDROOT
BRANCH   6  10
ATOM     10  C   UNL     1     -13.218   9.478  21.941  0.00  0.00    -0.013 C 
ATOM     15  C   UNL     1     -12.367  10.733  21.772  0.00  0.00    +0.007 C 
ATOM     16  C   UNL     1     -14.611   9.832  22.452  0.00  0.00    +0.007 C 
ENDBRANCH   6  10
BRANCH   7  11
ATOM     11  C   UNL     1     -11.844   7.719  18.785  0.00  0.00    +0.092 C 
BRANCH  11   3
ATOM      1  O   UNL     1      -9.677  10.657  16.714  0.00  0.00    -0.377 OA
ATOM      3  N   UNL     1     -11.504   8.951  18.075  0.00  0.00    -0.297 NA
ATOM     18  C   UNL     1     -11.052   8.658  16.708  0.00  0.00    +0.112 C 
ATOM     19  C   UNL     1     -10.467   9.701  18.799  0.00  0.00    +0.112 C 
ATOM     21  C   UNL     1     -10.690   9.956  15.992  0.00  0.00    +0.175 C 
ATOM     22  C   UNL     1     -10.121  10.975  18.033  0.00  0.00    +0.175 C 
ENDBRANCH  11   3
ENDBRANCH   7  11
BRANCH   9  14
ATOM     14  C   UNL     1     -15.309   5.457  21.293  0.00  0.00    +0.105 C 
BRANCH  14  20
ATOM      2  O   UNL     1     -15.814   4.317  23.392  0.00  0.00    -0.420 OA
ATOM      4  N   UNL     1     -17.408   5.731  22.709  0.00  0.00    -0.112 NA
ATOM      5  N   UNL     1     -17.823   5.161  23.898  0.00  0.00    -0.107 NA
ATOM     20  C   UNL     1     -16.232   5.210  22.452  0.00  0.00    +0.218 A 
ATOM     23  C   UNL     1     -16.862   4.343  24.260  0.00  0.00    +0.248 A 
BRANCH  23  24
ATOM     24  C   UNL     1     -16.748   3.489  25.406  0.00  0.00    +0.038 A 
ATOM     25  C   UNL     1     -16.539   4.043  26.670  0.00  0.00    +0.013 A 
ATOM     26  C   UNL     1     -16.848   2.106  25.258  0.00  0.00    +0.013 A 
ATOM     27  C   UNL     1     -16.428   3.212  27.785  0.00  0.00    +0.004 A 
ATOM     28  C   UNL     1     -16.737   1.276  26.374  0.00  0.00    +0.004 A 
ATOM     29  C   UNL     1     -16.528   1.829  27.637  0.00  0.00    -0.050 A 
ATOM     30  C   UNL     1     -16.409   0.941  28.829  0.00  0.00    +0.044 C 
ENDBRANCH  23  24
ENDBRANCH  14  20
ENDBRANCH   9  14
TORSDOF 6
ENDMDL
MODEL 5
REMARK VINA RESULT:      -6.7     26.105     29.662
REMARK  Name = 38030682
REMARK  10 active torsions:
REMARK  status: ('A' for Active; 'I' for Inactive)
REMARK    1  A    between atoms: N_3  and  C_11
REMARK    2  A    between atoms: C_6  and  C_10
REMARK    3  A    between atoms: C_7  and  C_11
REMARK    4  A    between atoms: C_9  and  C_14
REMARK    5  A    between atoms: C_10  and  C_15
REMARK    6  A    between atoms: C_10  and  C_16
REMARK    7  A    between atoms: C_13  and  C_17
REMARK    8  A    between atoms: C_14  and  C_20
REMARK    9  A    between atoms: C_23  and  C_24
REMARK   10  A    between atoms: C_29  and  C_30
REMARK                            x       y       z     vdW  Elec       q    Type
REMARK                         _______ _______ _______ _____ _____    ______ ____
ROOT
ATOM      6  C   UNL     1      -3.460 -10.677  15.045  0.00  0.00    +0.000 C 
ATOM      7  C   UNL     1      -4.516 -11.481  14.253  0.00  0.00    +0.029 C 
ATOM      8  C   UNL     1      -4.042 -10.193  16.381  0.00  0.00    +0.012 C 
ATOM      9  C   UNL     1      -4.582 -11.339  17.263  0.00  0.00    +0.024 C 
ATOM     12  C   UNL     1      -5.275 -12.452  15.122  0.00  0.00    -0.023 C 
ATOM     13  C   UNL     1      -5.307 -12.414  16.466  0.00  0.00    -0.073 C 
ATOM     17  C   UNL     1      -6.026 -13.485  17.240  0.00  0.00    +0.039 C 
ENDROOT
BRANCH   6  10
ATOM     10  C   UNL     1      -2.179 -11.495  15.262  0.00  0.00    -0.013 C 
ATOM     15  C   UNL     1      -1.778 -12.207  13.974  0.00  0.00    +0.007 C 
ATOM     16  C   UNL     1      -1.050 -10.596  15.757  0.00  0.00    +0.007 C 
ENDBRANCH   6  10
BRANCH   7  11
ATOM     11  C   UNL     1      -5.511 -10.561  13.539  0.00  0.00    +0.092 C 
BRANCH  11   3
ATOM      1  O   UNL     1      -4.609  -9.360   9.620  0.00  0.00    -0.377 OA
ATOM      3  N   UNL     1      -4.875  -9.897  12.403  0.00  0.00    -0.297 NA
ATOM     18  C   UNL     1      -5.839  -9.048  11.688  0.00  0.00    +0.112 C 
ATOM     19  C   UNL     1      -4.293 -10.884  11.482  0.00  0.00    +0.112 C 
ATOM     21  C   UNL     1      -5.157  -8.377  10.500  0.00  0.00    +0.175 C 
ATOM     22  C   UNL     1      -3.647 -10.168  10.298  0.00  0.00    +0.175 C 
ENDBRANCH  11   3
ENDBRANCH   7  11
BRANCH   9  14
ATOM     14  C   UNL     1      -5.448 -10.734  18.375  0.00  0.00    +0.105 C 
BRANCH  14  20
ATOM      2  O   UNL     1      -7.854 -10.354  18.533  0.00  0.00    -0.420 OA
ATOM      4  N   UNL     1      -6.896  -9.425  16.738  0.00  0.00    -0.112 NA
ATOM      5  N   UNL     1      -8.246  -9.134  16.700  0.00  0.00    -0.107 NA
ATOM     20  C   UNL     1      -6.712 -10.138  17.823  0.00  0.00    +0.218 A 
ATOM     23  C   UNL     1      -8.765  -9.695  17.767  0.00  0.00    +0.248 A 
BRANCH  23  24
ATOM     24  C   UNL     1     -10.119  -9.721  18.240  0.00  0.00    +0.038 A 
ATOM     25  C   UNL     1     -11.149  -9.237  17.434  0.00  0.00    +0.013 A 
ATOM     26  C   UNL     1     -10.405 -10.233  19.506  0.00  0.00    +0.013 A 
ATOM     27  C   UNL     1     -12.466  -9.263  17.894  0.00  0.00    +0.004 A 
ATOM     28  C   UNL     1     -11.722 -10.258  19.966  0.00  0.00    +0.004 A 
ATOM     29  C   UNL     1     -12.752  -9.774  19.160  0.00  0.00    -0.050 A 
ATOM     30  C   UNL     1     -14.159  -9.801  19.652  0.00  0.00    +0.044 C 
ENDBRANCH  23  24
ENDBRANCH  14  20
ENDBRANCH   9  14
TORSDOF 6
ENDMDL
MODEL 6
REMARK VINA RESULT:      -6.6     26.668     29.366
REMARK  Name = 38030682
REMARK  10 active torsions:
REMARK  status: ('A' for Active; 'I' for Inactive)
REMARK    1  A    between atoms: N_3  and  C_11
REMARK    2  A    between atoms: C_6  and  C_10
REMARK    3  A    between atoms: C_7  and  C_11
REMARK    4  A    between atoms: C_9  and  C_14
REMARK    5  A    between atoms: C_10  and  C_15
REMARK    6  A    between atoms: C_10  and  C_16
REMARK    7  A    between atoms: C_13  and  C_17
REMARK    8  A    between atoms: C_14  and  C_20
REMARK    9  A    between atoms: C_23  and  C_24
REMARK   10  A    between atoms: C_29  and  C_30
REMARK                            x       y       z     vdW  Elec       q    Type
REMARK                         _______ _______ _______ _____ _____    ______ ____
ROOT
ATOM      6  C   UNL     1      -3.823 -11.990  12.400  0.00  0.00    +0.000 C 
ATOM      7  C   UNL     1      -2.888 -11.395  13.477  0.00  0.00    +0.029 C 
ATOM      8  C   UNL     1      -4.279 -10.899  11.420  0.00  0.00    +0.012 C 
ATOM      9  C   UNL     1      -3.106 -10.166  10.733  0.00  0.00    +0.024 C 
ATOM     12  C   UNL     1      -1.865 -10.449  12.898  0.00  0.00    -0.023 C 
ATOM     13  C   UNL     1      -1.938  -9.901  11.672  0.00  0.00    -0.073 C 
ATOM     17  C   UNL     1      -0.818  -9.038  11.159  0.00  0.00    +0.039 C 
ENDROOT
BRANCH   6  10
ATOM     10  C   UNL     1      -3.154 -13.157  11.659  0.00  0.00    -0.013 C 
ATOM     15  C   UNL     1      -2.629 -14.188  12.654  0.00  0.00    +0.007 C 
ATOM     16  C   UNL     1      -4.133 -13.798  10.681  0.00  0.00    +0.007 C 
ENDBRANCH   6  10
BRANCH   7  11
ATOM     11  C   UNL     1      -3.676 -10.673  14.575  0.00  0.00    +0.092 C 
BRANCH  11   3
ATOM      1  O   UNL     1      -5.516 -12.356  17.950  0.00  0.00    -0.377 OA
ATOM      3  N   UNL     1      -4.005 -11.591  15.663  0.00  0.00    -0.297 NA
ATOM     18  C   UNL     1      -5.390 -12.066  15.545  0.00  0.00    +0.112 C 
ATOM     19  C   UNL     1      -3.802 -10.947  16.968  0.00  0.00    +0.112 C 
ATOM     21  C   UNL     1      -5.715 -13.012  16.697  0.00  0.00    +0.175 C 
ATOM     22  C   UNL     1      -4.163 -11.921  18.087  0.00  0.00    +0.175 C 
ENDBRANCH  11   3
ENDBRANCH   7  11
BRANCH   9  14
ATOM     14  C   UNL     1      -3.646  -8.890  10.076  0.00  0.00    +0.105 C 
BRANCH  14  20
ATOM      2  O   UNL     1      -4.391  -9.927   7.996  0.00  0.00    -0.420 OA
ATOM      4  N   UNL     1      -6.008  -8.868   9.123  0.00  0.00    -0.112 NA
ATOM      5  N   UNL     1      -6.566  -9.402   7.978  0.00  0.00    -0.107 NA
ATOM     20  C   UNL     1      -4.738  -9.198   9.093  0.00  0.00    +0.218 A 
ATOM     23  C   UNL     1      -5.586 -10.011   7.351  0.00  0.00    +0.248 A 
BRANCH  23  24
ATOM     24  C   UNL     1      -5.581 -10.738   6.114  0.00  0.00    +0.038 A 
ATOM     25  C   UNL     1      -6.575 -10.504   5.164  0.00  0.00    +0.013 A 
ATOM     26  C   UNL     1      -4.581 -11.677   5.861  0.00  0.00    +0.013 A 
ATOM     27  C   UNL     1      -6.570 -11.210   3.961  0.00  0.00    +0.004 A 
ATOM     28  C   UNL     1      -4.576 -12.383   4.658  0.00  0.00    +0.004 A 
ATOM     29  C   UNL     1      -5.570 -12.150   3.708  0.00  0.00    -0.050 A 
ATOM     30  C   UNL     1      -5.565 -12.905   2.422  0.00  0.00    +0.044 C 
ENDBRANCH  23  24
ENDBRANCH  14  20
ENDBRANCH   9  14
TORSDOF 6
ENDMDL
MODEL 7
REMARK VINA RESULT:      -6.6     26.890     29.454
REMARK  Name = 38030682
REMARK  10 active torsions:
REMARK  status: ('A' for Active; 'I' for Inactive)
REMARK    1  A    between atoms: N_3  and  C_11
REMARK    2  A    between atoms: C_6  and  C_10
REMARK    3  A    between atoms: C_7  and  C_11
REMARK    4  A    between atoms: C_9  and  C_14
REMARK    5  A    between atoms: C_10  and  C_15
REMARK    6  A    between atoms: C_10  and  C_16
REMARK    7  A    between atoms: C_13  and  C_17
REMARK    8  A    between atoms: C_14  and  C_20
REMARK    9  A    between atoms: C_23  and  C_24
REMARK   10  A    between atoms: C_29  and  C_30
REMARK                            x       y       z     vdW  Elec       q    Type
REMARK                         _______ _______ _______ _____ _____    ______ ____
ROOT
ATOM      6  C   UNL     1      -7.359 -12.167  17.208  0.00  0.00    +0.000 C 
ATOM      7  C   UNL     1      -7.390 -12.000  18.745  0.00  0.00    +0.029 C 
ATOM      8  C   UNL     1      -6.207 -11.353  16.602  0.00  0.00    +0.012 C 
ATOM      9  C   UNL     1      -4.826 -11.720  17.185  0.00  0.00    +0.024 C 
ATOM     12  C   UNL     1      -6.018 -12.089  19.364  0.00  0.00    -0.023 C 
ATOM     13  C   UNL     1      -4.862 -11.979  18.684  0.00  0.00    -0.073 C 
ATOM     17  C   UNL     1      -3.547 -12.171  19.387  0.00  0.00    +0.039 C 
ENDROOT
BRANCH   6  10
ATOM     10  C   UNL     1      -7.266 -13.646  16.807  0.00  0.00    -0.013 C 
ATOM     15  C   UNL     1      -8.354 -14.456  17.505  0.00  0.00    +0.007 C 
ATOM     16  C   UNL     1      -7.369 -13.794  15.292  0.00  0.00    +0.007 C 
ENDBRANCH   6  10
BRANCH   7  11
ATOM     11  C   UNL     1      -8.044 -10.678  19.158  0.00  0.00    +0.092 C 
BRANCH  11   3
ATOM      1  O   UNL     1     -12.056  -9.498  18.799  0.00  0.00    -0.377 OA
ATOM      3  N   UNL     1      -9.464 -10.674  18.812  0.00  0.00    -0.297 NA
ATOM     18  C   UNL     1      -9.786  -9.535  17.942  0.00  0.00    +0.112 C 
ATOM     19  C   UNL     1     -10.296 -10.635  20.023  0.00  0.00    +0.112 C 
ATOM     21  C   UNL     1     -11.274  -9.545  17.605  0.00  0.00    +0.175 C 
ATOM     22  C   UNL     1     -11.772 -10.620  19.635  0.00  0.00    +0.175 C 
ENDBRANCH  11   3
ENDBRANCH   7  11
BRANCH   9  14
ATOM     14  C   UNL     1      -3.823 -10.629  16.792  0.00  0.00    +0.105 C 
BRANCH  14  20
ATOM      2  O   UNL     1      -3.951 -10.457  14.360  0.00  0.00    -0.420 OA
ATOM      4  N   UNL     1      -2.108 -11.477  15.112  0.00  0.00    -0.112 NA
ATOM      5  N   UNL     1      -2.049 -11.451  13.732  0.00  0.00    -0.107 NA
ATOM     20  C   UNL     1      -3.234 -10.887  15.435  0.00  0.00    +0.218 A 
ATOM     23  C   UNL     1      -3.145 -10.846  13.336  0.00  0.00    +0.248 A 
BRANCH  23  24
ATOM     24  C   UNL     1      -3.614 -10.539  12.016  0.00  0.00    +0.038 A 
ATOM     25  C   UNL     1      -2.852  -9.727  11.177  0.00  0.00    +0.013 A 
ATOM     26  C   UNL     1      -4.832 -11.053  11.572  0.00  0.00    +0.013 A 
ATOM     27  C   UNL     1      -3.308  -9.427   9.893  0.00  0.00    +0.004 A 
ATOM     28  C   UNL     1      -5.288 -10.754  10.288  0.00  0.00    +0.004 A 
ATOM     29  C   UNL     1      -4.526  -9.941   9.448  0.00  0.00    -0.050 A 
ATOM     30  C   UNL     1      -5.015  -9.621   8.076  0.00  0.00    +0.044 C 
ENDBRANCH  23  24
ENDBRANCH  14  20
ENDBRANCH   9  14
TORSDOF 6
ENDMDL
MODEL 8
REMARK VINA RESULT:      -6.6     25.155     27.756
REMARK  Name = 38030682
REMARK  10 active torsions:
REMARK  status: ('A' for Active; 'I' for Inactive)
REMARK    1  A    between atoms: N_3  and  C_11
REMARK    2  A    between atoms: C_6  and  C_10
REMARK    3  A    between atoms: C_7  and  C_11
REMARK    4  A    between atoms: C_9  and  C_14
REMARK    5  A    between atoms: C_10  and  C_15
REMARK    6  A    between atoms: C_10  and  C_16
REMARK    7  A    between atoms: C_13  and  C_17
REMARK    8  A    between atoms: C_14  and  C_20
REMARK    9  A    between atoms: C_23  and  C_24
REMARK   10  A    between atoms: C_29  and  C_30
REMARK                            x       y       z     vdW  Elec       q    Type
REMARK                         _______ _______ _______ _____ _____    ______ ____
ROOT
ATOM      6  C   UNL     1     -12.259  10.178  17.950  0.00  0.00    +0.000 C 
ATOM      7  C   UNL     1     -12.523   8.742  17.443  0.00  0.00    +0.029 C 
ATOM      8  C   UNL     1     -12.902  10.388  19.328  0.00  0.00    +0.012 C 
ATOM      9  C   UNL     1     -12.422   9.373  20.388  0.00  0.00    +0.024 C 
ATOM     12  C   UNL     1     -12.322   7.702  18.517  0.00  0.00    -0.023 C 
ATOM     13  C   UNL     1     -12.262   7.965  19.835  0.00  0.00    -0.073 C 
ATOM     17  C   UNL     1     -11.971   6.863  20.815  0.00  0.00    +0.039 C 
ENDROOT
BRANCH   6  10
ATOM     10  C   UNL     1     -10.757  10.493  17.984  0.00  0.00    -0.013 C 
ATOM     15  C   UNL     1     -10.088  10.033  16.692  0.00  0.00    +0.007 C 
ATOM     16  C   UNL     1     -10.531  11.985  18.209  0.00  0.00    +0.007 C 
ENDBRANCH   6  10
BRANCH   7  11
ATOM     11  C   UNL     1     -13.933   8.597  16.859  0.00  0.00    +0.092 C 
BRANCH  11   3
ATOM      1  O   UNL     1     -13.386   6.897  13.061  0.00  0.00    -0.377 OA
ATOM      3  N   UNL     1     -13.876   8.431  15.408  0.00  0.00    -0.297 NA
ATOM     18  C   UNL     1     -14.808   7.385  14.966  0.00  0.00    +0.112 C 
ATOM     19  C   UNL     1     -12.510   8.106  14.974  0.00  0.00    +0.112 C 
ATOM     21  C   UNL     1     -14.721   7.220  13.452  0.00  0.00    +0.175 C 
ATOM     22  C   UNL     1     -12.479   7.925  13.458  0.00  0.00    +0.175 C 
ENDBRANCH  11   3
ENDBRANCH   7  11
BRANCH   9  14
ATOM     14  C   UNL     1     -13.370   9.438  21.591  0.00  0.00    +0.105 C 
BRANCH  14  20
ATOM      2  O   UNL     1     -12.842   9.816  23.945  0.00  0.00    -0.420 OA
ATOM      4  N   UNL     1     -12.305  11.520  22.599  0.00  0.00    -0.112 NA
ATOM      5  N   UNL     1     -11.955  11.868  23.890  0.00  0.00    -0.107 NA
ATOM     20  C   UNL     1     -12.819  10.316  22.678  0.00  0.00    +0.218 A 
ATOM     23  C   UNL     1     -12.286  10.843  24.641  0.00  0.00    +0.248 A 
BRANCH  23  24
ATOM     24  C   UNL     1     -12.156  10.644  26.055  0.00  0.00    +0.038 A 
ATOM     25  C   UNL     1     -13.258  10.829  26.891  0.00  0.00    +0.013 A 
ATOM     26  C   UNL     1     -10.927  10.263  26.595  0.00  0.00    +0.013 A 
ATOM     27  C   UNL     1     -13.131  10.636  28.266  0.00  0.00    +0.004 A 
ATOM     28  C   UNL     1     -10.801  10.070  27.971  0.00  0.00    +0.004 A 
ATOM     29  C   UNL     1     -11.902  10.255  28.807  0.00  0.00    -0.050 A 
ATOM     30  C   UNL     1     -11.766  10.049  30.277  0.00  0.00    +0.044 C 
ENDBRANCH  23  24
ENDBRANCH  14  20
ENDBRANCH   9  14
TORSDOF 6
ENDMDL
MODEL 9
REMARK VINA RESULT:      -6.4     26.036     29.023
REMARK  Name = 38030682
REMARK  10 active torsions:
REMARK  status: ('A' for Active; 'I' for Inactive)
REMARK    1  A    between atoms: N_3  and  C_11
REMARK    2  A    between atoms: C_6  and  C_10
REMARK    3  A    between atoms: C_7  and  C_11
REMARK    4  A    between atoms: C_9  and  C_14
REMARK    5  A    between atoms: C_10  and  C_15
REMARK    6  A    between atoms: C_10  and  C_16
REMARK    7  A    between atoms: C_13  and  C_17
REMARK    8  A    between atoms: C_14  and  C_20
REMARK    9  A    between atoms: C_23  and  C_24
REMARK   10  A    between atoms: C_29  and  C_30
REMARK                            x       y       z     vdW  Elec       q    Type
REMARK                         _______ _______ _______ _____ _____    ______ ____
ROOT
ATOM      6  C   UNL     1      -4.931 -12.444  15.417  0.00  0.00    +0.000 C 
ATOM      7  C   UNL     1      -4.607 -11.632  16.692  0.00  0.00    +0.029 C 
ATOM      8  C   UNL     1      -4.466 -11.687  14.165  0.00  0.00    +0.012 C 
ATOM      9  C   UNL     1      -2.961 -11.340  14.184  0.00  0.00    +0.024 C 
ATOM     12  C   UNL     1      -3.222 -11.035  16.662  0.00  0.00    -0.023 C 
ATOM     13  C   UNL     1      -2.467 -10.907  15.556  0.00  0.00    -0.073 C 
ATOM     17  C   UNL     1      -1.063 -10.377  15.653  0.00  0.00    +0.039 C 
ENDROOT
BRANCH   6  10
ATOM     10  C   UNL     1      -4.316 -13.849  15.477  0.00  0.00    -0.013 C 
ATOM     15  C   UNL     1      -4.837 -14.606  16.695  0.00  0.00    +0.007 C 
ATOM     16  C   UNL     1      -4.617 -14.617  14.193  0.00  0.00    +0.007 C 
ENDBRANCH   6  10
BRANCH   7  11
ATOM     11  C   UNL     1      -5.631 -10.516  16.928  0.00  0.00    +0.092 C 
BRANCH  11   3
ATOM      1  O   UNL     1      -8.545 -11.046  19.902  0.00  0.00    -0.377 OA
ATOM      3  N   UNL     1      -6.787 -11.025  17.663  0.00  0.00    -0.297 NA
ATOM     18  C   UNL     1      -7.783  -9.964  17.868  0.00  0.00    +0.112 C 
ATOM     19  C   UNL     1      -6.376 -11.588  18.957  0.00  0.00    +0.112 C 
ATOM     21  C   UNL     1      -8.974 -10.515  18.648  0.00  0.00    +0.175 C 
ATOM     22  C   UNL     1      -7.601 -12.101  19.710  0.00  0.00    +0.175 C 
ENDBRANCH  11   3
ENDBRANCH   7  11
BRANCH   9  14
ATOM     14  C   UNL     1      -2.687 -10.296  13.094  0.00  0.00    +0.105 C 
BRANCH  14  20
ATOM      2  O   UNL     1      -4.088  -9.907  11.134  0.00  0.00    -0.420 OA
ATOM      4  N   UNL     1      -2.961 -11.838  11.086  0.00  0.00    -0.112 NA
ATOM      5  N   UNL     1      -3.706 -11.750   9.925  0.00  0.00    -0.107 NA
ATOM     20  C   UNL     1      -3.214 -10.742  11.761  0.00  0.00    +0.218 A 
ATOM     23  C   UNL     1      -4.347 -10.607   9.996  0.00  0.00    +0.248 A 
BRANCH  23  24
ATOM     24  C   UNL     1      -5.261  -9.993   9.077  0.00  0.00    +0.038 A 
ATOM     25  C   UNL     1      -5.207 -10.315   7.721  0.00  0.00    +0.013 A 
ATOM     26  C   UNL     1      -6.206  -9.078   9.540  0.00  0.00    +0.013 A 
ATOM     27  C   UNL     1      -6.096  -9.719   6.826  0.00  0.00    +0.004 A 
ATOM     28  C   UNL     1      -7.095  -8.482   8.645  0.00  0.00    +0.004 A 
ATOM     29  C   UNL     1      -7.041  -8.802   7.289  0.00  0.00    -0.050 A 
ATOM     30  C   UNL     1      -7.991  -8.165   6.333  0.00  0.00    +0.044 C 
ENDBRANCH  23  24
ENDBRANCH  14  20
ENDBRANCH   9  14
TORSDOF 6
ENDMDL
MODEL 10
REMARK VINA RESULT:      -6.4     27.092     29.432
REMARK  Name = 38030682
REMARK  10 active torsions:
REMARK  status: ('A' for Active; 'I' for Inactive)
REMARK    1  A    between atoms: N_3  and  C_11
REMARK    2  A    between atoms: C_6  and  C_10
REMARK    3  A    between atoms: C_7  and  C_11
REMARK    4  A    between atoms: C_9  and  C_14
REMARK    5  A    between atoms: C_10  and  C_15
REMARK    6  A    between atoms: C_10  and  C_16
REMARK    7  A    between atoms: C_13  and  C_17
REMARK    8  A    between atoms: C_14  and  C_20
REMARK    9  A    between atoms: C_23  and  C_24
REMARK   10  A    between atoms: C_29  and  C_30
REMARK                            x       y       z     vdW  Elec       q    Type
REMARK                         _______ _______ _______ _____ _____    ______ ____
ROOT
ATOM      6  C   UNL     1      -4.719  -9.760  11.431  0.00  0.00    +0.000 C 
ATOM      7  C   UNL     1      -5.891 -10.503  12.111  0.00  0.00    +0.029 C 
ATOM      8  C   UNL     1      -3.378 -10.209  12.030  0.00  0.00    +0.012 C 
ATOM      9  C   UNL     1      -3.145 -11.732  11.932  0.00  0.00    +0.024 C 
ATOM     12  C   UNL     1      -5.619 -11.976  12.287  0.00  0.00    -0.023 C 
ATOM     13  C   UNL     1      -4.403 -12.546  12.199  0.00  0.00    -0.073 C 
ATOM     17  C   UNL     1      -4.255 -14.039  12.305  0.00  0.00    +0.039 C 
ENDROOT
BRANCH   6  10
ATOM     10  C   UNL     1      -4.740  -9.953   9.908  0.00  0.00    -0.013 C 
ATOM     15  C   UNL     1      -6.173  -9.909   9.387  0.00  0.00    +0.007 C 
ATOM     16  C   UNL     1      -3.882  -8.893   9.225  0.00  0.00    +0.007 C 
ENDBRANCH   6  10
BRANCH   7  11
ATOM     11  C   UNL     1      -6.239  -9.890  13.471  0.00  0.00    +0.092 C 
BRANCH  11   3
ATOM      1  O   UNL     1      -9.905 -10.404  15.449  0.00  0.00    -0.377 OA
ATOM      3  N   UNL     1      -7.443 -10.506  14.023  0.00  0.00    -0.297 NA
ATOM     18  C   UNL     1      -8.651  -9.915  13.430  0.00  0.00    +0.112 C 
ATOM     19  C   UNL     1      -7.479 -10.365  15.485  0.00  0.00    +0.112 C 
ATOM     21  C   UNL     1      -9.894 -10.564  14.030  0.00  0.00    +0.175 C 
ATOM     22  C   UNL     1      -8.750 -11.005  16.036  0.00  0.00    +0.175 C 
ENDBRANCH  11   3
ENDBRANCH   7  11
BRANCH   9  14
ATOM     14  C   UNL     1      -1.983 -12.110  12.859  0.00  0.00    +0.105 C 
BRANCH  14  20
ATOM      2  O   UNL     1      -3.347 -12.002  14.881  0.00  0.00    -0.420 OA
ATOM      4  N   UNL     1      -1.457 -10.810  14.985  0.00  0.00    -0.112 NA
ATOM      5  N   UNL     1      -2.124 -10.659  16.186  0.00  0.00    -0.107 NA
ATOM     20  C   UNL     1      -2.206 -11.601  14.255  0.00  0.00    +0.218 A 
ATOM     23  C   UNL     1      -3.221 -11.372  16.080  0.00  0.00    +0.248 A 
BRANCH  23  24
ATOM     24  C   UNL     1      -4.287 -11.585  17.015  0.00  0.00    +0.038 A 
ATOM     25  C   UNL     1      -4.625 -10.585  17.927  0.00  0.00    +0.013 A 
ATOM     26  C   UNL     1      -4.987 -12.792  17.012  0.00  0.00    +0.013 A 
ATOM     27  C   UNL     1      -5.662 -10.792  18.837  0.00  0.00    +0.004 A 
ATOM     28  C   UNL     1      -6.024 -12.999  17.922  0.00  0.00    +0.004 A 
ATOM     29  C   UNL     1      -6.362 -11.999  18.834  0.00  0.00    -0.050 A 
ATOM     30  C   UNL     1      -7.470 -12.221  19.807  0.00  0.00    +0.044 C 
ENDBRANCH  23  24
ENDBRANCH  14  20
ENDBRANCH   9  14
TORSDOF 6
ENDMDL
