MODEL 1
REMARK VINA RESULT:      -6.7      0.000      0.000
REMARK  Name = 45361564
REMARK  11 active torsions:
REMARK  status: ('A' for Active; 'I' for Inactive)
REMARK    1  A    between atoms: O_1  and  C_10
REMARK    2  A    between atoms: N_4  and  C_14
REMARK    3  A    between atoms: N_5  and  C_24
REMARK    4  A    between atoms: C_7  and  C_17
REMARK    5  A    between atoms: C_9  and  C_19
REMARK    6  A    between atoms: C_13  and  C_18
REMARK    7  A    between atoms: C_18  and  C_20
REMARK    8  A    between atoms: C_18  and  C_21
REMARK    9  A    between atoms: C_22  and  C_23
REMARK   10  A    between atoms: C_24  and  C_25
REMARK   11  A    between atoms: C_24  and  C_26
REMARK                            x       y       z     vdW  Elec       q    Type
REMARK                         _______ _______ _______ _____ _____    ______ ____
ROOT
ATOM      7  C   UNL     1     -15.095   7.518  20.701  0.00  0.00    -0.027 C 
ATOM      8  C   UNL     1     -13.879   6.600  21.055  0.00  0.00    +0.028 C 
ATOM      9  C   UNL     1     -14.121   5.852  22.416  0.00  0.00    +0.012 C 
ATOM     10  C   UNL     1     -12.536   7.379  20.951  0.00  0.00    +0.122 C 
ATOM     11  C   UNL     1     -14.875   8.150  19.306  0.00  0.00    +0.007 C 
ATOM     12  C   UNL     1     -16.376   6.654  20.629  0.00  0.00    +0.009 C 
ATOM     13  C   UNL     1     -12.369   8.095  19.591  0.00  0.00    +0.029 C 
ATOM     14  C   UNL     1     -15.449   5.046  22.357  0.00  0.00    +0.076 C 
ATOM     15  C   UNL     1     -13.580   8.946  19.212  0.00  0.00    +0.007 C 
ATOM     16  C   UNL     1     -16.649   5.883  21.913  0.00  0.00    +0.023 C 
ATOM     17  C   UNL     1     -15.303   8.654  21.735  0.00  0.00    +0.011 C 
ATOM     19  C   UNL     1     -12.973   4.908  22.812  0.00  0.00    +0.010 C 
ENDROOT
BRANCH  14   4
ATOM      3  O   UNL     1     -16.518   2.416  22.787  0.00  0.00    -0.270 OA
ATOM      4  N   UNL     1     -15.763   4.437  23.634  0.00  0.00    -0.308 N 
ATOM     22  C   UNL     1     -16.278   3.156  23.736  0.00  0.00    +0.244 C 
ATOM     31  H   UNL     1     -15.695   5.031  24.454  0.00  0.00    +0.149 HD
BRANCH  22  23
ATOM      6  N   UNL     1     -17.117   1.803  27.709  0.00  0.00    -0.263 NA
ATOM     23  C   UNL     1     -16.571   2.687  25.115  0.00  0.00    +0.040 A 
ATOM     27  C   UNL     1     -16.410   3.549  26.194  0.00  0.00    +0.033 A 
ATOM     28  C   UNL     1     -17.005   1.384  25.332  0.00  0.00    +0.033 A 
ATOM     29  C   UNL     1     -16.694   3.063  27.460  0.00  0.00    +0.111 A 
ATOM     30  C   UNL     1     -17.262   0.994  26.636  0.00  0.00    +0.111 A 
ENDBRANCH  22  23
ENDBRANCH  14   4
BRANCH  10   1
ATOM      1  O   UNL     1     -11.444   6.465  21.068  0.00  0.00    -0.391 OA
ATOM     32  H   UNL     1     -11.716   5.744  21.662  0.00  0.00    +0.210 HD
ENDBRANCH  10   1
BRANCH  13  18
ATOM     18  C   UNL     1     -11.102   8.961  19.556  0.00  0.00    +0.077 C 
ATOM     20  C   UNL     1     -11.374  10.313  20.204  0.00  0.00    +0.017 C 
BRANCH  18  21
ATOM      2  O   UNL     1     -10.366   8.162  17.391  0.00  0.00    -0.276 OA
ATOM      5  N   UNL     1     -10.511  10.450  17.738  0.00  0.00    -0.313 N 
ATOM     21  C   UNL     1     -10.622   9.120  18.117  0.00  0.00    +0.216 C 
ATOM     33  H   UNL     1     -10.679  11.177  18.428  0.00  0.00    +0.149 HD
BRANCH   5  24
ATOM     24  C   UNL     1     -10.074  10.854  16.422  0.00  0.00    +0.067 C 
ATOM     25  C   UNL     1     -11.255  10.922  15.462  0.00  0.00    +0.027 C 
ATOM     26  C   UNL     1      -9.344  12.190  16.493  0.00  0.00    +0.027 C 
ENDBRANCH   5  24
ENDBRANCH  18  21
ENDBRANCH  13  18
TORSDOF 6
ENDMDL
MODEL 2
REMARK VINA RESULT:      -6.6     18.428     19.736
REMARK  Name = 45361564
REMARK  11 active torsions:
REMARK  status: ('A' for Active; 'I' for Inactive)
REMARK    1  A    between atoms: O_1  and  C_10
REMARK    2  A    between atoms: N_4  and  C_14
REMARK    3  A    between atoms: N_5  and  C_24
REMARK    4  A    between atoms: C_7  and  C_17
REMARK    5  A    between atoms: C_9  and  C_19
REMARK    6  A    between atoms: C_13  and  C_18
REMARK    7  A    between atoms: C_18  and  C_20
REMARK    8  A    between atoms: C_18  and  C_21
REMARK    9  A    between atoms: C_22  and  C_23
REMARK   10  A    between atoms: C_24  and  C_25
REMARK   11  A    between atoms: C_24  and  C_26
REMARK                            x       y       z     vdW  Elec       q    Type
REMARK                         _______ _______ _______ _____ _____    ______ ____
ROOT
ATOM      7  C   UNL     1      -4.668 -11.022  16.930  0.00  0.00    -0.027 C 
ATOM      8  C   UNL     1      -5.516 -10.410  15.766  0.00  0.00    +0.028 C 
ATOM      9  C   UNL     1      -7.054 -10.534  16.069  0.00  0.00    +0.012 C 
ATOM     10  C   UNL     1      -5.061 -10.965  14.386  0.00  0.00    +0.122 C 
ATOM     11  C   UNL     1      -3.165 -10.783  16.654  0.00  0.00    +0.007 C 
ATOM     12  C   UNL     1      -5.025 -10.297  18.249  0.00  0.00    +0.009 C 
ATOM     13  C   UNL     1      -3.538 -10.817  14.159  0.00  0.00    +0.029 C 
ATOM     14  C   UNL     1      -7.388  -9.866  17.433  0.00  0.00    +0.076 C 
ATOM     15  C   UNL     1      -2.707 -11.359  15.321  0.00  0.00    +0.007 C 
ATOM     16  C   UNL     1      -6.510 -10.360  18.582  0.00  0.00    +0.023 C 
ATOM     17  C   UNL     1      -4.907 -12.543  17.103  0.00  0.00    +0.011 C 
ATOM     19  C   UNL     1      -7.947  -9.925  14.975  0.00  0.00    +0.010 C 
ENDROOT
BRANCH  14   4
ATOM      3  O   UNL     1      -9.452  -7.871  17.463  0.00  0.00    -0.270 OA
ATOM      4  N   UNL     1      -8.775 -10.063  17.799  0.00  0.00    -0.308 N 
ATOM     22  C   UNL     1      -9.698  -9.031  17.781  0.00  0.00    +0.244 C 
ATOM     31  H   UNL     1      -9.025 -10.970  18.180  0.00  0.00    +0.149 HD
BRANCH  22  23
ATOM      6  N   UNL     1     -13.665 -10.060  19.017  0.00  0.00    -0.263 NA
ATOM     23  C   UNL     1     -11.075  -9.390  18.210  0.00  0.00    +0.040 A 
ATOM     27  C   UNL     1     -12.147  -9.193  17.347  0.00  0.00    +0.033 A 
ATOM     28  C   UNL     1     -11.296  -9.923  19.474  0.00  0.00    +0.033 A 
ATOM     29  C   UNL     1     -13.412  -9.541  17.794  0.00  0.00    +0.111 A 
ATOM     30  C   UNL     1     -12.598 -10.238  19.827  0.00  0.00    +0.111 A 
ENDBRANCH  22  23
ENDBRANCH  14   4
BRANCH  10   1
ATOM      1  O   UNL     1      -5.702 -10.231  13.341  0.00  0.00    -0.391 OA
ATOM     32  H   UNL     1      -5.937  -9.354  13.689  0.00  0.00    +0.210 HD
ENDBRANCH  10   1
BRANCH  13  18
ATOM     18  C   UNL     1      -3.090 -11.486  12.853  0.00  0.00    +0.077 C 
ATOM     20  C   UNL     1      -1.843 -12.328  13.095  0.00  0.00    +0.017 C 
BRANCH  18  21
ATOM      2  O   UNL     1      -1.771  -9.839  11.662  0.00  0.00    -0.276 OA
ATOM      5  N   UNL     1      -3.959 -10.208  10.985  0.00  0.00    -0.313 N 
ATOM     21  C   UNL     1      -2.845 -10.425  11.784  0.00  0.00    +0.216 C 
ATOM     33  H   UNL     1      -4.826 -10.690  11.205  0.00  0.00    +0.149 HD
BRANCH   5  24
ATOM     24  C   UNL     1      -3.972  -9.249   9.906  0.00  0.00    +0.067 C 
ATOM     25  C   UNL     1      -4.457  -9.900   8.617  0.00  0.00    +0.027 C 
ATOM     26  C   UNL     1      -4.832  -8.047  10.275  0.00  0.00    +0.027 C 
ENDBRANCH   5  24
ENDBRANCH  18  21
ENDBRANCH  13  18
TORSDOF 6
ENDMDL
MODEL 3
REMARK VINA RESULT:      -6.6     29.907     33.733
REMARK  Name = 45361564
REMARK  11 active torsions:
REMARK  status: ('A' for Active; 'I' for Inactive)
REMARK    1  A    between atoms: O_1  and  C_10
REMARK    2  A    between atoms: N_4  and  C_14
REMARK    3  A    between atoms: N_5  and  C_24
REMARK    4  A    between atoms: C_7  and  C_17
REMARK    5  A    between atoms: C_9  and  C_19
REMARK    6  A    between atoms: C_13  and  C_18
REMARK    7  A    between atoms: C_18  and  C_20
REMARK    8  A    between atoms: C_18  and  C_21
REMARK    9  A    between atoms: C_22  and  C_23
REMARK   10  A    between atoms: C_24  and  C_25
REMARK   11  A    between atoms: C_24  and  C_26
REMARK                            x       y       z     vdW  Elec       q    Type
REMARK                         _______ _______ _______ _____ _____    ______ ____
ROOT
ATOM      7  C   UNL     1      20.117   7.688  21.838  0.00  0.00    -0.027 C 
ATOM      8  C   UNL     1      19.682   6.685  20.719  0.00  0.00    +0.028 C 
ATOM      9  C   UNL     1      18.125   6.475  20.730  0.00  0.00    +0.012 C 
ATOM     10  C   UNL     1      20.533   5.383  20.768  0.00  0.00    +0.122 C 
ATOM     11  C   UNL     1      21.636   7.959  21.727  0.00  0.00    +0.007 C 
ATOM     12  C   UNL     1      19.382   9.032  21.625  0.00  0.00    +0.009 C 
ATOM     13  C   UNL     1      22.053   5.666  20.761  0.00  0.00    +0.029 C 
ATOM     14  C   UNL     1      17.397   7.841  20.589  0.00  0.00    +0.076 C 
ATOM     15  C   UNL     1      22.473   6.691  21.814  0.00  0.00    +0.007 C 
ATOM     16  C   UNL     1      17.867   8.887  21.600  0.00  0.00    +0.023 C 
ATOM     17  C   UNL     1      19.809   7.159  23.262  0.00  0.00    +0.011 C 
ATOM     19  C   UNL     1      17.625   5.519  19.634  0.00  0.00    +0.010 C 
ENDROOT
BRANCH  14   4
ATOM      3  O   UNL     1      15.403   9.035  18.903  0.00  0.00    -0.270 OA
ATOM      4  N   UNL     1      15.961   7.698  20.713  0.00  0.00    -0.308 N 
ATOM     22  C   UNL     1      15.079   8.318  19.845  0.00  0.00    +0.244 C 
ATOM     31  H   UNL     1      15.618   7.211  21.534  0.00  0.00    +0.149 HD
BRANCH  22  23
ATOM      6  N   UNL     1      10.924   7.671  20.647  0.00  0.00    -0.263 NA
ATOM     23  C   UNL     1      13.636   8.093  20.122  0.00  0.00    +0.040 A 
ATOM     27  C   UNL     1      12.698   9.054  19.762  0.00  0.00    +0.033 A 
ATOM     28  C   UNL     1      13.219   6.921  20.743  0.00  0.00    +0.033 A 
ATOM     29  C   UNL     1      11.366   8.798  20.043  0.00  0.00    +0.111 A 
ATOM     30  C   UNL     1      11.864   6.760  20.982  0.00  0.00    +0.111 A 
ENDBRANCH  22  23
ENDBRANCH  14   4
BRANCH  10   1
ATOM      1  O   UNL     1      20.260   4.592  19.611  0.00  0.00    -0.391 OA
ATOM     32  H   UNL     1      20.892   3.853  19.594  0.00  0.00    +0.210 HD
ENDBRANCH  10   1
BRANCH  13  18
ATOM     18  C   UNL     1      22.871   4.380  20.941  0.00  0.00    +0.077 C 
ATOM     20  C   UNL     1      22.451   3.666  22.219  0.00  0.00    +0.017 C 
BRANCH  18  21
ATOM      2  O   UNL     1      25.018   4.781  21.989  0.00  0.00    -0.276 OA
ATOM      5  N   UNL     1      24.869   4.917  19.678  0.00  0.00    -0.313 N 
ATOM     21  C   UNL     1      24.361   4.710  20.952  0.00  0.00    +0.216 C 
ATOM     33  H   UNL     1      24.234   4.905  18.885  0.00  0.00    +0.149 HD
BRANCH   5  24
ATOM     24  C   UNL     1      26.254   5.244  19.433  0.00  0.00    +0.067 C 
ATOM     25  C   UNL     1      26.928   4.146  18.619  0.00  0.00    +0.027 C 
ATOM     26  C   UNL     1      26.364   6.594  18.734  0.00  0.00    +0.027 C 
ENDBRANCH   5  24
ENDBRANCH  18  21
ENDBRANCH  13  18
TORSDOF 6
ENDMDL
MODEL 4
REMARK VINA RESULT:      -6.4      7.824     12.409
REMARK  Name = 45361564
REMARK  11 active torsions:
REMARK  status: ('A' for Active; 'I' for Inactive)
REMARK    1  A    between atoms: O_1  and  C_10
REMARK    2  A    between atoms: N_4  and  C_14
REMARK    3  A    between atoms: N_5  and  C_24
REMARK    4  A    between atoms: C_7  and  C_17
REMARK    5  A    between atoms: C_9  and  C_19
REMARK    6  A    between atoms: C_13  and  C_18
REMARK    7  A    between atoms: C_18  and  C_20
REMARK    8  A    between atoms: C_18  and  C_21
REMARK    9  A    between atoms: C_22  and  C_23
REMARK   10  A    between atoms: C_24  and  C_25
REMARK   11  A    between atoms: C_24  and  C_26
REMARK                            x       y       z     vdW  Elec       q    Type
REMARK                         _______ _______ _______ _____ _____    ______ ____
ROOT
ATOM      7  C   UNL     1     -14.787   1.698  31.189  0.00  0.00    -0.027 C 
ATOM      8  C   UNL     1     -16.014   2.638  30.944  0.00  0.00    +0.028 C 
ATOM      9  C   UNL     1     -16.281   2.820  29.406  0.00  0.00    +0.012 C 
ATOM     10  C   UNL     1     -15.886   3.956  31.761  0.00  0.00    +0.122 C 
ATOM     11  C   UNL     1     -14.623   1.450  32.707  0.00  0.00    +0.007 C 
ATOM     12  C   UNL     1     -15.055   0.332  30.516  0.00  0.00    +0.009 C 
ATOM     13  C   UNL     1     -15.617   3.701  33.262  0.00  0.00    +0.029 C 
ATOM     14  C   UNL     1     -16.475   1.435  28.727  0.00  0.00    +0.076 C 
ATOM     15  C   UNL     1     -14.458   2.736  33.505  0.00  0.00    +0.007 C 
ATOM     16  C   UNL     1     -15.347   0.448  29.026  0.00  0.00    +0.023 C 
ATOM     17  C   UNL     1     -13.466   2.290  30.635  0.00  0.00    +0.011 C 
ATOM     19  C   UNL     1     -17.494   3.712  29.093  0.00  0.00    +0.010 C 
ENDROOT
BRANCH  14   4
ATOM      3  O   UNL     1     -18.522   0.266  27.087  0.00  0.00    -0.270 OA
ATOM      4  N   UNL     1     -16.607   1.558  27.289  0.00  0.00    -0.308 N 
ATOM     22  C   UNL     1     -17.635   0.952  26.587  0.00  0.00    +0.244 C 
ATOM     31  H   UNL     1     -15.848   2.017  26.797  0.00  0.00    +0.149 HD
BRANCH  22  23
ATOM      6  N   UNL     1     -17.583   1.532  22.346  0.00  0.00    -0.263 NA
ATOM     23  C   UNL     1     -17.616   1.153  25.115  0.00  0.00    +0.040 A 
ATOM     27  C   UNL     1     -17.165   2.355  24.581  0.00  0.00    +0.033 A 
ATOM     28  C   UNL     1     -18.048   0.140  24.266  0.00  0.00    +0.033 A 
ATOM     29  C   UNL     1     -17.169   2.493  23.201  0.00  0.00    +0.111 A 
ATOM     30  C   UNL     1     -18.013   0.377  22.902  0.00  0.00    +0.111 A 
ENDBRANCH  22  23
ENDBRANCH  14   4
BRANCH  10   1
ATOM      1  O   UNL     1     -17.111   4.686  31.683  0.00  0.00    -0.391 OA
ATOM     32  H   UNL     1     -17.338   4.992  32.578  0.00  0.00    +0.210 HD
ENDBRANCH  10   1
BRANCH  13  18
ATOM     18  C   UNL     1     -15.366   5.008  34.024  0.00  0.00    +0.077 C 
ATOM     20  C   UNL     1     -14.384   4.769  35.166  0.00  0.00    +0.017 C 
BRANCH  18  21
ATOM      2  O   UNL     1     -17.294   5.088  35.489  0.00  0.00    -0.276 OA
ATOM      5  N   UNL     1     -17.109   6.679  33.811  0.00  0.00    -0.313 N 
ATOM     21  C   UNL     1     -16.687   5.574  34.537  0.00  0.00    +0.216 C 
ATOM     33  H   UNL     1     -16.576   6.967  32.996  0.00  0.00    +0.149 HD
BRANCH   5  24
ATOM     24  C   UNL     1     -18.333   7.386  34.106  0.00  0.00    +0.067 C 
ATOM     25  C   UNL     1     -18.128   8.890  33.973  0.00  0.00    +0.027 C 
ATOM     26  C   UNL     1     -19.457   6.901  33.199  0.00  0.00    +0.027 C 
ENDBRANCH   5  24
ENDBRANCH  18  21
ENDBRANCH  13  18
TORSDOF 6
ENDMDL
MODEL 5
REMARK VINA RESULT:      -6.3     25.671     29.796
REMARK  Name = 45361564
REMARK  11 active torsions:
REMARK  status: ('A' for Active; 'I' for Inactive)
REMARK    1  A    between atoms: O_1  and  C_10
REMARK    2  A    between atoms: N_4  and  C_14
REMARK    3  A    between atoms: N_5  and  C_24
REMARK    4  A    between atoms: C_7  and  C_17
REMARK    5  A    between atoms: C_9  and  C_19
REMARK    6  A    between atoms: C_13  and  C_18
REMARK    7  A    between atoms: C_18  and  C_20
REMARK    8  A    between atoms: C_18  and  C_21
REMARK    9  A    between atoms: C_22  and  C_23
REMARK   10  A    between atoms: C_24  and  C_25
REMARK   11  A    between atoms: C_24  and  C_26
REMARK                            x       y       z     vdW  Elec       q    Type
REMARK                         _______ _______ _______ _____ _____    ______ ____
ROOT
ATOM      7  C   UNL     1      12.449   9.023  17.704  0.00  0.00    -0.027 C 
ATOM      8  C   UNL     1      13.134  10.264  18.368  0.00  0.00    +0.028 C 
ATOM      9  C   UNL     1      14.503  10.588  17.667  0.00  0.00    +0.012 C 
ATOM     10  C   UNL     1      13.195  10.113  19.915  0.00  0.00    +0.122 C 
ATOM     11  C   UNL     1      11.056   8.801  18.341  0.00  0.00    +0.007 C 
ATOM     12  C   UNL     1      12.238   9.308  16.199  0.00  0.00    +0.009 C 
ATOM     13  C   UNL     1      11.816   9.788  20.535  0.00  0.00    +0.029 C 
ATOM     14  C   UNL     1      14.289  10.799  16.141  0.00  0.00    +0.076 C 
ATOM     15  C   UNL     1      11.116   8.614  19.850  0.00  0.00    +0.007 C 
ATOM     16  C   UNL     1      13.529   9.655  15.470  0.00  0.00    +0.023 C 
ATOM     17  C   UNL     1      13.283   7.726  17.867  0.00  0.00    +0.011 C 
ATOM     19  C   UNL     1      15.218  11.817  18.253  0.00  0.00    +0.010 C 
ENDROOT
BRANCH  14   4
ATOM      3  O   UNL     1      14.948  12.929  14.333  0.00  0.00    -0.270 OA
ATOM      4  N   UNL     1      15.546  10.985  15.445  0.00  0.00    -0.308 N 
ATOM     22  C   UNL     1      15.766  12.050  14.589  0.00  0.00    +0.244 C 
ATOM     31  H   UNL     1      16.227  10.237  15.523  0.00  0.00    +0.149 HD
BRANCH  22  23
ATOM      6  N   UNL     1      19.603  12.144  12.695  0.00  0.00    -0.263 NA
ATOM     23  C   UNL     1      17.098  12.085  13.932  0.00  0.00    +0.040 A 
ATOM     27  C   UNL     1      17.209  12.461  12.599  0.00  0.00    +0.033 A 
ATOM     28  C   UNL     1      18.239  11.738  14.648  0.00  0.00    +0.033 A 
ATOM     29  C   UNL     1      18.473  12.475  12.031  0.00  0.00    +0.111 A 
ATOM     30  C   UNL     1      19.457  11.783  13.989  0.00  0.00    +0.111 A 
ENDBRANCH  22  23
ENDBRANCH  14   4
BRANCH  10   1
ATOM      1  O   UNL     1      13.624  11.345  20.497  0.00  0.00    -0.391 OA
ATOM     32  H   UNL     1      12.918  11.663  21.086  0.00  0.00    +0.210 HD
ENDBRANCH  10   1
BRANCH  13  18
ATOM     18  C   UNL     1      11.920   9.516  22.041  0.00  0.00    +0.077 C 
ATOM     20  C   UNL     1      11.241   8.194  22.383  0.00  0.00    +0.017 C 
BRANCH  18  21
ATOM      2  O   UNL     1      10.836  10.541  23.950  0.00  0.00    -0.276 OA
ATOM      5  N   UNL     1      11.343  11.869  22.117  0.00  0.00    -0.313 N 
ATOM     21  C   UNL     1      11.306  10.674  22.822  0.00  0.00    +0.216 C 
ATOM     33  H   UNL     1      11.689  11.868  21.162  0.00  0.00    +0.149 HD
BRANCH   5  24
ATOM     24  C   UNL     1      10.821  13.106  22.647  0.00  0.00    +0.067 C 
ATOM     25  C   UNL     1      11.863  13.798  23.517  0.00  0.00    +0.027 C 
ATOM     26  C   UNL     1      10.356  14.014  21.515  0.00  0.00    +0.027 C 
ENDBRANCH   5  24
ENDBRANCH  18  21
ENDBRANCH  13  18
TORSDOF 6
ENDMDL
MODEL 6
REMARK VINA RESULT:      -6.1     20.749     22.992
REMARK  Name = 45361564
REMARK  11 active torsions:
REMARK  status: ('A' for Active; 'I' for Inactive)
REMARK    1  A    between atoms: O_1  and  C_10
REMARK    2  A    between atoms: N_4  and  C_14
REMARK    3  A    between atoms: N_5  and  C_24
REMARK    4  A    between atoms: C_7  and  C_17
REMARK    5  A    between atoms: C_9  and  C_19
REMARK    6  A    between atoms: C_13  and  C_18
REMARK    7  A    between atoms: C_18  and  C_20
REMARK    8  A    between atoms: C_18  and  C_21
REMARK    9  A    between atoms: C_22  and  C_23
REMARK   10  A    between atoms: C_24  and  C_25
REMARK   11  A    between atoms: C_24  and  C_26
REMARK                            x       y       z     vdW  Elec       q    Type
REMARK                         _______ _______ _______ _____ _____    ______ ____
ROOT
ATOM      7  C   UNL     1      -3.193 -11.511  12.037  0.00  0.00    -0.027 C 
ATOM      8  C   UNL     1      -4.526 -10.913  12.597  0.00  0.00    +0.028 C 
ATOM      9  C   UNL     1      -5.205  -9.971  11.538  0.00  0.00    +0.012 C 
ATOM     10  C   UNL     1      -4.315 -10.289  14.007  0.00  0.00    +0.122 C 
ATOM     11  C   UNL     1      -2.610 -12.518  13.057  0.00  0.00    +0.007 C 
ATOM     12  C   UNL     1      -3.496 -12.285  10.733  0.00  0.00    +0.009 C 
ATOM     13  C   UNL     1      -3.636 -11.268  14.994  0.00  0.00    +0.029 C 
ATOM     14  C   UNL     1      -5.437 -10.740  10.206  0.00  0.00    +0.076 C 
ATOM     15  C   UNL     1      -2.366 -11.900  14.427  0.00  0.00    +0.007 C 
ATOM     16  C   UNL     1      -4.180 -11.429   9.676  0.00  0.00    +0.023 C 
ATOM     17  C   UNL     1      -2.128 -10.422  11.748  0.00  0.00    +0.011 C 
ATOM     19  C   UNL     1      -6.538  -9.370  12.014  0.00  0.00    +0.010 C 
ENDROOT
BRANCH  14   4
ATOM      3  O   UNL     1      -7.315 -11.449   8.154  0.00  0.00    -0.270 OA
ATOM      4  N   UNL     1      -5.955  -9.870   9.170  0.00  0.00    -0.308 N 
ATOM     22  C   UNL     1      -6.862 -10.310   8.221  0.00  0.00    +0.244 C 
ATOM     31  H   UNL     1      -5.540  -8.947   9.096  0.00  0.00    +0.149 HD
BRANCH  22  23
ATOM      6  N   UNL     1      -8.060  -7.412   5.308  0.00  0.00    -0.263 NA
ATOM     23  C   UNL     1      -7.277  -9.304   7.210  0.00  0.00    +0.040 A 
ATOM     27  C   UNL     1      -8.041  -8.206   7.591  0.00  0.00    +0.033 A 
ATOM     28  C   UNL     1      -6.903  -9.455   5.879  0.00  0.00    +0.033 A 
ATOM     29  C   UNL     1      -8.404  -7.297   6.610  0.00  0.00    +0.111 A 
ATOM     30  C   UNL     1      -7.317  -8.491   4.975  0.00  0.00    +0.111 A 
ENDBRANCH  22  23
ENDBRANCH  14   4
BRANCH  10   1
ATOM      1  O   UNL     1      -5.582  -9.951  14.573  0.00  0.00    -0.391 OA
ATOM     32  H   UNL     1      -5.831  -9.069  14.251  0.00  0.00    +0.210 HD
ENDBRANCH  10   1
BRANCH  13  18
ATOM     18  C   UNL     1      -3.319 -10.594  16.335  0.00  0.00    +0.077 C 
ATOM     20  C   UNL     1      -1.824 -10.672  16.621  0.00  0.00    +0.017 C 
BRANCH  18  21
ATOM      2  O   UNL     1      -3.613 -11.828  18.399  0.00  0.00    -0.276 OA
ATOM      5  N   UNL     1      -5.500 -11.104  17.261  0.00  0.00    -0.313 N 
ATOM     21  C   UNL     1      -4.133 -11.246  17.449  0.00  0.00    +0.216 C 
ATOM     33  H   UNL     1      -5.839 -10.667  16.409  0.00  0.00    +0.149 HD
BRANCH   5  24
ATOM     24  C   UNL     1      -6.475 -11.639  18.182  0.00  0.00    +0.067 C 
ATOM     25  C   UNL     1      -7.646 -10.677  18.342  0.00  0.00    +0.027 C 
ATOM     26  C   UNL     1      -6.949 -13.010  17.715  0.00  0.00    +0.027 C 
ENDBRANCH   5  24
ENDBRANCH  18  21
ENDBRANCH  13  18
TORSDOF 6
ENDMDL
MODEL 7
REMARK VINA RESULT:      -6.1     19.652     20.954
REMARK  Name = 45361564
REMARK  11 active torsions:
REMARK  status: ('A' for Active; 'I' for Inactive)
REMARK    1  A    between atoms: O_1  and  C_10
REMARK    2  A    between atoms: N_4  and  C_14
REMARK    3  A    between atoms: N_5  and  C_24
REMARK    4  A    between atoms: C_7  and  C_17
REMARK    5  A    between atoms: C_9  and  C_19
REMARK    6  A    between atoms: C_13  and  C_18
REMARK    7  A    between atoms: C_18  and  C_20
REMARK    8  A    between atoms: C_18  and  C_21
REMARK    9  A    between atoms: C_22  and  C_23
REMARK   10  A    between atoms: C_24  and  C_25
REMARK   11  A    between atoms: C_24  and  C_26
REMARK                            x       y       z     vdW  Elec       q    Type
REMARK                         _______ _______ _______ _____ _____    ______ ____
ROOT
ATOM      7  C   UNL     1      -5.169 -11.189  18.009  0.00  0.00    -0.027 C 
ATOM      8  C   UNL     1      -6.055 -12.086  17.083  0.00  0.00    +0.028 C 
ATOM      9  C   UNL     1      -6.767 -13.215  17.914  0.00  0.00    +0.012 C 
ATOM     10  C   UNL     1      -5.257 -12.574  15.840  0.00  0.00    +0.122 C 
ATOM     11  C   UNL     1      -4.576 -10.023  17.182  0.00  0.00    +0.007 C 
ATOM     12  C   UNL     1      -6.058 -10.575  19.116  0.00  0.00    +0.009 C 
ATOM     13  C   UNL     1      -4.578 -11.413  15.077  0.00  0.00    +0.029 C 
ATOM     14  C   UNL     1      -7.597 -12.589  19.070  0.00  0.00    +0.076 C 
ATOM     15  C   UNL     1      -3.761 -10.498  15.987  0.00  0.00    +0.007 C 
ATOM     16  C   UNL     1      -6.795 -11.622  19.940  0.00  0.00    +0.023 C 
ATOM     17  C   UNL     1      -4.007 -11.977  18.666  0.00  0.00    +0.011 C 
ATOM     19  C   UNL     1      -7.679 -14.120  17.068  0.00  0.00    +0.010 C 
ENDROOT
BRANCH  14   4
ATOM      3  O   UNL     1     -10.179 -12.513  20.324  0.00  0.00    -0.270 OA
ATOM      4  N   UNL     1      -8.173 -13.606  19.926  0.00  0.00    -0.308 N 
ATOM     22  C   UNL     1      -9.432 -13.474  20.486  0.00  0.00    +0.244 C 
ATOM     31  H   UNL     1      -7.569 -14.376  20.193  0.00  0.00    +0.149 HD
BRANCH  22  23
ATOM      6  N   UNL     1     -10.686 -16.699  23.007  0.00  0.00    -0.263 NA
ATOM     23  C   UNL     1      -9.868 -14.592  21.362  0.00  0.00    +0.040 A 
ATOM     27  C   UNL     1      -8.948 -15.236  22.182  0.00  0.00    +0.033 A 
ATOM     28  C   UNL     1     -11.197 -15.000  21.366  0.00  0.00    +0.033 A 
ATOM     29  C   UNL     1      -9.403 -16.274  22.979  0.00  0.00    +0.111 A 
ATOM     30  C   UNL     1     -11.553 -16.049  22.198  0.00  0.00    +0.111 A 
ENDBRANCH  22  23
ENDBRANCH  14   4
BRANCH  10   1
ATOM      1  O   UNL     1      -6.148 -13.204  14.918  0.00  0.00    -0.391 OA
ATOM     32  H   UNL     1      -5.764 -13.127  14.028  0.00  0.00    +0.210 HD
ENDBRANCH  10   1
BRANCH  13  18
ATOM     18  C   UNL     1      -3.692 -11.926  13.934  0.00  0.00    +0.077 C 
ATOM     20  C   UNL     1      -2.284 -11.359  14.069  0.00  0.00    +0.017 C 
BRANCH  18  21
ATOM      2  O   UNL     1      -5.112 -12.286  12.005  0.00  0.00    -0.276 OA
ATOM      5  N   UNL     1      -3.875 -10.328  12.121  0.00  0.00    -0.313 N 
ATOM     21  C   UNL     1      -4.313 -11.558  12.590  0.00  0.00    +0.216 C 
ATOM     33  H   UNL     1      -3.160  -9.827  12.640  0.00  0.00    +0.149 HD
BRANCH   5  24
ATOM     24  C   UNL     1      -4.321  -9.765  10.868  0.00  0.00    +0.067 C 
ATOM     25  C   UNL     1      -5.402  -8.718  11.106  0.00  0.00    +0.027 C 
ATOM     26  C   UNL     1      -3.142  -9.177  10.101  0.00  0.00    +0.027 C 
ENDBRANCH   5  24
ENDBRANCH  18  21
ENDBRANCH  13  18
TORSDOF 6
ENDMDL
MODEL 8
REMARK VINA RESULT:      -6.1     27.093     31.371
REMARK  Name = 45361564
REMARK  11 active torsions:
REMARK  status: ('A' for Active; 'I' for Inactive)
REMARK    1  A    between atoms: O_1  and  C_10
REMARK    2  A    between atoms: N_4  and  C_14
REMARK    3  A    between atoms: N_5  and  C_24
REMARK    4  A    between atoms: C_7  and  C_17
REMARK    5  A    between atoms: C_9  and  C_19
REMARK    6  A    between atoms: C_13  and  C_18
REMARK    7  A    between atoms: C_18  and  C_20
REMARK    8  A    between atoms: C_18  and  C_21
REMARK    9  A    between atoms: C_22  and  C_23
REMARK   10  A    between atoms: C_24  and  C_25
REMARK   11  A    between atoms: C_24  and  C_26
REMARK                            x       y       z     vdW  Elec       q    Type
REMARK                         _______ _______ _______ _____ _____    ______ ____
ROOT
ATOM      7  C   UNL     1      15.891   7.003  19.688  0.00  0.00    -0.027 C 
ATOM      8  C   UNL     1      16.166   8.543  19.692  0.00  0.00    +0.028 C 
ATOM      9  C   UNL     1      16.821   8.990  21.048  0.00  0.00    +0.012 C 
ATOM     10  C   UNL     1      14.900   9.342  19.266  0.00  0.00    +0.122 C 
ATOM     11  C   UNL     1      15.353   6.578  18.300  0.00  0.00    +0.007 C 
ATOM     12  C   UNL     1      17.222   6.252  19.925  0.00  0.00    +0.009 C 
ATOM     13  C   UNL     1      14.305   8.844  17.928  0.00  0.00    +0.029 C 
ATOM     14  C   UNL     1      18.119   8.177  21.312  0.00  0.00    +0.076 C 
ATOM     15  C   UNL     1      14.092   7.331  17.898  0.00  0.00    +0.007 C 
ATOM     16  C   UNL     1      17.919   6.664  21.214  0.00  0.00    +0.023 C 
ATOM     17  C   UNL     1      14.866   6.579  20.771  0.00  0.00    +0.011 C 
ATOM     19  C   UNL     1      17.145  10.493  21.109  0.00  0.00    +0.010 C 
ENDROOT
BRANCH  14   4
ATOM      3  O   UNL     1      20.900   8.115  22.023  0.00  0.00    -0.270 OA
ATOM      4  N   UNL     1      18.687   8.480  22.609  0.00  0.00    -0.308 N 
ATOM     22  C   UNL     1      20.049   8.421  22.853  0.00  0.00    +0.244 C 
ATOM     31  H   UNL     1      18.035   8.633  23.371  0.00  0.00    +0.149 HD
BRANCH  22  23
ATOM      6  N   UNL     1      21.266   9.329  26.855  0.00  0.00    -0.263 NA
ATOM     23  C   UNL     1      20.470   8.736  24.242  0.00  0.00    +0.040 A 
ATOM     27  C   UNL     1      20.668  10.057  24.629  0.00  0.00    +0.033 A 
ATOM     28  C   UNL     1      20.669   7.712  25.161  0.00  0.00    +0.033 A 
ATOM     29  C   UNL     1      21.062  10.299  25.935  0.00  0.00    +0.111 A 
ATOM     30  C   UNL     1      21.063   8.058  26.443  0.00  0.00    +0.111 A 
ENDBRANCH  22  23
ENDBRANCH  14   4
BRANCH  10   1
ATOM      1  O   UNL     1      15.246  10.714  19.073  0.00  0.00    -0.391 OA
ATOM     32  H   UNL     1      15.185  10.910  18.122  0.00  0.00    +0.210 HD
ENDBRANCH  10   1
BRANCH  13  18
ATOM     18  C   UNL     1      12.988   9.555  17.592  0.00  0.00    +0.077 C 
ATOM     20  C   UNL     1      11.814   8.604  17.790  0.00  0.00    +0.017 C 
BRANCH  18  21
ATOM      2  O   UNL     1      12.419   9.566  15.237  0.00  0.00    -0.276 OA
ATOM      5  N   UNL     1      13.845  11.209  16.042  0.00  0.00    -0.313 N 
ATOM     21  C   UNL     1      13.036  10.088  16.163  0.00  0.00    +0.216 C 
ATOM     33  H   UNL     1      14.371  11.529  16.850  0.00  0.00    +0.149 HD
BRANCH   5  24
ATOM     24  C   UNL     1      14.050  11.892  14.786  0.00  0.00    +0.067 C 
ATOM     25  C   UNL     1      14.029  13.402  14.989  0.00  0.00    +0.027 C 
ATOM     26  C   UNL     1      15.355  11.440  14.143  0.00  0.00    +0.027 C 
ENDBRANCH   5  24
ENDBRANCH  18  21
ENDBRANCH  13  18
TORSDOF 6
ENDMDL
MODEL 9
REMARK VINA RESULT:      -5.9      7.777     11.852
REMARK  Name = 45361564
REMARK  11 active torsions:
REMARK  status: ('A' for Active; 'I' for Inactive)
REMARK    1  A    between atoms: O_1  and  C_10
REMARK    2  A    between atoms: N_4  and  C_14
REMARK    3  A    between atoms: N_5  and  C_24
REMARK    4  A    between atoms: C_7  and  C_17
REMARK    5  A    between atoms: C_9  and  C_19
REMARK    6  A    between atoms: C_13  and  C_18
REMARK    7  A    between atoms: C_18  and  C_20
REMARK    8  A    between atoms: C_18  and  C_21
REMARK    9  A    between atoms: C_22  and  C_23
REMARK   10  A    between atoms: C_24  and  C_25
REMARK   11  A    between atoms: C_24  and  C_26
REMARK                            x       y       z     vdW  Elec       q    Type
REMARK                         _______ _______ _______ _____ _____    ______ ____
ROOT
ATOM      7  C   UNL     1     -14.822   2.298  31.404  0.00  0.00    -0.027 C 
ATOM      8  C   UNL     1     -16.266   2.854  31.173  0.00  0.00    +0.028 C 
ATOM      9  C   UNL     1     -16.571   2.997  29.637  0.00  0.00    +0.012 C 
ATOM     10  C   UNL     1     -16.522   4.131  32.025  0.00  0.00    +0.122 C 
ATOM     11  C   UNL     1     -14.596   2.064  32.917  0.00  0.00    +0.007 C 
ATOM     12  C   UNL     1     -14.687   0.932  30.692  0.00  0.00    +0.009 C 
ATOM     13  C   UNL     1     -16.194   3.920  33.522  0.00  0.00    +0.029 C 
ATOM     14  C   UNL     1     -16.360   1.634  28.919  0.00  0.00    +0.076 C 
ATOM     15  C   UNL     1     -14.807   3.321  33.750  0.00  0.00    +0.007 C 
ATOM     16  C   UNL     1     -14.997   1.002  29.203  0.00  0.00    +0.023 C 
ATOM     17  C   UNL     1     -13.724   3.258  30.879  0.00  0.00    +0.011 C 
ATOM     19  C   UNL     1     -17.988   3.513  29.337  0.00  0.00    +0.010 C 
ENDROOT
BRANCH  14   4
ATOM      3  O   UNL     1     -18.083   0.060  27.247  0.00  0.00    -0.270 OA
ATOM      4  N   UNL     1     -16.520   1.755  27.485  0.00  0.00    -0.308 N 
ATOM     22  C   UNL     1     -17.381   0.943  26.766  0.00  0.00    +0.244 C 
ATOM     31  H   UNL     1     -15.889   2.388  27.005  0.00  0.00    +0.149 HD
BRANCH  22  23
ATOM      6  N   UNL     1     -17.470   1.615  22.539  0.00  0.00    -0.263 NA
ATOM     23  C   UNL     1     -17.410   1.175  25.298  0.00  0.00    +0.040 A 
ATOM     27  C   UNL     1     -16.822   2.314  24.760  0.00  0.00    +0.033 A 
ATOM     28  C   UNL     1     -18.027   0.256  24.458  0.00  0.00    +0.033 A 
ATOM     29  C   UNL     1     -16.878   2.486  23.386  0.00  0.00    +0.111 A 
ATOM     30  C   UNL     1     -18.031   0.519  23.098  0.00  0.00    +0.111 A 
ENDBRANCH  22  23
ENDBRANCH  14   4
BRANCH  10   1
ATOM      1  O   UNL     1     -17.904   4.481  31.956  0.00  0.00    -0.391 OA
ATOM     32  H   UNL     1     -18.111   4.714  31.035  0.00  0.00    +0.210 HD
ENDBRANCH  10   1
BRANCH  13  18
ATOM     18  C   UNL     1     -16.327   5.223  34.322  0.00  0.00    +0.077 C 
ATOM     20  C   UNL     1     -17.730   5.337  34.908  0.00  0.00    +0.017 C 
BRANCH  18  21
ATOM      2  O   UNL     1     -16.836   6.958  32.709  0.00  0.00    -0.276 OA
ATOM      5  N   UNL     1     -14.671   6.804  33.527  0.00  0.00    -0.313 N 
ATOM     21  C   UNL     1     -16.000   6.416  33.429  0.00  0.00    +0.216 C 
ATOM     33  H   UNL     1     -14.036   6.253  34.097  0.00  0.00    +0.149 HD
BRANCH   5  24
ATOM     24  C   UNL     1     -14.123   7.909  32.777  0.00  0.00    +0.067 C 
ATOM     25  C   UNL     1     -14.334   9.221  33.522  0.00  0.00    +0.027 C 
ATOM     26  C   UNL     1     -12.645   7.671  32.487  0.00  0.00    +0.027 C 
ENDBRANCH   5  24
ENDBRANCH  18  21
ENDBRANCH  13  18
TORSDOF 6
ENDMDL
MODEL 10
REMARK VINA RESULT:      -5.8     19.119     22.657
REMARK  Name = 45361564
REMARK  11 active torsions:
REMARK  status: ('A' for Active; 'I' for Inactive)
REMARK    1  A    between atoms: O_1  and  C_10
REMARK    2  A    between atoms: N_4  and  C_14
REMARK    3  A    between atoms: N_5  and  C_24
REMARK    4  A    between atoms: C_7  and  C_17
REMARK    5  A    between atoms: C_9  and  C_19
REMARK    6  A    between atoms: C_13  and  C_18
REMARK    7  A    between atoms: C_18  and  C_20
REMARK    8  A    between atoms: C_18  and  C_21
REMARK    9  A    between atoms: C_22  and  C_23
REMARK   10  A    between atoms: C_24  and  C_25
REMARK   11  A    between atoms: C_24  and  C_26
REMARK                            x       y       z     vdW  Elec       q    Type
REMARK                         _______ _______ _______ _____ _____    ______ ____
ROOT
ATOM      7  C   UNL     1      -6.333 -11.142  18.115  0.00  0.00    -0.027 C 
ATOM      8  C   UNL     1      -6.888 -12.185  17.090  0.00  0.00    +0.028 C 
ATOM      9  C   UNL     1      -6.838 -11.613  15.627  0.00  0.00    +0.012 C 
ATOM     10  C   UNL     1      -8.269 -12.740  17.543  0.00  0.00    +0.122 C 
ATOM     11  C   UNL     1      -6.291 -11.777  19.526  0.00  0.00    +0.007 C 
ATOM     12  C   UNL     1      -4.884 -10.771  17.723  0.00  0.00    +0.009 C 
ATOM     13  C   UNL     1      -8.246 -13.279  18.993  0.00  0.00    +0.029 C 
ATOM     14  C   UNL     1      -5.390 -11.175  15.271  0.00  0.00    +0.076 C 
ATOM     15  C   UNL     1      -7.649 -12.286  19.988  0.00  0.00    +0.007 C 
ATOM     16  C   UNL     1      -4.768 -10.234  16.303  0.00  0.00    +0.023 C 
ATOM     17  C   UNL     1      -7.191  -9.853  18.175  0.00  0.00    +0.011 C 
ATOM     19  C   UNL     1      -7.345 -12.600  14.562  0.00  0.00    +0.010 C 
ENDROOT
BRANCH  14   4
ATOM      3  O   UNL     1      -3.262 -11.385  13.355  0.00  0.00    -0.270 OA
ATOM      4  N   UNL     1      -5.328 -10.535  13.972  0.00  0.00    -0.308 N 
ATOM     22  C   UNL     1      -4.252 -10.700  13.117  0.00  0.00    +0.244 C 
ATOM     31  H   UNL     1      -6.060  -9.866  13.756  0.00  0.00    +0.149 HD
BRANCH  22  23
ATOM      6  N   UNL     1      -4.471  -8.552   9.421  0.00  0.00    -0.263 NA
ATOM     23  C   UNL     1      -4.329  -9.956  11.834  0.00  0.00    +0.040 A 
ATOM     27  C   UNL     1      -3.239  -9.938  10.971  0.00  0.00    +0.033 A 
ATOM     28  C   UNL     1      -5.490  -9.273  11.490  0.00  0.00    +0.033 A 
ATOM     29  C   UNL     1      -3.359  -9.228   9.787  0.00  0.00    +0.111 A 
ATOM     30  C   UNL     1      -5.511  -8.592  10.284  0.00  0.00    +0.111 A 
ENDBRANCH  22  23
ENDBRANCH  14   4
BRANCH  10   1
ATOM      1  O   UNL     1      -8.641 -13.836  16.706  0.00  0.00    -0.391 OA
ATOM     32  H   UNL     1      -9.293 -13.516  16.060  0.00  0.00    +0.210 HD
ENDBRANCH  10   1
BRANCH  13  18
ATOM     18  C   UNL     1      -9.644 -13.701  19.464  0.00  0.00    +0.077 C 
ATOM     20  C   UNL     1     -10.373 -12.510  20.075  0.00  0.00    +0.017 C 
BRANCH  18  21
ATOM      2  O   UNL     1      -9.213 -15.992  20.123  0.00  0.00    -0.276 OA
ATOM      5  N   UNL     1      -9.824 -14.464  21.758  0.00  0.00    -0.313 N 
ATOM     21  C   UNL     1      -9.531 -14.853  20.459  0.00  0.00    +0.216 C 
ATOM     33  H   UNL     1     -10.145 -13.516  21.929  0.00  0.00    +0.149 HD
BRANCH   5  24
ATOM     24  C   UNL     1      -9.787 -15.379  22.874  0.00  0.00    +0.067 C 
ATOM     25  C   UNL     1      -8.398 -15.405  23.500  0.00  0.00    +0.027 C 
ATOM     26  C   UNL     1     -10.848 -15.005  23.902  0.00  0.00    +0.027 C 
ENDBRANCH   5  24
ENDBRANCH  18  21
ENDBRANCH  13  18
TORSDOF 6
ENDMDL
