MODEL 1
REMARK VINA RESULT:      -8.3      0.000      0.000
REMARK  Name = 11913309
REMARK  7 active torsions:
REMARK  status: ('A' for Active; 'I' for Inactive)
REMARK    1  A    between atoms: O_4  and  C_17
REMARK    2  A    between atoms: O_4  and  C_22
REMARK    3  A    between atoms: N_5  and  C_12
REMARK    4  A    between atoms: N_6  and  C_11
REMARK    5  A    between atoms: C_15  and  C_17
REMARK    6  A    between atoms: C_18  and  C_21
REMARK    7  A    between atoms: C_25  and  C_28
REMARK                            x       y       z     vdW  Elec       q    Type
REMARK                         _______ _______ _______ _____ _____    ______ ____
ROOT
ATOM      6  N   UNL     1      11.372   9.176  20.579  0.00  0.00    -0.306 N 
ATOM      7  N   UNL     1      13.427   8.155  20.092  0.00  0.00    -0.214 NA
ATOM      8  N   UNL     1      11.672   8.251  18.444  0.00  0.00    -0.223 NA
ATOM     16  C   UNL     1      12.181   8.507  19.678  0.00  0.00    +0.216 A 
ATOM     18  C   UNL     1      14.189   7.504  19.188  0.00  0.00    +0.076 A 
ATOM     19  C   UNL     1      12.488   7.598  17.591  0.00  0.00    +0.116 A 
ATOM     20  C   UNL     1      13.768   7.196  17.911  0.00  0.00    +0.048 A 
ATOM     35  H   UNL     1      10.427   9.388  20.279  0.00  0.00    +0.149 HD
ENDROOT
BRANCH   6  11
ATOM      1  O   UNL     1      12.809  11.648  21.766  0.00  0.00    -0.370 OA
ATOM      2  O   UNL     1      10.892  10.502  23.947  0.00  0.00    -0.370 OA
ATOM      9  C   UNL     1      10.839  10.539  22.511  0.00  0.00    +0.171 C 
ATOM     10  C   UNL     1      11.421  11.868  22.072  0.00  0.00    +0.171 C 
ATOM     11  C   UNL     1      11.780   9.512  21.925  0.00  0.00    +0.130 C 
ATOM     12  C   UNL     1      11.286  12.749  23.293  0.00  0.00    +0.130 C 
ATOM     13  C   UNL     1      13.107  10.251  21.904  0.00  0.00    +0.185 C 
ATOM     14  C   UNL     1      11.410  11.751  24.429  0.00  0.00    +0.185 C 
BRANCH  12   5
ATOM      3  O   UNL     1      10.707  15.476  22.501  0.00  0.00    -0.273 OA
ATOM      5  N   UNL     1      10.006  13.414  23.318  0.00  0.00    -0.306 N 
ATOM     15  C   UNL     1       9.825  14.731  22.917  0.00  0.00    +0.239 C 
ATOM     34  H   UNL     1       9.192  12.871  23.595  0.00  0.00    +0.149 HD
BRANCH  15  17
ATOM     17  C   UNL     1       8.381  15.164  23.048  0.00  0.00    +0.255 C 
BRANCH  17   4
ATOM      4  O   UNL     1       7.674  14.914  21.851  0.00  0.00    -0.374 OA
ATOM     22  C   UNL     1       6.354  15.445  21.894  0.00  0.00    +0.194 C 
ENDBRANCH  17   4
ENDBRANCH  15  17
ENDBRANCH  12   5
ENDBRANCH   6  11
BRANCH  18  21
ATOM     21  C   UNL     1      15.507   7.137  19.649  0.00  0.00    +0.001 A 
ATOM     23  C   UNL     1      16.014   7.681  20.831  0.00  0.00    +0.010 A 
ATOM     24  C   UNL     1      16.280   6.235  18.914  0.00  0.00    +0.010 A 
ATOM     25  C   UNL     1      18.057   6.426  20.540  0.00  0.00    -0.018 A 
ATOM     26  C   UNL     1      17.286   7.326  21.276  0.00  0.00    +0.009 A 
ATOM     27  C   UNL     1      17.554   5.880  19.359  0.00  0.00    +0.009 A 
BRANCH  25  28
ATOM     28  C   UNL     1      19.378   6.059  21.002  0.00  0.00    -0.018 A 
ATOM     29  C   UNL     1      19.884   6.610  22.178  0.00  0.00    +0.008 A 
ATOM     30  C   UNL     1      20.146   5.153  20.270  0.00  0.00    +0.008 A 
ATOM     31  C   UNL     1      21.158   6.257  22.624  0.00  0.00    +0.001 A 
ATOM     32  C   UNL     1      21.419   4.798  20.715  0.00  0.00    +0.001 A 
ATOM     33  C   UNL     1      21.925   5.351  21.892  0.00  0.00    +0.000 A 
ENDBRANCH  25  28
ENDBRANCH  18  21
TORSDOF 6
ENDMDL
MODEL 2
REMARK VINA RESULT:      -7.6      4.265      6.499
REMARK  Name = 11913309
REMARK  7 active torsions:
REMARK  status: ('A' for Active; 'I' for Inactive)
REMARK    1  A    between atoms: O_4  and  C_17
REMARK    2  A    between atoms: O_4  and  C_22
REMARK    3  A    between atoms: N_5  and  C_12
REMARK    4  A    between atoms: N_6  and  C_11
REMARK    5  A    between atoms: C_15  and  C_17
REMARK    6  A    between atoms: C_18  and  C_21
REMARK    7  A    between atoms: C_25  and  C_28
REMARK                            x       y       z     vdW  Elec       q    Type
REMARK                         _______ _______ _______ _____ _____    ______ ____
ROOT
ATOM      6  N   UNL     1      16.379   9.512  21.423  0.00  0.00    -0.306 N 
ATOM      7  N   UNL     1      18.435   8.426  21.728  0.00  0.00    -0.214 NA
ATOM      8  N   UNL     1      18.269  10.825  21.878  0.00  0.00    -0.223 NA
ATOM     16  C   UNL     1      17.735   9.590  21.685  0.00  0.00    +0.216 A 
ATOM     18  C   UNL     1      19.756   8.538  21.986  0.00  0.00    +0.076 A 
ATOM     19  C   UNL     1      19.594  10.864  22.131  0.00  0.00    +0.116 A 
ATOM     20  C   UNL     1      20.395   9.742  22.197  0.00  0.00    +0.048 A 
ATOM     35  H   UNL     1      15.876  10.389  21.341  0.00  0.00    +0.149 HD
ENDROOT
BRANCH   6  11
ATOM      1  O   UNL     1      13.370   8.786  21.413  0.00  0.00    -0.370 OA
ATOM      2  O   UNL     1      14.823   6.922  19.374  0.00  0.00    -0.370 OA
ATOM      9  C   UNL     1      15.058   8.269  19.817  0.00  0.00    +0.171 C 
ATOM     10  C   UNL     1      13.703   8.919  20.020  0.00  0.00    +0.171 C 
ATOM     11  C   UNL     1      15.678   8.268  21.194  0.00  0.00    +0.130 C 
ATOM     12  C   UNL     1      12.766   8.088  19.174  0.00  0.00    +0.130 C 
ATOM     13  C   UNL     1      14.467   8.171  22.105  0.00  0.00    +0.185 C 
ATOM     14  C   UNL     1      13.410   6.715  19.228  0.00  0.00    +0.185 C 
BRANCH  12   5
ATOM      3  O   UNL     1      10.409   8.383  17.513  0.00  0.00    -0.273 OA
ATOM      5  N   UNL     1      12.707   8.585  17.821  0.00  0.00    -0.306 N 
ATOM     15  C   UNL     1      11.524   8.690  17.100  0.00  0.00    +0.239 C 
ATOM     34  H   UNL     1      13.568   8.920  17.398  0.00  0.00    +0.149 HD
BRANCH  15  17
ATOM     17  C   UNL     1      11.760   9.242  15.711  0.00  0.00    +0.255 C 
BRANCH  17   4
ATOM      4  O   UNL     1      13.113   9.091  15.338  0.00  0.00    -0.374 OA
ATOM     22  C   UNL     1      13.787  10.344  15.267  0.00  0.00    +0.194 C 
ENDBRANCH  17   4
ENDBRANCH  15  17
ENDBRANCH  12   5
ENDBRANCH   6  11
BRANCH  18  21
ATOM     21  C   UNL     1      20.481   7.291  22.026  0.00  0.00    +0.001 A 
ATOM     23  C   UNL     1      20.507   6.458  20.904  0.00  0.00    +0.010 A 
ATOM     24  C   UNL     1      21.161   6.913  23.185  0.00  0.00    +0.010 A 
ATOM     25  C   UNL     1      21.885   4.878  22.103  0.00  0.00    -0.018 A 
ATOM     26  C   UNL     1      21.207   5.254  20.943  0.00  0.00    +0.009 A 
ATOM     27  C   UNL     1      21.862   5.707  23.224  0.00  0.00    +0.009 A 
BRANCH  25  28
ATOM     28  C   UNL     1      22.612   3.627  22.142  0.00  0.00    -0.018 A 
ATOM     29  C   UNL     1      22.843   2.993  23.362  0.00  0.00    +0.008 A 
ATOM     30  C   UNL     1      23.081   3.055  20.959  0.00  0.00    +0.008 A 
ATOM     31  C   UNL     1      23.543   1.788  23.402  0.00  0.00    +0.001 A 
ATOM     32  C   UNL     1      23.780   1.849  20.997  0.00  0.00    +0.001 A 
ATOM     33  C   UNL     1      24.012   1.215  22.219  0.00  0.00    +0.000 A 
ENDBRANCH  25  28
ENDBRANCH  18  21
TORSDOF 6
ENDMDL
MODEL 3
REMARK VINA RESULT:      -7.4      7.676     10.669
REMARK  Name = 11913309
REMARK  7 active torsions:
REMARK  status: ('A' for Active; 'I' for Inactive)
REMARK    1  A    between atoms: O_4  and  C_17
REMARK    2  A    between atoms: O_4  and  C_22
REMARK    3  A    between atoms: N_5  and  C_12
REMARK    4  A    between atoms: N_6  and  C_11
REMARK    5  A    between atoms: C_15  and  C_17
REMARK    6  A    between atoms: C_18  and  C_21
REMARK    7  A    between atoms: C_25  and  C_28
REMARK                            x       y       z     vdW  Elec       q    Type
REMARK                         _______ _______ _______ _____ _____    ______ ____
ROOT
ATOM      6  N   UNL     1      13.154  13.074  12.212  0.00  0.00    -0.306 N 
ATOM      7  N   UNL     1      13.531  11.735  14.101  0.00  0.00    -0.214 NA
ATOM      8  N   UNL     1      15.364  12.467  12.719  0.00  0.00    -0.223 NA
ATOM     16  C   UNL     1      14.044  12.405  13.035  0.00  0.00    +0.216 A 
ATOM     18  C   UNL     1      14.426  11.094  14.882  0.00  0.00    +0.076 A 
ATOM     19  C   UNL     1      16.202  11.805  13.543  0.00  0.00    +0.116 A 
ATOM     20  C   UNL     1      15.785  11.094  14.649  0.00  0.00    +0.048 A 
ATOM     35  H   UNL     1      13.541  13.527  11.392  0.00  0.00    +0.149 HD
ENDROOT
BRANCH   6  11
ATOM      1  O   UNL     1      10.806  14.154  10.509  0.00  0.00    -0.370 OA
ATOM      2  O   UNL     1       9.779  11.685  12.119  0.00  0.00    -0.370 OA
ATOM      9  C   UNL     1      11.060  12.039  11.571  0.00  0.00    +0.171 C 
ATOM     10  C   UNL     1      10.806  12.740  10.250  0.00  0.00    +0.171 C 
ATOM     11  C   UNL     1      11.724  13.092  12.426  0.00  0.00    +0.130 C 
ATOM     12  C   UNL     1       9.423  12.279   9.849  0.00  0.00    +0.130 C 
ATOM     13  C   UNL     1      11.129  14.382  11.889  0.00  0.00    +0.185 C 
ATOM     14  C   UNL     1       8.751  12.064  11.193  0.00  0.00    +0.185 C 
BRANCH  12   5
ATOM      3  O   UNL     1       9.417  11.996   6.965  0.00  0.00    -0.273 OA
ATOM      5  N   UNL     1       9.481  11.053   9.091  0.00  0.00    -0.306 N 
ATOM     15  C   UNL     1       9.472  11.017   7.703  0.00  0.00    +0.239 C 
ATOM     34  H   UNL     1       9.585  10.181   9.602  0.00  0.00    +0.149 HD
BRANCH  15  17
ATOM     17  C   UNL     1       9.543   9.599   7.178  0.00  0.00    +0.255 C 
BRANCH  17   4
ATOM      4  O   UNL     1       9.001   8.693   8.116  0.00  0.00    -0.374 OA
ATOM     22  C   UNL     1       9.110   7.343   7.673  0.00  0.00    +0.194 C 
ENDBRANCH  17   4
ENDBRANCH  15  17
ENDBRANCH  12   5
ENDBRANCH   6  11
BRANCH  18  21
ATOM     21  C   UNL     1      13.861  10.386  16.007  0.00  0.00    +0.001 A 
ATOM     23  C   UNL     1      12.666   9.678  15.861  0.00  0.00    +0.010 A 
ATOM     24  C   UNL     1      14.509  10.404  17.244  0.00  0.00    +0.010 A 
ATOM     25  C   UNL     1      12.769   9.015  18.182  0.00  0.00    -0.018 A 
ATOM     26  C   UNL     1      12.121   8.994  16.947  0.00  0.00    +0.009 A 
ATOM     27  C   UNL     1      13.964   9.720  18.330  0.00  0.00    +0.009 A 
BRANCH  25  28
ATOM     28  C   UNL     1      12.203   8.306  19.309  0.00  0.00    -0.018 A 
ATOM     29  C   UNL     1      12.650   7.023  19.621  0.00  0.00    +0.008 A 
ATOM     30  C   UNL     1      11.209   8.906  20.083  0.00  0.00    +0.008 A 
ATOM     31  C   UNL     1      12.104   6.338  20.707  0.00  0.00    +0.001 A 
ATOM     32  C   UNL     1      10.663   8.222  21.169  0.00  0.00    +0.001 A 
ATOM     33  C   UNL     1      11.111   6.938  21.481  0.00  0.00    +0.000 A 
ENDBRANCH  25  28
ENDBRANCH  18  21
TORSDOF 6
ENDMDL
MODEL 4
REMARK VINA RESULT:      -7.3     24.220     28.714
REMARK  Name = 11913309
REMARK  7 active torsions:
REMARK  status: ('A' for Active; 'I' for Inactive)
REMARK    1  A    between atoms: O_4  and  C_17
REMARK    2  A    between atoms: O_4  and  C_22
REMARK    3  A    between atoms: N_5  and  C_12
REMARK    4  A    between atoms: N_6  and  C_11
REMARK    5  A    between atoms: C_15  and  C_17
REMARK    6  A    between atoms: C_18  and  C_21
REMARK    7  A    between atoms: C_25  and  C_28
REMARK                            x       y       z     vdW  Elec       q    Type
REMARK                         _______ _______ _______ _____ _____    ______ ____
ROOT
ATOM      6  N   UNL     1       7.813   6.250  -4.208  0.00  0.00    -0.306 N 
ATOM      7  N   UNL     1       5.599   5.598  -4.629  0.00  0.00    -0.214 NA
ATOM      8  N   UNL     1       6.110   7.833  -3.888  0.00  0.00    -0.223 NA
ATOM     16  C   UNL     1       6.467   6.570  -4.243  0.00  0.00    +0.216 A 
ATOM     18  C   UNL     1       4.294   5.944  -4.653  0.00  0.00    +0.076 A 
ATOM     19  C   UNL     1       4.791   8.111  -3.935  0.00  0.00    +0.116 A 
ATOM     20  C   UNL     1       3.828   7.197  -4.312  0.00  0.00    +0.048 A 
ATOM     35  H   UNL     1       8.446   6.965  -3.868  0.00  0.00    +0.149 HD
ENDROOT
BRANCH   6  11
ATOM      1  O   UNL     1      10.663   5.263  -4.902  0.00  0.00    -0.370 OA
ATOM      2  O   UNL     1       9.144   2.925  -3.500  0.00  0.00    -0.370 OA
ATOM      9  C   UNL     1       9.076   4.355  -3.379  0.00  0.00    +0.171 C 
ATOM     10  C   UNL     1      10.488   4.888  -3.525  0.00  0.00    +0.171 C 
ATOM     11  C   UNL     1       8.335   4.947  -4.555  0.00  0.00    +0.130 C 
ATOM     12  C   UNL     1      11.364   3.703  -3.187  0.00  0.00    +0.130 C 
ATOM     13  C   UNL     1       9.425   5.079  -5.603  0.00  0.00    +0.185 C 
ATOM     14  C   UNL     1      10.517   2.531  -3.647  0.00  0.00    +0.185 C 
BRANCH  12   5
ATOM      3  O   UNL     1      13.944   3.821  -1.872  0.00  0.00    -0.273 OA
ATOM      5  N   UNL     1      11.627   3.635  -1.770  0.00  0.00    -0.306 N 
ATOM     15  C   UNL     1      12.904   3.700  -1.230  0.00  0.00    +0.239 C 
ATOM     34  H   UNL     1      10.831   3.589  -1.140  0.00  0.00    +0.149 HD
BRANCH  15  17
ATOM     17  C   UNL     1      12.880   3.605   0.280  0.00  0.00    +0.255 C 
BRANCH  17   4
ATOM      4  O   UNL     1      13.923   4.372   0.844  0.00  0.00    -0.374 OA
ATOM     22  C   UNL     1      14.844   3.564   1.569  0.00  0.00    +0.194 C 
ENDBRANCH  17   4
ENDBRANCH  15  17
ENDBRANCH  12   5
ENDBRANCH   6  11
BRANCH  18  21
ATOM     21  C   UNL     1       3.389   4.897  -5.064  0.00  0.00    +0.001 A 
ATOM     23  C   UNL     1       2.203   4.680  -4.360  0.00  0.00    +0.010 A 
ATOM     24  C   UNL     1       3.697   4.099  -6.168  0.00  0.00    +0.010 A 
ATOM     25  C   UNL     1       1.638   2.872  -5.860  0.00  0.00    -0.018 A 
ATOM     26  C   UNL     1       1.329   3.669  -4.757  0.00  0.00    +0.009 A 
ATOM     27  C   UNL     1       2.822   3.087  -6.565  0.00  0.00    +0.009 A 
BRANCH  25  28
ATOM     28  C   UNL     1       0.731   1.822  -6.271  0.00  0.00    -0.018 A 
ATOM     29  C   UNL     1       0.081   1.905  -7.501  0.00  0.00    +0.008 A 
ATOM     30  C   UNL     1       0.507   0.727  -5.436  0.00  0.00    +0.008 A 
ATOM     31  C   UNL     1      -0.794   0.894  -7.899  0.00  0.00    +0.001 A 
ATOM     32  C   UNL     1      -0.367  -0.284  -5.833  0.00  0.00    +0.001 A 
ATOM     33  C   UNL     1      -1.018  -0.201  -7.064  0.00  0.00    +0.000 A 
ENDBRANCH  25  28
ENDBRANCH  18  21
TORSDOF 6
ENDMDL
MODEL 5
REMARK VINA RESULT:      -7.1     17.134     21.904
REMARK  Name = 11913309
REMARK  7 active torsions:
REMARK  status: ('A' for Active; 'I' for Inactive)
REMARK    1  A    between atoms: O_4  and  C_17
REMARK    2  A    between atoms: O_4  and  C_22
REMARK    3  A    between atoms: N_5  and  C_12
REMARK    4  A    between atoms: N_6  and  C_11
REMARK    5  A    between atoms: C_15  and  C_17
REMARK    6  A    between atoms: C_18  and  C_21
REMARK    7  A    between atoms: C_25  and  C_28
REMARK                            x       y       z     vdW  Elec       q    Type
REMARK                         _______ _______ _______ _____ _____    ______ ____
ROOT
ATOM      6  N   UNL     1       4.319  13.298   5.632  0.00  0.00    -0.306 N 
ATOM      7  N   UNL     1       2.198  12.413   6.099  0.00  0.00    -0.214 NA
ATOM      8  N   UNL     1       3.283  13.906   7.648  0.00  0.00    -0.223 NA
ATOM     16  C   UNL     1       3.234  13.203   6.486  0.00  0.00    +0.216 A 
ATOM     18  C   UNL     1       1.156  12.343   6.954  0.00  0.00    +0.076 A 
ATOM     19  C   UNL     1       2.208  13.790   8.456  0.00  0.00    +0.116 A 
ATOM     20  C   UNL     1       1.106  13.015   8.158  0.00  0.00    +0.048 A 
ATOM     35  H   UNL     1       5.109  13.847   5.953  0.00  0.00    +0.149 HD
ENDROOT
BRANCH   6  11
ATOM      1  O   UNL     1       6.713  12.596   3.799  0.00  0.00    -0.370 OA
ATOM      2  O   UNL     1       4.561  10.357   3.483  0.00  0.00    -0.370 OA
ATOM      9  C   UNL     1       4.942  11.208   4.576  0.00  0.00    +0.171 C 
ATOM     10  C   UNL     1       6.448  11.376   4.513  0.00  0.00    +0.171 C 
ATOM     11  C   UNL     1       4.406  12.604   4.366  0.00  0.00    +0.130 C 
ATOM     12  C   UNL     1       6.917  10.184   3.709  0.00  0.00    +0.130 C 
ATOM     13  C   UNL     1       5.468  13.241   3.489  0.00  0.00    +0.185 C 
ATOM     14  C   UNL     1       5.741   9.934   2.783  0.00  0.00    +0.185 C 
BRANCH  12   5
ATOM      3  O   UNL     1       9.459   8.887   4.210  0.00  0.00    -0.273 OA
ATOM      5  N   UNL     1       7.165   9.046   4.560  0.00  0.00    -0.306 N 
ATOM     15  C   UNL     1       8.425   8.490   4.738  0.00  0.00    +0.239 C 
ATOM     34  H   UNL     1       6.385   8.669   5.091  0.00  0.00    +0.149 HD
BRANCH  15  17
ATOM     17  C   UNL     1       8.388   7.309   5.683  0.00  0.00    +0.255 C 
BRANCH  17   4
ATOM      4  O   UNL     1       7.916   7.702   6.954  0.00  0.00    -0.374 OA
ATOM     22  C   UNL     1       8.980   8.082   7.822  0.00  0.00    +0.194 C 
ENDBRANCH  17   4
ENDBRANCH  15  17
ENDBRANCH  12   5
ENDBRANCH   6  11
BRANCH  18  21
ATOM     21  C   UNL     1       0.067  11.497   6.526  0.00  0.00    +0.001 A 
ATOM     23  C   UNL     1      -0.285  11.437   5.176  0.00  0.00    +0.010 A 
ATOM     24  C   UNL     1      -0.637  10.735   7.460  0.00  0.00    +0.010 A 
ATOM     25  C   UNL     1      -2.039   9.861   5.698  0.00  0.00    -0.018 A 
ATOM     26  C   UNL     1      -1.336  10.620   4.763  0.00  0.00    +0.009 A 
ATOM     27  C   UNL     1      -1.689   9.917   7.047  0.00  0.00    +0.009 A 
BRANCH  25  28
ATOM     28  C   UNL     1      -3.131   9.013   5.268  0.00  0.00    -0.018 A 
ATOM     29  C   UNL     1      -3.107   7.648   5.550  0.00  0.00    +0.008 A 
ATOM     30  C   UNL     1      -4.208   9.563   4.572  0.00  0.00    +0.008 A 
ATOM     31  C   UNL     1      -4.159   6.831   5.136  0.00  0.00    +0.001 A 
ATOM     32  C   UNL     1      -5.261   8.747   4.159  0.00  0.00    +0.001 A 
ATOM     33  C   UNL     1      -5.236   7.380   4.440  0.00  0.00    +0.000 A 
ENDBRANCH  25  28
ENDBRANCH  18  21
TORSDOF 6
ENDMDL
MODEL 6
REMARK VINA RESULT:      -7.0      4.808      8.002
REMARK  Name = 11913309
REMARK  7 active torsions:
REMARK  status: ('A' for Active; 'I' for Inactive)
REMARK    1  A    between atoms: O_4  and  C_17
REMARK    2  A    between atoms: O_4  and  C_22
REMARK    3  A    between atoms: N_5  and  C_12
REMARK    4  A    between atoms: N_6  and  C_11
REMARK    5  A    between atoms: C_15  and  C_17
REMARK    6  A    between atoms: C_18  and  C_21
REMARK    7  A    between atoms: C_25  and  C_28
REMARK                            x       y       z     vdW  Elec       q    Type
REMARK                         _______ _______ _______ _____ _____    ______ ____
ROOT
ATOM      6  N   UNL     1      10.994   8.322  19.203  0.00  0.00    -0.306 N 
ATOM      7  N   UNL     1      12.488   9.452  17.791  0.00  0.00    -0.214 NA
ATOM      8  N   UNL     1      10.543   8.343  16.900  0.00  0.00    -0.223 NA
ATOM     16  C   UNL     1      11.352   8.718  17.926  0.00  0.00    +0.216 A 
ATOM     18  C   UNL     1      12.808   9.822  16.533  0.00  0.00    +0.076 A 
ATOM     19  C   UNL     1      10.922   8.747  15.669  0.00  0.00    +0.116 A 
ATOM     20  C   UNL     1      12.056   9.494  15.424  0.00  0.00    +0.048 A 
ATOM     35  H   UNL     1      10.175   7.730  19.287  0.00  0.00    +0.149 HD
ENDROOT
BRANCH   6  11
ATOM      1  O   UNL     1      12.296   6.558  21.388  0.00  0.00    -0.370 OA
ATOM      2  O   UNL     1      14.036   9.127  21.054  0.00  0.00    -0.370 OA
ATOM      9  C   UNL     1      13.226   8.362  20.146  0.00  0.00    +0.171 C 
ATOM     10  C   UNL     1      13.388   6.902  20.518  0.00  0.00    +0.171 C 
ATOM     11  C   UNL     1      11.761   8.644  20.385  0.00  0.00    +0.130 C 
ATOM     12  C   UNL     1      14.696   6.858  21.276  0.00  0.00    +0.130 C 
ATOM     13  C   UNL     1      11.417   7.686  21.512  0.00  0.00    +0.185 C 
ATOM     14  C   UNL     1      14.741   8.229  21.924  0.00  0.00    +0.185 C 
BRANCH  12   5
ATOM      3  O   UNL     1      17.451   6.316  21.992  0.00  0.00    -0.273 OA
ATOM      5  N   UNL     1      15.811   6.666  20.380  0.00  0.00    -0.306 N 
ATOM     15  C   UNL     1      17.103   6.410  20.819  0.00  0.00    +0.239 C 
ATOM     34  H   UNL     1      15.625   6.670  19.381  0.00  0.00    +0.149 HD
BRANCH  15  17
ATOM     17  C   UNL     1      18.067   6.252  19.663  0.00  0.00    +0.255 C 
BRANCH  17   4
ATOM      4  O   UNL     1      18.797   5.049  19.784  0.00  0.00    -0.374 OA
ATOM     22  C   UNL     1      20.108   5.273  20.293  0.00  0.00    +0.194 C 
ENDBRANCH  17   4
ENDBRANCH  15  17
ENDBRANCH  12   5
ENDBRANCH   6  11
BRANCH  18  21
ATOM     21  C   UNL     1      14.018  10.599  16.411  0.00  0.00    +0.001 A 
ATOM     23  C   UNL     1      14.492  11.335  17.499  0.00  0.00    +0.010 A 
ATOM     24  C   UNL     1      14.721  10.616  15.204  0.00  0.00    +0.010 A 
ATOM     25  C   UNL     1      16.361  12.102  16.175  0.00  0.00    -0.018 A 
ATOM     26  C   UNL     1      15.661  12.085  17.382  0.00  0.00    +0.009 A 
ATOM     27  C   UNL     1      15.891  11.367  15.086  0.00  0.00    +0.009 A 
BRANCH  25  28
ATOM     28  C   UNL     1      17.574  12.881  16.053  0.00  0.00    -0.018 A 
ATOM     29  C   UNL     1      18.446  12.988  17.136  0.00  0.00    +0.008 A 
ATOM     30  C   UNL     1      17.871  13.526  14.852  0.00  0.00    +0.008 A 
ATOM     31  C   UNL     1      19.615  13.739  17.019  0.00  0.00    +0.001 A 
ATOM     32  C   UNL     1      19.040  14.277  14.734  0.00  0.00    +0.001 A 
ATOM     33  C   UNL     1      19.912  14.384  15.818  0.00  0.00    +0.000 A 
ENDBRANCH  25  28
ENDBRANCH  18  21
TORSDOF 6
ENDMDL
MODEL 7
REMARK VINA RESULT:      -7.0      3.953      6.150
REMARK  Name = 11913309
REMARK  7 active torsions:
REMARK  status: ('A' for Active; 'I' for Inactive)
REMARK    1  A    between atoms: O_4  and  C_17
REMARK    2  A    between atoms: O_4  and  C_22
REMARK    3  A    between atoms: N_5  and  C_12
REMARK    4  A    between atoms: N_6  and  C_11
REMARK    5  A    between atoms: C_15  and  C_17
REMARK    6  A    between atoms: C_18  and  C_21
REMARK    7  A    between atoms: C_25  and  C_28
REMARK                            x       y       z     vdW  Elec       q    Type
REMARK                         _______ _______ _______ _____ _____    ______ ____
ROOT
ATOM      6  N   UNL     1      11.002   8.465  18.428  0.00  0.00    -0.306 N 
ATOM      7  N   UNL     1      12.898   8.167  19.775  0.00  0.00    -0.214 NA
ATOM      8  N   UNL     1      10.810   8.906  20.724  0.00  0.00    -0.223 NA
ATOM     16  C   UNL     1      11.588   8.514  19.680  0.00  0.00    +0.216 A 
ATOM     18  C   UNL     1      13.438   8.225  21.012  0.00  0.00    +0.076 A 
ATOM     19  C   UNL     1      11.413   8.942  21.931  0.00  0.00    +0.116 A 
ATOM     20  C   UNL     1      12.737   8.610  22.136  0.00  0.00    +0.048 A 
ATOM     35  H   UNL     1      10.040   8.776  18.358  0.00  0.00    +0.149 HD
ENDROOT
BRANCH   6  11
ATOM      1  O   UNL     1      11.543   9.923  15.751  0.00  0.00    -0.370 OA
ATOM      2  O   UNL     1      13.950   8.020  16.321  0.00  0.00    -0.370 OA
ATOM      9  C   UNL     1      13.054   8.754  17.171  0.00  0.00    +0.171 C 
ATOM     10  C   UNL     1      12.768  10.077  16.489  0.00  0.00    +0.171 C 
ATOM     11  C   UNL     1      11.708   8.070  17.229  0.00  0.00    +0.130 C 
ATOM     12  C   UNL     1      13.932  10.261  15.542  0.00  0.00    +0.130 C 
ATOM     13  C   UNL     1      11.004   8.617  16.000  0.00  0.00    +0.185 C 
ATOM     14  C   UNL     1      14.290   8.830  15.186  0.00  0.00    +0.185 C 
BRANCH  12   5
ATOM      3  O   UNL     1      15.241  12.708  14.706  0.00  0.00    -0.273 OA
ATOM      5  N   UNL     1      15.033  10.930  16.192  0.00  0.00    -0.306 N 
ATOM     15  C   UNL     1      15.598  12.105  15.714  0.00  0.00    +0.239 C 
ATOM     34  H   UNL     1      15.373  10.546  17.069  0.00  0.00    +0.149 HD
BRANCH  15  17
ATOM     17  C   UNL     1      16.732  12.581  16.594  0.00  0.00    +0.255 C 
BRANCH  17   4
ATOM      4  O   UNL     1      17.939  12.642  15.863  0.00  0.00    -0.374 OA
ATOM     22  C   UNL     1      19.042  13.002  16.689  0.00  0.00    +0.194 C 
ENDBRANCH  17   4
ENDBRANCH  15  17
ENDBRANCH  12   5
ENDBRANCH   6  11
BRANCH  18  21
ATOM     21  C   UNL     1      14.831   7.855  21.091  0.00  0.00    +0.001 A 
ATOM     23  C   UNL     1      15.233   6.562  20.749  0.00  0.00    +0.010 A 
ATOM     24  C   UNL     1      15.781   8.789  21.508  0.00  0.00    +0.010 A 
ATOM     25  C   UNL     1      17.526   7.139  21.243  0.00  0.00    -0.018 A 
ATOM     26  C   UNL     1      16.578   6.204  20.825  0.00  0.00    +0.009 A 
ATOM     27  C   UNL     1      17.128   8.431  21.584  0.00  0.00    +0.009 A 
BRANCH  25  28
ATOM     28  C   UNL     1      18.922   6.767  21.323  0.00  0.00    -0.018 A 
ATOM     29  C   UNL     1      19.742   7.339  22.295  0.00  0.00    +0.008 A 
ATOM     30  C   UNL     1      19.448   5.835  20.427  0.00  0.00    +0.008 A 
ATOM     31  C   UNL     1      21.088   6.981  22.372  0.00  0.00    +0.001 A 
ATOM     32  C   UNL     1      20.794   5.477  20.504  0.00  0.00    +0.001 A 
ATOM     33  C   UNL     1      21.614   6.050  21.477  0.00  0.00    +0.000 A 
ENDBRANCH  25  28
ENDBRANCH  18  21
TORSDOF 6
ENDMDL
MODEL 8
REMARK VINA RESULT:      -7.0      6.806     11.636
REMARK  Name = 11913309
REMARK  7 active torsions:
REMARK  status: ('A' for Active; 'I' for Inactive)
REMARK    1  A    between atoms: O_4  and  C_17
REMARK    2  A    between atoms: O_4  and  C_22
REMARK    3  A    between atoms: N_5  and  C_12
REMARK    4  A    between atoms: N_6  and  C_11
REMARK    5  A    between atoms: C_15  and  C_17
REMARK    6  A    between atoms: C_18  and  C_21
REMARK    7  A    between atoms: C_25  and  C_28
REMARK                            x       y       z     vdW  Elec       q    Type
REMARK                         _______ _______ _______ _____ _____    ______ ____
ROOT
ATOM      6  N   UNL     1      23.240   7.638  20.688  0.00  0.00    -0.306 N 
ATOM      7  N   UNL     1      21.036   6.866  20.465  0.00  0.00    -0.214 NA
ATOM      8  N   UNL     1      22.845   5.334  20.900  0.00  0.00    -0.223 NA
ATOM     16  C   UNL     1      22.347   6.580  20.685  0.00  0.00    +0.216 A 
ATOM     18  C   UNL     1      20.193   5.812  20.469  0.00  0.00    +0.076 A 
ATOM     19  C   UNL     1      21.947   4.328  20.891  0.00  0.00    +0.116 A 
ATOM     20  C   UNL     1      20.596   4.509  20.677  0.00  0.00    +0.048 A 
ATOM     35  H   UNL     1      24.221   7.409  20.800  0.00  0.00    +0.149 HD
ENDROOT
BRANCH   6  11
ATOM      1  O   UNL     1      24.884  10.241  20.370  0.00  0.00    -0.370 OA
ATOM      2  O   UNL     1      22.285  10.523  18.666  0.00  0.00    -0.370 OA
ATOM      9  C   UNL     1      23.104   9.401  19.031  0.00  0.00    +0.171 C 
ATOM     10  C   UNL     1      24.545   9.873  19.022  0.00  0.00    +0.171 C 
ATOM     11  C   UNL     1      22.853   9.014  20.470  0.00  0.00    +0.130 C 
ATOM     12  C   UNL     1      24.525  11.095  18.132  0.00  0.00    +0.130 C 
ATOM     13  C   UNL     1      23.775   9.947  21.232  0.00  0.00    +0.185 C 
ATOM     14  C   UNL     1      23.130  11.644  18.366  0.00  0.00    +0.185 C 
BRANCH  12   5
ATOM      3  O   UNL     1      26.138  12.490  16.170  0.00  0.00    -0.273 OA
ATOM      5  N   UNL     1      24.722  10.737  16.749  0.00  0.00    -0.306 N 
ATOM     15  C   UNL     1      25.517  11.472  15.879  0.00  0.00    +0.239 C 
ATOM     34  H   UNL     1      24.296   9.878  16.414  0.00  0.00    +0.149 HD
BRANCH  15  17
ATOM     17  C   UNL     1      25.541  10.865  14.493  0.00  0.00    +0.255 C 
BRANCH  17   4
ATOM      4  O   UNL     1      24.814   9.655  14.465  0.00  0.00    -0.374 OA
ATOM     22  C   UNL     1      25.672   8.522  14.380  0.00  0.00    +0.194 C 
ENDBRANCH  17   4
ENDBRANCH  15  17
ENDBRANCH  12   5
ENDBRANCH   6  11
BRANCH  18  21
ATOM     21  C   UNL     1      18.806   6.135  20.232  0.00  0.00    +0.001 A 
ATOM     23  C   UNL     1      18.156   7.069  21.041  0.00  0.00    +0.010 A 
ATOM     24  C   UNL     1      18.110   5.517  19.190  0.00  0.00    +0.010 A 
ATOM     25  C   UNL     1      16.123   6.762  19.773  0.00  0.00    -0.018 A 
ATOM     26  C   UNL     1      16.817   7.382  20.812  0.00  0.00    +0.009 A 
ATOM     27  C   UNL     1      16.770   5.830  18.961  0.00  0.00    +0.009 A 
BRANCH  25  28
ATOM     28  C   UNL     1      14.733   7.087  19.536  0.00  0.00    -0.018 A 
ATOM     29  C   UNL     1      14.325   7.531  18.279  0.00  0.00    +0.008 A 
ATOM     30  C   UNL     1      13.801   6.956  20.565  0.00  0.00    +0.008 A 
ATOM     31  C   UNL     1      12.985   7.844  18.049  0.00  0.00    +0.001 A 
ATOM     32  C   UNL     1      12.461   7.268  20.337  0.00  0.00    +0.001 A 
ATOM     33  C   UNL     1      12.053   7.712  19.079  0.00  0.00    +0.000 A 
ENDBRANCH  25  28
ENDBRANCH  18  21
TORSDOF 6
ENDMDL
MODEL 9
REMARK VINA RESULT:      -6.9     20.527     24.147
REMARK  Name = 11913309
REMARK  7 active torsions:
REMARK  status: ('A' for Active; 'I' for Inactive)
REMARK    1  A    between atoms: O_4  and  C_17
REMARK    2  A    between atoms: O_4  and  C_22
REMARK    3  A    between atoms: N_5  and  C_12
REMARK    4  A    between atoms: N_6  and  C_11
REMARK    5  A    between atoms: C_15  and  C_17
REMARK    6  A    between atoms: C_18  and  C_21
REMARK    7  A    between atoms: C_25  and  C_28
REMARK                            x       y       z     vdW  Elec       q    Type
REMARK                         _______ _______ _______ _____ _____    ______ ____
ROOT
ATOM      6  N   UNL     1       9.991   5.414  -3.504  0.00  0.00    -0.306 N 
ATOM      7  N   UNL     1      10.342   5.199  -1.194  0.00  0.00    -0.214 NA
ATOM      8  N   UNL     1      11.619   3.894  -2.767  0.00  0.00    -0.223 NA
ATOM     16  C   UNL     1      10.671   4.817  -2.457  0.00  0.00    +0.216 A 
ATOM     18  C   UNL     1      11.026   4.598  -0.197  0.00  0.00    +0.076 A 
ATOM     19  C   UNL     1      12.263   3.333  -1.722  0.00  0.00    +0.116 A 
ATOM     20  C   UNL     1      12.005   3.649  -0.404  0.00  0.00    +0.048 A 
ATOM     35  H   UNL     1      10.206   5.085  -4.438  0.00  0.00    +0.149 HD
ENDROOT
BRANCH   6  11
ATOM      1  O   UNL     1       8.134   6.878  -5.502  0.00  0.00    -0.370 OA
ATOM      2  O   UNL     1       6.600   6.570  -2.801  0.00  0.00    -0.370 OA
ATOM      9  C   UNL     1       7.595   5.772  -3.464  0.00  0.00    +0.171 C 
ATOM     10  C   UNL     1       7.307   5.838  -4.951  0.00  0.00    +0.171 C 
ATOM     11  C   UNL     1       8.957   6.409  -3.323  0.00  0.00    +0.130 C 
ATOM     12  C   UNL     1       5.849   6.231  -5.026  0.00  0.00    +0.130 C 
ATOM     13  C   UNL     1       8.980   7.405  -4.469  0.00  0.00    +0.185 C 
ATOM     14  C   UNL     1       5.675   7.073  -3.776  0.00  0.00    +0.185 C 
BRANCH  12   5
ATOM      3  O   UNL     1       3.066   6.080  -5.821  0.00  0.00    -0.273 OA
ATOM      5  N   UNL     1       4.994   5.069  -4.998  0.00  0.00    -0.306 N 
ATOM     15  C   UNL     1       3.665   5.094  -5.400  0.00  0.00    +0.239 C 
ATOM     34  H   UNL     1       5.403   4.183  -4.717  0.00  0.00    +0.149 HD
BRANCH  15  17
ATOM     17  C   UNL     1       3.012   3.736  -5.264  0.00  0.00    +0.255 C 
BRANCH  17   4
ATOM      4  O   UNL     1       1.672   3.779  -5.707  0.00  0.00    -0.374 OA
ATOM     22  C   UNL     1       0.943   2.623  -5.308  0.00  0.00    +0.194 C 
ENDBRANCH  17   4
ENDBRANCH  15  17
ENDBRANCH  12   5
ENDBRANCH   6  11
BRANCH  18  21
ATOM     21  C   UNL     1      10.660   5.015   1.135  0.00  0.00    +0.001 A 
ATOM     23  C   UNL     1      10.918   4.183   2.226  0.00  0.00    +0.010 A 
ATOM     24  C   UNL     1      10.048   6.254   1.338  0.00  0.00    +0.010 A 
ATOM     25  C   UNL     1       9.953   5.823   3.713  0.00  0.00    -0.018 A 
ATOM     26  C   UNL     1      10.565   4.586   3.513  0.00  0.00    +0.009 A 
ATOM     27  C   UNL     1       9.695   6.658   2.626  0.00  0.00    +0.009 A 
BRANCH  25  28
ATOM     28  C   UNL     1       9.586   6.241   5.050  0.00  0.00    -0.018 A 
ATOM     29  C   UNL     1       8.543   7.147   5.235  0.00  0.00    +0.008 A 
ATOM     30  C   UNL     1      10.276   5.737   6.152  0.00  0.00    +0.008 A 
ATOM     31  C   UNL     1       8.188   7.551   6.522  0.00  0.00    +0.001 A 
ATOM     32  C   UNL     1       9.922   6.139   7.440  0.00  0.00    +0.001 A 
ATOM     33  C   UNL     1       8.878   7.046   7.625  0.00  0.00    +0.000 A 
ENDBRANCH  25  28
ENDBRANCH  18  21
TORSDOF 6
ENDMDL
MODEL 10
REMARK VINA RESULT:      -6.9     24.212     30.030
REMARK  Name = 11913309
REMARK  7 active torsions:
REMARK  status: ('A' for Active; 'I' for Inactive)
REMARK    1  A    between atoms: O_4  and  C_17
REMARK    2  A    between atoms: O_4  and  C_22
REMARK    3  A    between atoms: N_5  and  C_12
REMARK    4  A    between atoms: N_6  and  C_11
REMARK    5  A    between atoms: C_15  and  C_17
REMARK    6  A    between atoms: C_18  and  C_21
REMARK    7  A    between atoms: C_25  and  C_28
REMARK                            x       y       z     vdW  Elec       q    Type
REMARK                         _______ _______ _______ _____ _____    ______ ____
ROOT
ATOM      6  N   UNL     1     -13.265   7.914  33.626  0.00  0.00    -0.306 N 
ATOM      7  N   UNL     1     -14.172   6.071  32.492  0.00  0.00    -0.214 NA
ATOM      8  N   UNL     1     -13.842   6.015  34.879  0.00  0.00    -0.223 NA
ATOM     16  C   UNL     1     -13.775   6.628  33.667  0.00  0.00    +0.216 A 
ATOM     18  C   UNL     1     -14.664   4.817  32.568  0.00  0.00    +0.076 A 
ATOM     19  C   UNL     1     -14.345   4.763  34.882  0.00  0.00    +0.116 A 
ATOM     20  C   UNL     1     -14.775   4.107  33.746  0.00  0.00    +0.048 A 
ATOM     35  H   UNL     1     -12.923   8.300  34.499  0.00  0.00    +0.149 HD
ENDROOT
BRANCH   6  11
ATOM      1  O   UNL     1     -13.156  10.960  33.088  0.00  0.00    -0.370 OA
ATOM      2  O   UNL     1     -11.422   9.532  30.921  0.00  0.00    -0.370 OA
ATOM      9  C   UNL     1     -11.728   9.230  32.293  0.00  0.00    +0.171 C 
ATOM     10  C   UNL     1     -11.779  10.546  33.043  0.00  0.00    +0.171 C 
ATOM     11  C   UNL     1     -13.132   8.684  32.409  0.00  0.00    +0.130 C 
ATOM     12  C   UNL     1     -10.974  11.492  32.181  0.00  0.00    +0.130 C 
ATOM     13  C   UNL     1     -13.974   9.944  32.490  0.00  0.00    +0.185 C 
ATOM     14  C   UNL     1     -11.216  10.946  30.787  0.00  0.00    +0.185 C 
BRANCH  12   5
ATOM      3  O   UNL     1      -8.946  13.462  31.544  0.00  0.00    -0.273 OA
ATOM      5  N   UNL     1      -9.574  11.448  32.525  0.00  0.00    -0.306 N 
ATOM     15  C   UNL     1      -8.673  12.444  32.174  0.00  0.00    +0.239 C 
ATOM     34  H   UNL     1      -9.248  10.673  33.096  0.00  0.00    +0.149 HD
BRANCH  15  17
ATOM     17  C   UNL     1      -7.276  12.135  32.665  0.00  0.00    +0.255 C 
BRANCH  17   4
ATOM      4  O   UNL     1      -6.327  12.359  31.644  0.00  0.00    -0.374 OA
ATOM     22  C   UNL     1      -5.023  12.587  32.171  0.00  0.00    +0.194 C 
ENDBRANCH  17   4
ENDBRANCH  15  17
ENDBRANCH  12   5
ENDBRANCH   6  11
BRANCH  18  21
ATOM     21  C   UNL     1     -15.078   4.243  31.310  0.00  0.00    +0.001 A 
ATOM     23  C   UNL     1     -15.800   5.010  30.393  0.00  0.00    +0.010 A 
ATOM     24  C   UNL     1     -14.754   2.919  31.003  0.00  0.00    +0.010 A 
ATOM     25  C   UNL     1     -15.876   3.133  28.874  0.00  0.00    -0.018 A 
ATOM     26  C   UNL     1     -16.199   4.456  29.178  0.00  0.00    +0.009 A 
ATOM     27  C   UNL     1     -15.154   2.365  29.787  0.00  0.00    +0.009 A 
BRANCH  25  28
ATOM     28  C   UNL     1     -16.291   2.558  27.613  0.00  0.00    -0.018 A 
ATOM     29  C   UNL     1     -16.744   1.241  27.563  0.00  0.00    +0.008 A 
ATOM     30  C   UNL     1     -16.238   3.322  26.447  0.00  0.00    +0.008 A 
ATOM     31  C   UNL     1     -17.145   0.686  26.347  0.00  0.00    +0.001 A 
ATOM     32  C   UNL     1     -16.639   2.769  25.231  0.00  0.00    +0.001 A 
ATOM     33  C   UNL     1     -17.091   1.450  25.181  0.00  0.00    +0.000 A 
ENDBRANCH  25  28
ENDBRANCH  18  21
TORSDOF 6
ENDMDL
