MODEL 1
REMARK VINA RESULT:      -5.6      0.000      0.000
REMARK  Name = 28962146
REMARK  13 active torsions:
REMARK  status: ('A' for Active; 'I' for Inactive)
REMARK    1  A    between atoms: O_2  and  C_10
REMARK    2  A    between atoms: O_3  and  C_13
REMARK    3  A    between atoms: O_5  and  C_21
REMARK    4  A    between atoms: O_5  and  C_25
REMARK    5  A    between atoms: N_6  and  C_8
REMARK    6  A    between atoms: N_6  and  C_14
REMARK    7  A    between atoms: N_6  and  C_15
REMARK    8  A    between atoms: N_7  and  C_12
REMARK    9  A    between atoms: C_9  and  C_12
REMARK   10  A    between atoms: C_11  and  C_13
REMARK   11  A    between atoms: C_14  and  C_16
REMARK   12  A    between atoms: C_16  and  C_17
REMARK   13  A    between atoms: C_18  and  C_21
REMARK                            x       y       z     vdW  Elec       q    Type
REMARK                         _______ _______ _______ _____ _____    ______ ____
ROOT
ATOM      1  O   UNL     1     -16.279   5.619  22.824  0.00  0.00    -0.365 OA
ATOM      8  C   UNL     1     -14.253   6.580  22.024  0.00  0.00    +0.118 C 
ATOM      9  C   UNL     1     -15.762   6.463  21.771  0.00  0.00    +0.155 C 
ATOM     10  C   UNL     1     -13.934   5.302  22.785  0.00  0.00    +0.165 C 
ATOM     11  C   UNL     1     -15.185   5.167  23.645  0.00  0.00    +0.174 C 
ENDROOT
BRANCH  10   2
ATOM      2  O   UNL     1     -13.812   4.190  21.909  0.00  0.00    -0.388 OA
ATOM     26  H   UNL     1     -13.964   3.385  22.432  0.00  0.00    +0.210 HD
ENDBRANCH  10   2
BRANCH   8   6
ATOM      6  N   UNL     1     -13.424   6.830  20.858  0.00  0.00    -0.297 NA
ATOM     15  C   UNL     1     -12.030   6.458  21.120  0.00  0.00    +0.105 C 
BRANCH   6  14
ATOM     14  C   UNL     1     -13.502   8.237  20.454  0.00  0.00    +0.089 C 
BRANCH  14  16
ATOM     16  C   UNL     1     -12.338   9.039  21.038  0.00  0.00    +0.050 C 
BRANCH  16  17
ATOM     17  C   UNL     1     -11.633   9.845  19.976  0.00  0.00    -0.046 A 
ATOM     19  C   UNL     1     -10.648   9.249  19.188  0.00  0.00    +0.003 A 
ATOM     20  C   UNL     1     -11.967  11.185  19.782  0.00  0.00    +0.003 A 
ATOM     22  C   UNL     1      -9.996   9.995  18.206  0.00  0.00    +0.000 A 
ATOM     23  C   UNL     1     -11.314  11.931  18.799  0.00  0.00    +0.000 A 
ATOM     24  C   UNL     1     -10.329  11.336  18.011  0.00  0.00    +0.000 A 
ENDBRANCH  16  17
ENDBRANCH  14  16
ENDBRANCH   6  14
ENDBRANCH   8   6
BRANCH   9  12
ATOM     12  C   UNL     1     -16.187   5.842  20.445  0.00  0.00    +0.137 C 
BRANCH  12   7
ATOM      4  O   UNL     1     -17.912   4.603  18.481  0.00  0.00    -0.273 OA
ATOM      7  N   UNL     1     -17.088   4.748  20.652  0.00  0.00    -0.311 N 
ATOM     18  C   UNL     1     -17.886   4.211  19.645  0.00  0.00    +0.239 C 
ATOM     27  H   UNL     1     -17.150   4.357  21.588  0.00  0.00    +0.149 HD
BRANCH  18  21
ATOM     21  C   UNL     1     -18.739   3.065  20.143  0.00  0.00    +0.255 C 
BRANCH  21   5
ATOM      5  O   UNL     1     -18.137   2.444  21.259  0.00  0.00    -0.374 OA
ATOM     25  C   UNL     1     -18.864   1.296  21.685  0.00  0.00    +0.194 C 
ENDBRANCH  21   5
ENDBRANCH  18  21
ENDBRANCH  12   7
ENDBRANCH   9  12
BRANCH  11  13
ATOM     13  C   UNL     1     -15.483   3.767  24.149  0.00  0.00    +0.190 C 
BRANCH  13   3
ATOM      3  O   UNL     1     -15.931   2.973  23.063  0.00  0.00    -0.392 OA
ATOM     28  H   UNL     1     -15.158   2.795  22.500  0.00  0.00    +0.210 HD
ENDBRANCH  13   3
ENDBRANCH  11  13
TORSDOF 11
ENDMDL
MODEL 2
REMARK VINA RESULT:      -5.4     19.228     20.538
REMARK  Name = 28962146
REMARK  13 active torsions:
REMARK  status: ('A' for Active; 'I' for Inactive)
REMARK    1  A    between atoms: O_2  and  C_10
REMARK    2  A    between atoms: O_3  and  C_13
REMARK    3  A    between atoms: O_5  and  C_21
REMARK    4  A    between atoms: O_5  and  C_25
REMARK    5  A    between atoms: N_6  and  C_8
REMARK    6  A    between atoms: N_6  and  C_14
REMARK    7  A    between atoms: N_6  and  C_15
REMARK    8  A    between atoms: N_7  and  C_12
REMARK    9  A    between atoms: C_9  and  C_12
REMARK   10  A    between atoms: C_11  and  C_13
REMARK   11  A    between atoms: C_14  and  C_16
REMARK   12  A    between atoms: C_16  and  C_17
REMARK   13  A    between atoms: C_18  and  C_21
REMARK                            x       y       z     vdW  Elec       q    Type
REMARK                         _______ _______ _______ _____ _____    ______ ____
ROOT
ATOM      1  O   UNL     1      -5.288 -10.326  18.303  0.00  0.00    -0.365 OA
ATOM      8  C   UNL     1      -4.395 -11.892  16.748  0.00  0.00    +0.118 C 
ATOM      9  C   UNL     1      -4.660 -10.402  17.004  0.00  0.00    +0.155 C 
ATOM     10  C   UNL     1      -5.456 -12.578  17.596  0.00  0.00    +0.165 C 
ATOM     11  C   UNL     1      -5.482 -11.659  18.812  0.00  0.00    +0.174 C 
ENDROOT
BRANCH  10   2
ATOM      2  O   UNL     1      -6.720 -12.579  16.948  0.00  0.00    -0.388 OA
ATOM     26  H   UNL     1      -7.403 -12.474  17.633  0.00  0.00    +0.210 HD
ENDBRANCH  10   2
BRANCH   8   6
ATOM      6  N   UNL     1      -4.350 -12.306  15.357  0.00  0.00    -0.297 NA
ATOM     15  C   UNL     1      -4.306 -13.769  15.250  0.00  0.00    +0.105 C 
BRANCH   6  14
ATOM     14  C   UNL     1      -3.195 -11.717  14.674  0.00  0.00    +0.089 C 
BRANCH  14  16
ATOM     16  C   UNL     1      -3.019 -12.316  13.278  0.00  0.00    +0.050 C 
BRANCH  16  17
ATOM     17  C   UNL     1      -3.032 -11.250  12.212  0.00  0.00    -0.046 A 
ATOM     19  C   UNL     1      -4.172 -11.060  11.430  0.00  0.00    +0.003 A 
ATOM     20  C   UNL     1      -1.906 -10.453  12.009  0.00  0.00    +0.003 A 
ATOM     22  C   UNL     1      -4.185 -10.073  10.443  0.00  0.00    +0.000 A 
ATOM     23  C   UNL     1      -1.919  -9.466  11.022  0.00  0.00    +0.000 A 
ATOM     24  C   UNL     1      -3.058  -9.276  10.240  0.00  0.00    +0.000 A 
ENDBRANCH  16  17
ENDBRANCH  14  16
ENDBRANCH   6  14
ENDBRANCH   8   6
BRANCH   9  12
ATOM     12  C   UNL     1      -5.578  -9.691  16.015  0.00  0.00    +0.137 C 
BRANCH  12   7
ATOM      4  O   UNL     1      -8.326 -10.377  15.426  0.00  0.00    -0.273 OA
ATOM      7  N   UNL     1      -6.752  -9.194  16.667  0.00  0.00    -0.311 N 
ATOM     18  C   UNL     1      -8.044  -9.580  16.317  0.00  0.00    +0.239 C 
ATOM     27  H   UNL     1      -6.628  -8.517  17.414  0.00  0.00    +0.149 HD
BRANCH  18  21
ATOM     21  C   UNL     1      -9.093  -8.900  17.170  0.00  0.00    +0.255 C 
BRANCH  21   5
ATOM      5  O   UNL     1      -9.563  -9.775  18.174  0.00  0.00    -0.374 OA
ATOM     25  C   UNL     1     -10.985  -9.837  18.201  0.00  0.00    +0.194 C 
ENDBRANCH  21   5
ENDBRANCH  18  21
ENDBRANCH  12   7
ENDBRANCH   9  12
BRANCH  11  13
ATOM     13  C   UNL     1      -6.757 -11.701  19.634  0.00  0.00    +0.190 C 
BRANCH  13   3
ATOM      3  O   UNL     1      -7.254 -10.381  19.779  0.00  0.00    -0.392 OA
ATOM     28  H   UNL     1      -8.223 -10.432  19.728  0.00  0.00    +0.210 HD
ENDBRANCH  13   3
ENDBRANCH  11  13
TORSDOF 11
ENDMDL
MODEL 3
REMARK VINA RESULT:      -5.3      4.004      9.168
REMARK  Name = 28962146
REMARK  13 active torsions:
REMARK  status: ('A' for Active; 'I' for Inactive)
REMARK    1  A    between atoms: O_2  and  C_10
REMARK    2  A    between atoms: O_3  and  C_13
REMARK    3  A    between atoms: O_5  and  C_21
REMARK    4  A    between atoms: O_5  and  C_25
REMARK    5  A    between atoms: N_6  and  C_8
REMARK    6  A    between atoms: N_6  and  C_14
REMARK    7  A    between atoms: N_6  and  C_15
REMARK    8  A    between atoms: N_7  and  C_12
REMARK    9  A    between atoms: C_9  and  C_12
REMARK   10  A    between atoms: C_11  and  C_13
REMARK   11  A    between atoms: C_14  and  C_16
REMARK   12  A    between atoms: C_16  and  C_17
REMARK   13  A    between atoms: C_18  and  C_21
REMARK                            x       y       z     vdW  Elec       q    Type
REMARK                         _______ _______ _______ _____ _____    ______ ____
ROOT
ATOM      1  O   UNL     1     -17.513   4.704  23.312  0.00  0.00    -0.365 OA
ATOM      8  C   UNL     1     -17.524   2.874  24.834  0.00  0.00    +0.118 C 
ATOM      9  C   UNL     1     -16.906   4.248  24.541  0.00  0.00    +0.155 C 
ATOM     10  C   UNL     1     -17.925   2.378  23.453  0.00  0.00    +0.165 C 
ATOM     11  C   UNL     1     -18.392   3.679  22.811  0.00  0.00    +0.174 C 
ENDROOT
BRANCH  10   2
ATOM      2  O   UNL     1     -16.812   1.849  22.746  0.00  0.00    -0.388 OA
ATOM     26  H   UNL     1     -16.743   0.905  22.968  0.00  0.00    +0.210 HD
ENDBRANCH  10   2
BRANCH   8   6
ATOM      6  N   UNL     1     -16.709   1.956  25.610  0.00  0.00    -0.297 NA
ATOM     15  C   UNL     1     -17.309   0.618  25.633  0.00  0.00    +0.105 C 
BRANCH   6  14
ATOM     14  C   UNL     1     -16.526   2.449  26.978  0.00  0.00    +0.089 C 
BRANCH  14  16
ATOM     16  C   UNL     1     -16.747   1.331  27.997  0.00  0.00    +0.050 C 
BRANCH  16  17
ATOM     17  C   UNL     1     -15.785   1.436  29.154  0.00  0.00    -0.046 A 
ATOM     19  C   UNL     1     -14.994   2.576  29.300  0.00  0.00    +0.003 A 
ATOM     20  C   UNL     1     -15.687   0.395  30.076  0.00  0.00    +0.003 A 
ATOM     22  C   UNL     1     -14.103   2.674  30.370  0.00  0.00    +0.000 A 
ATOM     23  C   UNL     1     -14.796   0.494  31.146  0.00  0.00    +0.000 A 
ATOM     24  C   UNL     1     -14.005   1.633  31.293  0.00  0.00    +0.000 A 
ENDBRANCH  16  17
ENDBRANCH  14  16
ENDBRANCH   6  14
ENDBRANCH   8   6
BRANCH   9  12
ATOM     12  C   UNL     1     -15.395   4.290  24.342  0.00  0.00    +0.137 C 
BRANCH  12   7
ATOM      4  O   UNL     1     -14.252   4.572  21.700  0.00  0.00    -0.273 OA
ATOM      7  N   UNL     1     -14.993   5.505  23.700  0.00  0.00    -0.311 N 
ATOM     18  C   UNL     1     -14.448   5.550  22.419  0.00  0.00    +0.239 C 
ATOM     27  H   UNL     1     -15.102   6.373  24.216  0.00  0.00    +0.149 HD
BRANCH  18  21
ATOM     21  C   UNL     1     -14.115   6.962  21.990  0.00  0.00    +0.255 C 
BRANCH  21   5
ATOM      5  O   UNL     1     -13.227   6.953  20.892  0.00  0.00    -0.374 OA
ATOM     25  C   UNL     1     -12.288   8.022  20.959  0.00  0.00    +0.194 C 
ENDBRANCH  21   5
ENDBRANCH  18  21
ENDBRANCH  12   7
ENDBRANCH   9  12
BRANCH  11  13
ATOM     13  C   UNL     1     -18.376   3.701  21.294  0.00  0.00    +0.190 C 
BRANCH  13   3
ATOM      3  O   UNL     1     -17.114   4.177  20.855  0.00  0.00    -0.392 OA
ATOM     28  H   UNL     1     -16.769   3.530  20.218  0.00  0.00    +0.210 HD
ENDBRANCH  13   3
ENDBRANCH  11  13
TORSDOF 11
ENDMDL
MODEL 4
REMARK VINA RESULT:      -5.3     27.078     30.950
REMARK  Name = 28962146
REMARK  13 active torsions:
REMARK  status: ('A' for Active; 'I' for Inactive)
REMARK    1  A    between atoms: O_2  and  C_10
REMARK    2  A    between atoms: O_3  and  C_13
REMARK    3  A    between atoms: O_5  and  C_21
REMARK    4  A    between atoms: O_5  and  C_25
REMARK    5  A    between atoms: N_6  and  C_8
REMARK    6  A    between atoms: N_6  and  C_14
REMARK    7  A    between atoms: N_6  and  C_15
REMARK    8  A    between atoms: N_7  and  C_12
REMARK    9  A    between atoms: C_9  and  C_12
REMARK   10  A    between atoms: C_11  and  C_13
REMARK   11  A    between atoms: C_14  and  C_16
REMARK   12  A    between atoms: C_16  and  C_17
REMARK   13  A    between atoms: C_18  and  C_21
REMARK                            x       y       z     vdW  Elec       q    Type
REMARK                         _______ _______ _______ _____ _____    ______ ____
ROOT
ATOM      1  O   UNL     1      11.154   5.412   8.342  0.00  0.00    -0.365 OA
ATOM      8  C   UNL     1      10.119   5.763   6.227  0.00  0.00    +0.118 C 
ATOM      9  C   UNL     1      11.407   5.971   7.034  0.00  0.00    +0.155 C 
ATOM     10  C   UNL     1       9.047   5.702   7.305  0.00  0.00    +0.165 C 
ATOM     11  C   UNL     1       9.791   4.949   8.401  0.00  0.00    +0.174 C 
ENDROOT
BRANCH  10   2
ATOM      2  O   UNL     1       8.685   7.001   7.754  0.00  0.00    -0.388 OA
ATOM     26  H   UNL     1       9.109   7.142   8.618  0.00  0.00    +0.210 HD
ENDBRANCH  10   2
BRANCH   8   6
ATOM      6  N   UNL     1       9.870   6.714   5.159  0.00  0.00    -0.297 NA
ATOM     15  C   UNL     1       8.438   6.789   4.850  0.00  0.00    +0.105 C 
BRANCH   6  14
ATOM     14  C   UNL     1      10.625   6.355   3.954  0.00  0.00    +0.089 C 
BRANCH  14  16
ATOM     16  C   UNL     1      10.584   4.846   3.711  0.00  0.00    +0.050 C 
BRANCH  16  17
ATOM     17  C   UNL     1      11.050   4.496   2.320  0.00  0.00    -0.046 A 
ATOM     19  C   UNL     1      12.240   3.790   2.141  0.00  0.00    +0.003 A 
ATOM     20  C   UNL     1      10.290   4.876   1.215  0.00  0.00    +0.003 A 
ATOM     22  C   UNL     1      12.670   3.465   0.854  0.00  0.00    +0.000 A 
ATOM     23  C   UNL     1      10.721   4.551  -0.072  0.00  0.00    +0.000 A 
ATOM     24  C   UNL     1      11.911   3.846  -0.253  0.00  0.00    +0.000 A 
ENDBRANCH  16  17
ENDBRANCH  14  16
ENDBRANCH   6  14
ENDBRANCH   8   6
BRANCH   9  12
ATOM     12  C   UNL     1      11.860   7.412   7.239  0.00  0.00    +0.137 C 
BRANCH  12   7
ATOM      4  O   UNL     1      14.683   6.897   6.869  0.00  0.00    -0.273 OA
ATOM      7  N   UNL     1      12.685   7.853   6.155  0.00  0.00    -0.311 N 
ATOM     18  C   UNL     1      14.042   7.558   6.055  0.00  0.00    +0.239 C 
ATOM     27  H   UNL     1      12.252   8.419   5.431  0.00  0.00    +0.149 HD
BRANCH  18  21
ATOM     21  C   UNL     1      14.665   8.149   4.809  0.00  0.00    +0.255 C 
BRANCH  21   5
ATOM      5  O   UNL     1      15.283   7.142   4.036  0.00  0.00    -0.374 OA
ATOM     25  C   UNL     1      14.541   6.847   2.857  0.00  0.00    +0.194 C 
ENDBRANCH  21   5
ENDBRANCH  18  21
ENDBRANCH  12   7
ENDBRANCH   9  12
BRANCH  11  13
ATOM     13  C   UNL     1       9.255   5.144   9.807  0.00  0.00    +0.190 C 
BRANCH  13   3
ATOM      3  O   UNL     1      10.152   4.542  10.727  0.00  0.00    -0.392 OA
ATOM     28  H   UNL     1      10.275   5.169  11.460  0.00  0.00    +0.210 HD
ENDBRANCH  13   3
ENDBRANCH  11  13
TORSDOF 11
ENDMDL
MODEL 5
REMARK VINA RESULT:      -5.1     27.611     29.654
REMARK  Name = 28962146
REMARK  13 active torsions:
REMARK  status: ('A' for Active; 'I' for Inactive)
REMARK    1  A    between atoms: O_2  and  C_10
REMARK    2  A    between atoms: O_3  and  C_13
REMARK    3  A    between atoms: O_5  and  C_21
REMARK    4  A    between atoms: O_5  and  C_25
REMARK    5  A    between atoms: N_6  and  C_8
REMARK    6  A    between atoms: N_6  and  C_14
REMARK    7  A    between atoms: N_6  and  C_15
REMARK    8  A    between atoms: N_7  and  C_12
REMARK    9  A    between atoms: C_9  and  C_12
REMARK   10  A    between atoms: C_11  and  C_13
REMARK   11  A    between atoms: C_14  and  C_16
REMARK   12  A    between atoms: C_16  and  C_17
REMARK   13  A    between atoms: C_18  and  C_21
REMARK                            x       y       z     vdW  Elec       q    Type
REMARK                         _______ _______ _______ _____ _____    ______ ____
ROOT
ATOM      1  O   UNL     1       9.121   5.381   6.864  0.00  0.00    -0.365 OA
ATOM      8  C   UNL     1      10.548   7.250   6.490  0.00  0.00    +0.118 C 
ATOM      9  C   UNL     1       9.725   6.152   5.802  0.00  0.00    +0.155 C 
ATOM     10  C   UNL     1      10.872   6.636   7.844  0.00  0.00    +0.165 C 
ATOM     11  C   UNL     1       9.575   5.890   8.133  0.00  0.00    +0.174 C 
ENDROOT
BRANCH  10   2
ATOM      2  O   UNL     1      11.959   5.725   7.757  0.00  0.00    -0.388 OA
ATOM     26  H   UNL     1      12.317   5.779   6.855  0.00  0.00    +0.210 HD
ENDBRANCH  10   2
BRANCH   8   6
ATOM      6  N   UNL     1      11.690   7.756   5.750  0.00  0.00    -0.297 NA
ATOM     15  C   UNL     1      12.656   8.392   6.652  0.00  0.00    +0.105 C 
BRANCH   6  14
ATOM     14  C   UNL     1      11.264   8.707   4.719  0.00  0.00    +0.089 C 
BRANCH  14  16
ATOM     16  C   UNL     1      10.150   9.616   5.238  0.00  0.00    +0.050 C 
BRANCH  16  17
ATOM     17  C   UNL     1       8.954   9.609   4.319  0.00  0.00    -0.046 A 
ATOM     19  C   UNL     1       7.792  10.289   4.682  0.00  0.00    +0.003 A 
ATOM     20  C   UNL     1       9.012   8.924   3.105  0.00  0.00    +0.003 A 
ATOM     22  C   UNL     1       6.686  10.283   3.832  0.00  0.00    +0.000 A 
ATOM     23  C   UNL     1       7.906   8.919   2.255  0.00  0.00    +0.000 A 
ATOM     24  C   UNL     1       6.743   9.597   2.618  0.00  0.00    +0.000 A 
ENDBRANCH  16  17
ENDBRANCH  14  16
ENDBRANCH   6  14
ENDBRANCH   8   6
BRANCH   9  12
ATOM     12  C   UNL     1      10.493   5.177   4.916  0.00  0.00    +0.137 C 
BRANCH  12   7
ATOM      4  O   UNL     1      11.283   3.567   2.647  0.00  0.00    -0.273 OA
ATOM      7  N   UNL     1      10.318   5.491   3.531  0.00  0.00    -0.311 N 
ATOM     18  C   UNL     1      10.731   4.654   2.497  0.00  0.00    +0.239 C 
ATOM     27  H   UNL     1       9.879   6.378   3.298  0.00  0.00    +0.149 HD
BRANCH  18  21
ATOM     21  C   UNL     1      10.420   5.234   1.134  0.00  0.00    +0.255 C 
BRANCH  21   5
ATOM      5  O   UNL     1      10.123   4.207   0.211  0.00  0.00    -0.374 OA
ATOM     25  C   UNL     1      10.955   4.274  -0.943  0.00  0.00    +0.194 C 
ENDBRANCH  21   5
ENDBRANCH  18  21
ENDBRANCH  12   7
ENDBRANCH   9  12
BRANCH  11  13
ATOM     13  C   UNL     1       9.686   4.745   9.122  0.00  0.00    +0.190 C 
BRANCH  13   3
ATOM      3  O   UNL     1      10.346   3.658   8.493  0.00  0.00    -0.392 OA
ATOM     28  H   UNL     1       9.866   3.471   7.668  0.00  0.00    +0.210 HD
ENDBRANCH  13   3
ENDBRANCH  11  13
TORSDOF 11
ENDMDL
MODEL 6
REMARK VINA RESULT:      -5.0      1.678      3.510
REMARK  Name = 28962146
REMARK  13 active torsions:
REMARK  status: ('A' for Active; 'I' for Inactive)
REMARK    1  A    between atoms: O_2  and  C_10
REMARK    2  A    between atoms: O_3  and  C_13
REMARK    3  A    between atoms: O_5  and  C_21
REMARK    4  A    between atoms: O_5  and  C_25
REMARK    5  A    between atoms: N_6  and  C_8
REMARK    6  A    between atoms: N_6  and  C_14
REMARK    7  A    between atoms: N_6  and  C_15
REMARK    8  A    between atoms: N_7  and  C_12
REMARK    9  A    between atoms: C_9  and  C_12
REMARK   10  A    between atoms: C_11  and  C_13
REMARK   11  A    between atoms: C_14  and  C_16
REMARK   12  A    between atoms: C_16  and  C_17
REMARK   13  A    between atoms: C_18  and  C_21
REMARK                            x       y       z     vdW  Elec       q    Type
REMARK                         _______ _______ _______ _____ _____    ______ ____
ROOT
ATOM      1  O   UNL     1     -15.972   4.894  20.337  0.00  0.00    -0.365 OA
ATOM      8  C   UNL     1     -15.971   7.095  21.243  0.00  0.00    +0.118 C 
ATOM      9  C   UNL     1     -15.208   5.765  21.200  0.00  0.00    +0.155 C 
ATOM     10  C   UNL     1     -17.404   6.677  20.946  0.00  0.00    +0.165 C 
ATOM     11  C   UNL     1     -17.168   5.577  19.917  0.00  0.00    +0.174 C 
ENDROOT
BRANCH  10   2
ATOM      2  O   UNL     1     -18.042   6.147  22.100  0.00  0.00    -0.388 OA
ATOM     26  H   UNL     1     -18.254   5.216  21.918  0.00  0.00    +0.210 HD
ENDBRANCH  10   2
BRANCH   8   6
ATOM      6  N   UNL     1     -15.796   7.898  22.441  0.00  0.00    -0.297 NA
ATOM     15  C   UNL     1     -16.526   9.165  22.331  0.00  0.00    +0.105 C 
BRANCH   6  14
ATOM     14  C   UNL     1     -14.375   8.156  22.693  0.00  0.00    +0.089 C 
BRANCH  14  16
ATOM     16  C   UNL     1     -13.936   9.473  22.053  0.00  0.00    +0.050 C 
BRANCH  16  17
ATOM     17  C   UNL     1     -12.746   9.280  21.147  0.00  0.00    -0.046 A 
ATOM     19  C   UNL     1     -12.102  10.388  20.596  0.00  0.00    +0.003 A 
ATOM     20  C   UNL     1     -12.289   7.993  20.862  0.00  0.00    +0.003 A 
ATOM     22  C   UNL     1     -11.000  10.209  19.758  0.00  0.00    +0.000 A 
ATOM     23  C   UNL     1     -11.187   7.815  20.024  0.00  0.00    +0.000 A 
ATOM     24  C   UNL     1     -10.543   8.922  19.473  0.00  0.00    +0.000 A 
ENDBRANCH  16  17
ENDBRANCH  14  16
ENDBRANCH   6  14
ENDBRANCH   8   6
BRANCH   9  12
ATOM     12  C   UNL     1     -15.025   5.038  22.528  0.00  0.00    +0.137 C 
BRANCH  12   7
ATOM      4  O   UNL     1     -15.441   3.387  24.866  0.00  0.00    -0.273 OA
ATOM      7  N   UNL     1     -16.033   4.038  22.711  0.00  0.00    -0.311 N 
ATOM     18  C   UNL     1     -16.161   3.284  23.876  0.00  0.00    +0.239 C 
ATOM     27  H   UNL     1     -16.675   3.866  21.943  0.00  0.00    +0.149 HD
BRANCH  18  21
ATOM     21  C   UNL     1     -17.310   2.302  23.796  0.00  0.00    +0.255 C 
BRANCH  21   5
ATOM      5  O   UNL     1     -17.255   1.567  22.592  0.00  0.00    -0.374 OA
ATOM     25  C   UNL     1     -18.293   0.596  22.515  0.00  0.00    +0.194 C 
ENDBRANCH  21   5
ENDBRANCH  18  21
ENDBRANCH  12   7
ENDBRANCH   9  12
BRANCH  11  13
ATOM     13  C   UNL     1     -18.294   4.571  19.768  0.00  0.00    +0.190 C 
BRANCH  13   3
ATOM      3  O   UNL     1     -17.973   3.408  20.514  0.00  0.00    -0.392 OA
ATOM     28  H   UNL     1     -17.483   3.700  21.301  0.00  0.00    +0.210 HD
ENDBRANCH  13   3
ENDBRANCH  11  13
TORSDOF 11
ENDMDL
MODEL 7
REMARK VINA RESULT:      -5.0      2.510      3.930
REMARK  Name = 28962146
REMARK  13 active torsions:
REMARK  status: ('A' for Active; 'I' for Inactive)
REMARK    1  A    between atoms: O_2  and  C_10
REMARK    2  A    between atoms: O_3  and  C_13
REMARK    3  A    between atoms: O_5  and  C_21
REMARK    4  A    between atoms: O_5  and  C_25
REMARK    5  A    between atoms: N_6  and  C_8
REMARK    6  A    between atoms: N_6  and  C_14
REMARK    7  A    between atoms: N_6  and  C_15
REMARK    8  A    between atoms: N_7  and  C_12
REMARK    9  A    between atoms: C_9  and  C_12
REMARK   10  A    between atoms: C_11  and  C_13
REMARK   11  A    between atoms: C_14  and  C_16
REMARK   12  A    between atoms: C_16  and  C_17
REMARK   13  A    between atoms: C_18  and  C_21
REMARK                            x       y       z     vdW  Elec       q    Type
REMARK                         _______ _______ _______ _____ _____    ______ ____
ROOT
ATOM      1  O   UNL     1     -16.951   5.393  22.734  0.00  0.00    -0.365 OA
ATOM      8  C   UNL     1     -15.368   6.912  21.811  0.00  0.00    +0.118 C 
ATOM      9  C   UNL     1     -15.583   5.465  22.275  0.00  0.00    +0.155 C 
ATOM     10  C   UNL     1     -16.388   7.689  22.630  0.00  0.00    +0.165 C 
ATOM     11  C   UNL     1     -17.548   6.700  22.646  0.00  0.00    +0.174 C 
ENDROOT
BRANCH  10   2
ATOM      2  O   UNL     1     -15.923   7.928  23.951  0.00  0.00    -0.388 OA
ATOM     26  H   UNL     1     -16.479   8.625  24.338  0.00  0.00    +0.210 HD
ENDBRANCH  10   2
BRANCH   8   6
ATOM      6  N   UNL     1     -14.007   7.414  21.880  0.00  0.00    -0.297 NA
ATOM     15  C   UNL     1     -13.989   8.880  21.866  0.00  0.00    +0.105 C 
BRANCH   6  14
ATOM     14  C   UNL     1     -13.201   6.891  20.772  0.00  0.00    +0.089 C 
BRANCH  14  16
ATOM     16  C   UNL     1     -11.729   7.271  20.938  0.00  0.00    +0.050 C 
BRANCH  16  17
ATOM     17  C   UNL     1     -11.179   7.912  19.689  0.00  0.00    -0.046 A 
ATOM     19  C   UNL     1     -10.628   9.193  19.748  0.00  0.00    +0.003 A 
ATOM     20  C   UNL     1     -11.218   7.224  18.477  0.00  0.00    +0.003 A 
ATOM     22  C   UNL     1     -10.118   9.786  18.592  0.00  0.00    +0.000 A 
ATOM     23  C   UNL     1     -10.708   7.818  17.321  0.00  0.00    +0.000 A 
ATOM     24  C   UNL     1     -10.158   9.098  17.379  0.00  0.00    +0.000 A 
ENDBRANCH  16  17
ENDBRANCH  14  16
ENDBRANCH   6  14
ENDBRANCH   8   6
BRANCH   9  12
ATOM     12  C   UNL     1     -14.697   4.974  23.414  0.00  0.00    +0.137 C 
BRANCH  12   7
ATOM      4  O   UNL     1     -15.610   2.481  24.561  0.00  0.00    -0.273 OA
ATOM      7  N   UNL     1     -15.452   4.802  24.618  0.00  0.00    -0.311 N 
ATOM     18  C   UNL     1     -15.853   3.558  25.100  0.00  0.00    +0.239 C 
ATOM     27  H   UNL     1     -15.716   5.636  25.135  0.00  0.00    +0.149 HD
BRANCH  18  21
ATOM     21  C   UNL     1     -16.637   3.671  26.389  0.00  0.00    +0.255 C 
BRANCH  21   5
ATOM      5  O   UNL     1     -16.925   2.391  26.911  0.00  0.00    -0.374 OA
ATOM     25  C   UNL     1     -17.319   2.452  28.279  0.00  0.00    +0.194 C 
ENDBRANCH  21   5
ENDBRANCH  18  21
ENDBRANCH  12   7
ENDBRANCH   9  12
BRANCH  11  13
ATOM     13  C   UNL     1     -18.540   6.876  23.780  0.00  0.00    +0.190 C 
BRANCH  13   3
ATOM      3  O   UNL     1     -17.937   6.445  24.989  0.00  0.00    -0.392 OA
ATOM     28  H   UNL     1     -16.988   6.645  24.923  0.00  0.00    +0.210 HD
ENDBRANCH  13   3
ENDBRANCH  11  13
TORSDOF 11
ENDMDL
MODEL 8
REMARK VINA RESULT:      -5.0     19.892     21.069
REMARK  Name = 28962146
REMARK  13 active torsions:
REMARK  status: ('A' for Active; 'I' for Inactive)
REMARK    1  A    between atoms: O_2  and  C_10
REMARK    2  A    between atoms: O_3  and  C_13
REMARK    3  A    between atoms: O_5  and  C_21
REMARK    4  A    between atoms: O_5  and  C_25
REMARK    5  A    between atoms: N_6  and  C_8
REMARK    6  A    between atoms: N_6  and  C_14
REMARK    7  A    between atoms: N_6  and  C_15
REMARK    8  A    between atoms: N_7  and  C_12
REMARK    9  A    between atoms: C_9  and  C_12
REMARK   10  A    between atoms: C_11  and  C_13
REMARK   11  A    between atoms: C_14  and  C_16
REMARK   12  A    between atoms: C_16  and  C_17
REMARK   13  A    between atoms: C_18  and  C_21
REMARK                            x       y       z     vdW  Elec       q    Type
REMARK                         _______ _______ _______ _____ _____    ______ ____
ROOT
ATOM      1  O   UNL     1      -6.045  -9.775  17.317  0.00  0.00    -0.365 OA
ATOM      8  C   UNL     1      -4.386 -10.754  15.918  0.00  0.00    +0.118 C 
ATOM      9  C   UNL     1      -5.585  -9.797  15.947  0.00  0.00    +0.155 C 
ATOM     10  C   UNL     1      -4.660 -11.680  17.093  0.00  0.00    +0.165 C 
ATOM     11  C   UNL     1      -5.258 -10.698  18.093  0.00  0.00    +0.174 C 
ENDROOT
BRANCH  10   2
ATOM      2  O   UNL     1      -5.608 -12.684  16.756  0.00  0.00    -0.388 OA
ATOM     26  H   UNL     1      -6.286 -12.694  17.453  0.00  0.00    +0.210 HD
ENDBRANCH  10   2
BRANCH   8   6
ATOM      6  N   UNL     1      -4.125 -11.418  14.653  0.00  0.00    -0.297 NA
ATOM     15  C   UNL     1      -3.381 -12.665  14.862  0.00  0.00    +0.105 C 
BRANCH   6  14
ATOM     14  C   UNL     1      -3.385 -10.538  13.745  0.00  0.00    +0.089 C 
BRANCH  14  16
ATOM     16  C   UNL     1      -2.759 -11.334  12.599  0.00  0.00    +0.050 C 
BRANCH  16  17
ATOM     17  C   UNL     1      -3.304 -10.902  11.261  0.00  0.00    -0.046 A 
ATOM     19  C   UNL     1      -3.120  -9.590  10.824  0.00  0.00    +0.003 A 
ATOM     20  C   UNL     1      -3.991 -11.814  10.461  0.00  0.00    +0.003 A 
ATOM     22  C   UNL     1      -3.624  -9.190   9.586  0.00  0.00    +0.000 A 
ATOM     23  C   UNL     1      -4.495 -11.414   9.222  0.00  0.00    +0.000 A 
ATOM     24  C   UNL     1      -4.312 -10.103   8.785  0.00  0.00    +0.000 A 
ENDBRANCH  16  17
ENDBRANCH  14  16
ENDBRANCH   6  14
ENDBRANCH   8   6
BRANCH   9  12
ATOM     12  C   UNL     1      -6.779 -10.170  15.075  0.00  0.00    +0.137 C 
BRANCH  12   7
ATOM      4  O   UNL     1      -6.863 -11.276  12.404  0.00  0.00    -0.273 OA
ATOM      7  N   UNL     1      -6.761  -9.447  13.840  0.00  0.00    -0.311 N 
ATOM     18  C   UNL     1      -6.805 -10.064  12.591  0.00  0.00    +0.239 C 
ATOM     27  H   UNL     1      -6.702  -8.434  13.884  0.00  0.00    +0.149 HD
BRANCH  18  21
ATOM     21  C   UNL     1      -6.773  -9.060  11.458  0.00  0.00    +0.255 C 
BRANCH  21   5
ATOM      5  O   UNL     1      -7.391  -9.591  10.305  0.00  0.00    -0.374 OA
ATOM     25  C   UNL     1      -8.402  -8.726   9.798  0.00  0.00    +0.194 C 
ENDBRANCH  21   5
ENDBRANCH  18  21
ENDBRANCH  12   7
ENDBRANCH   9  12
BRANCH  11  13
ATOM     13  C   UNL     1      -6.128 -11.314  19.173  0.00  0.00    +0.190 C 
BRANCH  13   3
ATOM      3  O   UNL     1      -6.673 -10.275  19.971  0.00  0.00    -0.392 OA
ATOM     28  H   UNL     1      -7.335 -10.681  20.556  0.00  0.00    +0.210 HD
ENDBRANCH  13   3
ENDBRANCH  11  13
TORSDOF 11
ENDMDL
MODEL 9
REMARK VINA RESULT:      -4.9      1.849      2.904
REMARK  Name = 28962146
REMARK  13 active torsions:
REMARK  status: ('A' for Active; 'I' for Inactive)
REMARK    1  A    between atoms: O_2  and  C_10
REMARK    2  A    between atoms: O_3  and  C_13
REMARK    3  A    between atoms: O_5  and  C_21
REMARK    4  A    between atoms: O_5  and  C_25
REMARK    5  A    between atoms: N_6  and  C_8
REMARK    6  A    between atoms: N_6  and  C_14
REMARK    7  A    between atoms: N_6  and  C_15
REMARK    8  A    between atoms: N_7  and  C_12
REMARK    9  A    between atoms: C_9  and  C_12
REMARK   10  A    between atoms: C_11  and  C_13
REMARK   11  A    between atoms: C_14  and  C_16
REMARK   12  A    between atoms: C_16  and  C_17
REMARK   13  A    between atoms: C_18  and  C_21
REMARK                            x       y       z     vdW  Elec       q    Type
REMARK                         _______ _______ _______ _____ _____    ______ ____
ROOT
ATOM      1  O   UNL     1     -16.391   5.537  22.687  0.00  0.00    -0.365 OA
ATOM      8  C   UNL     1     -14.331   6.492  21.973  0.00  0.00    +0.118 C 
ATOM      9  C   UNL     1     -15.815   6.324  21.621  0.00  0.00    +0.155 C 
ATOM     10  C   UNL     1     -14.044   5.273  22.837  0.00  0.00    +0.165 C 
ATOM     11  C   UNL     1     -15.352   5.163  23.611  0.00  0.00    +0.174 C 
ENDROOT
BRANCH  10   2
ATOM      2  O   UNL     1     -13.838   4.111  22.045  0.00  0.00    -0.388 OA
ATOM     26  H   UNL     1     -14.709   3.798  21.749  0.00  0.00    +0.210 HD
ENDBRANCH  10   2
BRANCH   8   6
ATOM      6  N   UNL     1     -13.424   6.687  20.855  0.00  0.00    -0.297 NA
ATOM     15  C   UNL     1     -12.069   6.245  21.200  0.00  0.00    +0.105 C 
BRANCH   6  14
ATOM     14  C   UNL     1     -13.403   8.092  20.439  0.00  0.00    +0.089 C 
BRANCH  14  16
ATOM     16  C   UNL     1     -12.033   8.720  20.696  0.00  0.00    +0.050 C 
BRANCH  16  17
ATOM     17  C   UNL     1     -11.334   9.072  19.406  0.00  0.00    -0.046 A 
ATOM     19  C   UNL     1     -11.225   8.122  18.391  0.00  0.00    +0.003 A 
ATOM     20  C   UNL     1     -10.799  10.348  19.230  0.00  0.00    +0.003 A 
ATOM     22  C   UNL     1     -10.579   8.449  17.198  0.00  0.00    +0.000 A 
ATOM     23  C   UNL     1     -10.153  10.674  18.036  0.00  0.00    +0.000 A 
ATOM     24  C   UNL     1     -10.043   9.725  17.021  0.00  0.00    +0.000 A 
ENDBRANCH  16  17
ENDBRANCH  14  16
ENDBRANCH   6  14
ENDBRANCH   8   6
BRANCH   9  12
ATOM     12  C   UNL     1     -16.131   5.611  20.311  0.00  0.00    +0.137 C 
BRANCH  12   7
ATOM      4  O   UNL     1     -18.472   6.989  19.318  0.00  0.00    -0.273 OA
ATOM      7  N   UNL     1     -16.191   6.537  19.221  0.00  0.00    -0.311 N 
ATOM     18  C   UNL     1     -17.367   7.157  18.807  0.00  0.00    +0.239 C 
ATOM     27  H   UNL     1     -15.329   6.737  18.721  0.00  0.00    +0.149 HD
BRANCH  18  21
ATOM     21  C   UNL     1     -17.140   8.087  17.634  0.00  0.00    +0.255 C 
BRANCH  21   5
ATOM      5  O   UNL     1     -15.826   7.949  17.137  0.00  0.00    -0.374 OA
ATOM     25  C   UNL     1     -15.815   7.618  15.752  0.00  0.00    +0.194 C 
ENDBRANCH  21   5
ENDBRANCH  18  21
ENDBRANCH  12   7
ENDBRANCH   9  12
BRANCH  11  13
ATOM     13  C   UNL     1     -15.659   3.792  24.183  0.00  0.00    +0.190 C 
BRANCH  13   3
ATOM      3  O   UNL     1     -16.010   2.920  23.121  0.00  0.00    -0.392 OA
ATOM     28  H   UNL     1     -16.429   3.462  22.431  0.00  0.00    +0.210 HD
ENDBRANCH  13   3
ENDBRANCH  11  13
TORSDOF 11
ENDMDL
MODEL 10
REMARK VINA RESULT:      -4.8     26.703     28.109
REMARK  Name = 28962146
REMARK  13 active torsions:
REMARK  status: ('A' for Active; 'I' for Inactive)
REMARK    1  A    between atoms: O_2  and  C_10
REMARK    2  A    between atoms: O_3  and  C_13
REMARK    3  A    between atoms: O_5  and  C_21
REMARK    4  A    between atoms: O_5  and  C_25
REMARK    5  A    between atoms: N_6  and  C_8
REMARK    6  A    between atoms: N_6  and  C_14
REMARK    7  A    between atoms: N_6  and  C_15
REMARK    8  A    between atoms: N_7  and  C_12
REMARK    9  A    between atoms: C_9  and  C_12
REMARK   10  A    between atoms: C_11  and  C_13
REMARK   11  A    between atoms: C_14  and  C_16
REMARK   12  A    between atoms: C_16  and  C_17
REMARK   13  A    between atoms: C_18  and  C_21
REMARK                            x       y       z     vdW  Elec       q    Type
REMARK                         _______ _______ _______ _____ _____    ______ ____
ROOT
ATOM      1  O   UNL     1       8.673   6.593   8.474  0.00  0.00    -0.365 OA
ATOM      8  C   UNL     1      10.570   7.346   7.249  0.00  0.00    +0.118 C 
ATOM      9  C   UNL     1       9.043   7.445   7.368  0.00  0.00    +0.155 C 
ATOM     10  C   UNL     1      10.872   5.981   7.849  0.00  0.00    +0.165 C 
ATOM     11  C   UNL     1       9.852   5.939   8.981  0.00  0.00    +0.174 C 
ENDROOT
BRANCH  10   2
ATOM      2  O   UNL     1      10.623   4.936   6.919  0.00  0.00    -0.388 OA
ATOM     26  H   UNL     1      11.410   4.850   6.355  0.00  0.00    +0.210 HD
ENDBRANCH  10   2
BRANCH   8   6
ATOM      6  N   UNL     1      11.128   7.580   5.929  0.00  0.00    -0.297 NA
ATOM     15  C   UNL     1      12.485   7.033   5.832  0.00  0.00    +0.105 C 
BRANCH   6  14
ATOM     14  C   UNL     1      11.140   9.012   5.613  0.00  0.00    +0.089 C 
BRANCH  14  16
ATOM     16  C   UNL     1      11.450   9.845   6.857  0.00  0.00    +0.050 C 
BRANCH  16  17
ATOM     17  C   UNL     1      10.424  10.930   7.068  0.00  0.00    -0.046 A 
ATOM     19  C   UNL     1       9.498  11.217   6.066  0.00  0.00    +0.003 A 
ATOM     20  C   UNL     1      10.402  11.644   8.266  0.00  0.00    +0.003 A 
ATOM     22  C   UNL     1       8.548  12.220   6.261  0.00  0.00    +0.000 A 
ATOM     23  C   UNL     1       9.451  12.648   8.460  0.00  0.00    +0.000 A 
ATOM     24  C   UNL     1       8.525  12.936   7.459  0.00  0.00    +0.000 A 
ENDBRANCH  16  17
ENDBRANCH  14  16
ENDBRANCH   6  14
ENDBRANCH   8   6
BRANCH   9  12
ATOM     12  C   UNL     1       8.233   6.992   6.158  0.00  0.00    +0.137 C 
BRANCH  12   7
ATOM      4  O   UNL     1       8.564   7.436   3.319  0.00  0.00    -0.273 OA
ATOM      7  N   UNL     1       7.769   8.113   5.399  0.00  0.00    -0.311 N 
ATOM     18  C   UNL     1       7.973   8.247   4.027  0.00  0.00    +0.239 C 
ATOM     27  H   UNL     1       7.276   8.850   5.895  0.00  0.00    +0.149 HD
BRANCH  18  21
ATOM     21  C   UNL     1       7.377   9.528   3.484  0.00  0.00    +0.255 C 
BRANCH  21   5
ATOM      5  O   UNL     1       6.393  10.031   4.364  0.00  0.00    -0.374 OA
ATOM     25  C   UNL     1       5.284  10.582   3.661  0.00  0.00    +0.194 C 
ENDBRANCH  21   5
ENDBRANCH  18  21
ENDBRANCH  12   7
ENDBRANCH   9  12
BRANCH  11  13
ATOM     13  C   UNL     1       9.484   4.553   9.477  0.00  0.00    +0.190 C 
BRANCH  13   3
ATOM      3  O   UNL     1       9.984   4.390  10.795  0.00  0.00    -0.392 OA
ATOM     28  H   UNL     1       9.335   3.855  11.283  0.00  0.00    +0.210 HD
ENDBRANCH  13   3
ENDBRANCH  11  13
TORSDOF 11
ENDMDL
