MODEL 1
REMARK VINA RESULT:      -7.2      0.000      0.000
REMARK  Name = 45783329
REMARK  5 active torsions:
REMARK  status: ('A' for Active; 'I' for Inactive)
REMARK    1  A    between atoms: N_4  and  C_17
REMARK    2  A    between atoms: C_10  and  C_20
REMARK    3  A    between atoms: C_14  and  C_22
REMARK    4  A    between atoms: C_17  and  C_23
REMARK    5  A    between atoms: C_24  and  C_26
REMARK                            x       y       z     vdW  Elec       q    Type
REMARK                         _______ _______ _______ _____ _____    ______ ____
ROOT
ATOM      5  N   UNL     1      -4.281 -11.018  14.813  0.00  0.00    -0.315 N 
ATOM      8  N   UNL     1      -2.421 -10.929  13.350  0.00  0.00    -0.240 NA
ATOM     14  C   UNL     1      -5.344 -11.645  17.440  0.00  0.00    +0.078 C 
ATOM     15  C   UNL     1      -4.207 -10.645  17.245  0.00  0.00    +0.031 C 
ATOM     16  C   UNL     1      -6.189 -11.778  16.176  0.00  0.00    +0.031 C 
ATOM     18  C   UNL     1      -3.394 -10.910  15.978  0.00  0.00    +0.107 C 
ATOM     19  C   UNL     1      -5.359 -12.006  14.910  0.00  0.00    +0.107 C 
ATOM     21  C   UNL     1      -3.739 -10.710  13.559  0.00  0.00    +0.122 A 
ATOM     25  C   UNL     1      -4.601 -10.193  12.606  0.00  0.00    +0.055 A 
ATOM     26  C   UNL     1      -4.077  -9.880  11.357  0.00  0.00    +0.027 A 
ATOM     28  C   UNL     1      -2.726 -10.090  11.102  0.00  0.00    +0.031 A 
ATOM     29  C   UNL     1      -1.948 -10.612  12.123  0.00  0.00    +0.113 A 
ENDROOT
BRANCH  26  24
ATOM      2  O   UNL     1      -5.996  -7.981   9.079  0.00  0.00    -0.336 OA
ATOM      6  N   UNL     1      -5.604 -10.152   9.465  0.00  0.00    -0.190 NA
ATOM      7  N   UNL     1      -5.111  -8.030  10.164  0.00  0.00    -0.056 NA
ATOM     20  C   UNL     1      -6.233  -9.271   8.729  0.00  0.00    +0.245 A 
ATOM     24  C   UNL     1      -4.928  -9.343  10.332  0.00  0.00    +0.202 A 
BRANCH  20  10
ATOM      4  N   UNL     1      -8.040  -8.323   7.304  0.00  0.00    -0.287 NA
ATOM     10  C   UNL     1      -7.174  -9.491   7.562  0.00  0.00    +0.146 C 
ATOM     11  C   UNL     1      -6.430  -9.726   6.235  0.00  0.00    +0.030 C 
ATOM     12  C   UNL     1      -6.987  -8.684   5.276  0.00  0.00    +0.017 C 
ATOM     13  C   UNL     1      -8.336  -8.336   5.872  0.00  0.00    +0.085 C 
BRANCH   4  17
ATOM     17  C   UNL     1      -9.251  -8.315   8.116  0.00  0.00    +0.127 C 
BRANCH  17  23
ATOM      1  S   UNL     1     -11.253  -6.656   9.102  0.00  0.00    -0.100 S 
ATOM     23  C   UNL     1      -9.687  -6.916   8.459  0.00  0.00    +0.004 A 
ATOM     27  C   UNL     1      -8.979  -5.741   8.327  0.00  0.00    +0.012 A 
ATOM     30  C   UNL     1      -9.733  -4.612   8.760  0.00  0.00    +0.008 A 
ATOM     31  C   UNL     1     -10.988  -4.967   9.207  0.00  0.00    +0.045 A 
ENDBRANCH  17  23
ENDBRANCH   4  17
ENDBRANCH  20  10
ENDBRANCH  26  24
BRANCH  14  22
ATOM      3  O   UNL     1      -5.213 -14.033  17.411  0.00  0.00    -0.276 OA
ATOM      9  N   UNL     1      -3.852 -12.885  18.869  0.00  0.00    -0.329 N 
ATOM     22  C   UNL     1      -4.807 -12.974  17.885  0.00  0.00    +0.214 C 
ATOM     32  H   UNL     1      -3.418 -13.721  19.246  0.00  0.00    +0.145 HD
ATOM     33  H   UNL     1      -3.574 -12.006  19.292  0.00  0.00    +0.145 HD
ENDBRANCH  14  22
TORSDOF 5
ENDMDL
MODEL 2
REMARK VINA RESULT:      -7.2     29.361     32.399
REMARK  Name = 45783329
REMARK  5 active torsions:
REMARK  status: ('A' for Active; 'I' for Inactive)
REMARK    1  A    between atoms: N_4  and  C_17
REMARK    2  A    between atoms: C_10  and  C_20
REMARK    3  A    between atoms: C_14  and  C_22
REMARK    4  A    between atoms: C_17  and  C_23
REMARK    5  A    between atoms: C_24  and  C_26
REMARK                            x       y       z     vdW  Elec       q    Type
REMARK                         _______ _______ _______ _____ _____    ______ ____
ROOT
ATOM      5  N   UNL     1      14.728   7.327  20.775  0.00  0.00    -0.315 N 
ATOM      8  N   UNL     1      15.936   6.152  19.112  0.00  0.00    -0.240 NA
ATOM     14  C   UNL     1      12.195   8.378  21.727  0.00  0.00    +0.078 C 
ATOM     15  C   UNL     1      12.392   6.895  21.421  0.00  0.00    +0.031 C 
ATOM     16  C   UNL     1      13.523   9.059  22.049  0.00  0.00    +0.031 C 
ATOM     18  C   UNL     1      13.489   6.643  20.387  0.00  0.00    +0.107 C 
ATOM     19  C   UNL     1      14.622   8.767  21.025  0.00  0.00    +0.107 C 
ATOM     21  C   UNL     1      15.934   6.797  20.300  0.00  0.00    +0.122 A 
ATOM     25  C   UNL     1      17.058   6.970  21.091  0.00  0.00    +0.055 A 
ATOM     26  C   UNL     1      18.262   6.447  20.633  0.00  0.00    +0.027 A 
ATOM     28  C   UNL     1      18.305   5.776  19.416  0.00  0.00    +0.031 A 
ATOM     29  C   UNL     1      17.125   5.658  18.700  0.00  0.00    +0.113 A 
ENDROOT
BRANCH  26  24
ATOM      2  O   UNL     1      20.834   6.616  23.048  0.00  0.00    -0.336 OA
ATOM      6  N   UNL     1      20.624   7.041  20.859  0.00  0.00    -0.190 NA
ATOM      7  N   UNL     1      19.504   6.325  22.721  0.00  0.00    -0.056 NA
ATOM     20  C   UNL     1      21.424   7.030  21.896  0.00  0.00    +0.245 A 
ATOM     24  C   UNL     1      19.458   6.600  21.414  0.00  0.00    +0.202 A 
BRANCH  20  10
ATOM      4  N   UNL     1      23.781   6.336  21.504  0.00  0.00    -0.287 NA
ATOM     10  C   UNL     1      22.887   7.408  21.985  0.00  0.00    +0.146 C 
ATOM     11  C   UNL     1      23.240   8.630  21.117  0.00  0.00    +0.030 C 
ATOM     12  C   UNL     1      24.380   8.166  20.222  0.00  0.00    +0.017 C 
ATOM     13  C   UNL     1      24.976   6.998  20.980  0.00  0.00    +0.085 C 
BRANCH   4  17
ATOM     17  C   UNL     1      24.103   5.352  22.530  0.00  0.00    +0.127 C 
BRANCH  17  23
ATOM      1  S   UNL     1      23.877   2.624  23.021  0.00  0.00    -0.100 S 
ATOM     23  C   UNL     1      24.141   3.954  21.975  0.00  0.00    +0.004 A 
ATOM     27  C   UNL     1      24.370   3.554  20.676  0.00  0.00    +0.012 A 
ATOM     30  C   UNL     1      24.329   2.136  20.539  0.00  0.00    +0.008 A 
ATOM     31  C   UNL     1      24.069   1.507  21.737  0.00  0.00    +0.045 A 
ENDBRANCH  17  23
ENDBRANCH   4  17
ENDBRANCH  20  10
ENDBRANCH  26  24
BRANCH  14  22
ATOM      3  O   UNL     1      10.643   8.485  19.911  0.00  0.00    -0.276 OA
ATOM      9  N   UNL     1      11.887  10.360  20.393  0.00  0.00    -0.329 N 
ATOM     22  C   UNL     1      11.487   9.061  20.594  0.00  0.00    +0.214 C 
ATOM     32  H   UNL     1      11.474  10.920  19.654  0.00  0.00    +0.145 HD
ATOM     33  H   UNL     1      12.630  10.799  20.927  0.00  0.00    +0.145 HD
ENDBRANCH  14  22
TORSDOF 5
ENDMDL
MODEL 3
REMARK VINA RESULT:      -7.2     23.365     26.374
REMARK  Name = 45783329
REMARK  5 active torsions:
REMARK  status: ('A' for Active; 'I' for Inactive)
REMARK    1  A    between atoms: N_4  and  C_17
REMARK    2  A    between atoms: C_10  and  C_20
REMARK    3  A    between atoms: C_14  and  C_22
REMARK    4  A    between atoms: C_17  and  C_23
REMARK    5  A    between atoms: C_24  and  C_26
REMARK                            x       y       z     vdW  Elec       q    Type
REMARK                         _______ _______ _______ _____ _____    ______ ____
ROOT
ATOM      5  N   UNL     1      10.759   3.609  -1.948  0.00  0.00    -0.315 N 
ATOM      8  N   UNL     1      12.826   3.163  -0.882  0.00  0.00    -0.240 NA
ATOM     14  C   UNL     1       9.033   3.272  -4.258  0.00  0.00    +0.078 C 
ATOM     15  C   UNL     1       9.576   2.080  -3.473  0.00  0.00    +0.031 C 
ATOM     16  C   UNL     1       8.990   4.531  -3.396  0.00  0.00    +0.031 C 
ATOM     18  C   UNL     1      10.890   2.390  -2.756  0.00  0.00    +0.107 C 
ATOM     19  C   UNL     1      10.301   4.808  -2.655  0.00  0.00    +0.107 C 
ATOM     21  C   UNL     1      11.605   3.743  -0.841  0.00  0.00    +0.122 A 
ATOM     25  C   UNL     1      11.128   4.469   0.238  0.00  0.00    +0.055 A 
ATOM     26  C   UNL     1      11.956   4.610   1.346  0.00  0.00    +0.027 A 
ATOM     28  C   UNL     1      13.218   4.027   1.342  0.00  0.00    +0.031 A 
ATOM     29  C   UNL     1      13.603   3.321   0.213  0.00  0.00    +0.113 A 
ENDROOT
BRANCH  26  24
ATOM      2  O   UNL     1      11.076   6.959   3.832  0.00  0.00    -0.336 OA
ATOM      6  N   UNL     1      10.935   4.739   3.565  0.00  0.00    -0.190 NA
ATOM      7  N   UNL     1      11.629   6.682   2.575  0.00  0.00    -0.056 NA
ATOM     20  C   UNL     1      10.692   5.761   4.346  0.00  0.00    +0.245 A 
ATOM     24  C   UNL     1      11.509   5.354   2.490  0.00  0.00    +0.202 A 
BRANCH  20  10
ATOM      4  N   UNL     1      10.594   6.868   6.572  0.00  0.00    -0.287 NA
ATOM     10  C   UNL     1      10.055   5.790   5.720  0.00  0.00    +0.146 C 
ATOM     11  C   UNL     1       8.539   6.054   5.667  0.00  0.00    +0.030 C 
ATOM     12  C   UNL     1       8.314   7.261   6.566  0.00  0.00    +0.017 C 
ATOM     13  C   UNL     1       9.517   7.249   7.487  0.00  0.00    +0.085 C 
BRANCH   4  17
ATOM     17  C   UNL     1      11.808   6.487   7.283  0.00  0.00    +0.127 C 
BRANCH  17  23
ATOM      1  S   UNL     1      12.748   9.057   6.786  0.00  0.00    -0.100 S 
ATOM     23  C   UNL     1      12.974   7.364   6.912  0.00  0.00    +0.004 A 
ATOM     27  C   UNL     1      14.273   6.994   6.641  0.00  0.00    +0.012 A 
ATOM     30  C   UNL     1      15.094   8.115   6.325  0.00  0.00    +0.008 A 
ATOM     31  C   UNL     1      14.391   9.300   6.368  0.00  0.00    +0.045 A 
ENDBRANCH  17  23
ENDBRANCH   4  17
ENDBRANCH  20  10
ENDBRANCH  26  24
BRANCH  14  22
ATOM      3  O   UNL     1      10.419   4.546  -5.734  0.00  0.00    -0.276 OA
ATOM      9  N   UNL     1       9.831   2.413  -6.363  0.00  0.00    -0.329 N 
ATOM     22  C   UNL     1       9.835   3.488  -5.509  0.00  0.00    +0.214 C 
ATOM     32  H   UNL     1      10.342   2.446  -7.239  0.00  0.00    +0.145 HD
ATOM     33  H   UNL     1       9.292   1.570  -6.189  0.00  0.00    +0.145 HD
ENDBRANCH  14  22
TORSDOF 5
ENDMDL
MODEL 4
REMARK VINA RESULT:      -7.1      2.662      8.415
REMARK  Name = 45783329
REMARK  5 active torsions:
REMARK  status: ('A' for Active; 'I' for Inactive)
REMARK    1  A    between atoms: N_4  and  C_17
REMARK    2  A    between atoms: C_10  and  C_20
REMARK    3  A    between atoms: C_14  and  C_22
REMARK    4  A    between atoms: C_17  and  C_23
REMARK    5  A    between atoms: C_24  and  C_26
REMARK                            x       y       z     vdW  Elec       q    Type
REMARK                         _______ _______ _______ _____ _____    ______ ____
ROOT
ATOM      5  N   UNL     1      -5.373  -9.960  10.636  0.00  0.00    -0.315 N 
ATOM      8  N   UNL     1      -3.032 -10.115  10.958  0.00  0.00    -0.240 NA
ATOM     14  C   UNL     1      -7.611  -9.610   8.820  0.00  0.00    +0.078 C 
ATOM     15  C   UNL     1      -6.599 -10.741   8.649  0.00  0.00    +0.031 C 
ATOM     16  C   UNL     1      -7.663  -9.128  10.267  0.00  0.00    +0.031 C 
ATOM     18  C   UNL     1      -5.231 -10.409   9.245  0.00  0.00    +0.107 C 
ATOM     19  C   UNL     1      -6.284  -8.835  10.863  0.00  0.00    +0.107 C 
ATOM     21  C   UNL     1      -4.277 -10.141  11.487  0.00  0.00    +0.122 A 
ATOM     25  C   UNL     1      -4.544 -10.339  12.832  0.00  0.00    +0.055 A 
ATOM     26  C   UNL     1      -3.465 -10.522  13.690  0.00  0.00    +0.027 A 
ATOM     28  C   UNL     1      -2.170 -10.503  13.184  0.00  0.00    +0.031 A 
ATOM     29  C   UNL     1      -2.009 -10.297  11.823  0.00  0.00    +0.113 A 
ENDROOT
BRANCH  26  24
ATOM      2  O   UNL     1      -3.389 -11.227  17.150  0.00  0.00    -0.336 OA
ATOM      6  N   UNL     1      -4.896 -10.476  15.673  0.00  0.00    -0.190 NA
ATOM      7  N   UNL     1      -2.733 -11.183  15.913  0.00  0.00    -0.056 NA
ATOM     20  C   UNL     1      -4.657 -10.794  16.920  0.00  0.00    +0.245 A 
ATOM     24  C   UNL     1      -3.687 -10.730  15.094  0.00  0.00    +0.202 A 
BRANCH  20  10
ATOM      4  N   UNL     1      -7.004 -10.651  17.733  0.00  0.00    -0.287 NA
ATOM     10  C   UNL     1      -5.582 -10.748  18.118  0.00  0.00    +0.146 C 
ATOM     11  C   UNL     1      -5.496 -12.018  18.985  0.00  0.00    +0.030 C 
ATOM     12  C   UNL     1      -6.926 -12.530  19.080  0.00  0.00    +0.017 C 
ATOM     13  C   UNL     1      -7.766 -11.301  18.799  0.00  0.00    +0.085 C 
BRANCH   4  17
ATOM     17  C   UNL     1      -7.444  -9.281  17.499  0.00  0.00    +0.127 C 
BRANCH  17  23
ATOM      1  S   UNL     1      -9.788  -8.186  16.478  0.00  0.00    -0.100 S 
ATOM     23  C   UNL     1      -8.408  -9.191  16.346  0.00  0.00    +0.004 A 
ATOM     27  C   UNL     1      -8.348  -9.832  15.127  0.00  0.00    +0.012 A 
ATOM     30  C   UNL     1      -9.451  -9.492  14.291  0.00  0.00    +0.008 A 
ATOM     31  C   UNL     1     -10.311  -8.606  14.902  0.00  0.00    +0.045 A 
ENDBRANCH  17  23
ENDBRANCH   4  17
ENDBRANCH  20  10
ENDBRANCH  26  24
BRANCH  14  22
ATOM      3  O   UNL     1      -7.574  -7.315   8.148  0.00  0.00    -0.276 OA
ATOM      9  N   UNL     1      -6.735  -8.889   6.694  0.00  0.00    -0.329 N 
ATOM     22  C   UNL     1      -7.308  -8.484   7.875  0.00  0.00    +0.214 C 
ATOM     32  H   UNL     1      -6.486  -8.213   5.981  0.00  0.00    +0.145 HD
ATOM     33  H   UNL     1      -6.579  -9.865   6.461  0.00  0.00    +0.145 HD
ENDBRANCH  14  22
TORSDOF 5
ENDMDL
MODEL 5
REMARK VINA RESULT:      -7.1      3.493      8.459
REMARK  Name = 45783329
REMARK  5 active torsions:
REMARK  status: ('A' for Active; 'I' for Inactive)
REMARK    1  A    between atoms: N_4  and  C_17
REMARK    2  A    between atoms: C_10  and  C_20
REMARK    3  A    between atoms: C_14  and  C_22
REMARK    4  A    between atoms: C_17  and  C_23
REMARK    5  A    between atoms: C_24  and  C_26
REMARK                            x       y       z     vdW  Elec       q    Type
REMARK                         _______ _______ _______ _____ _____    ______ ____
ROOT
ATOM      5  N   UNL     1      -3.802 -10.682  12.534  0.00  0.00    -0.315 N 
ATOM      8  N   UNL     1      -1.935 -10.364  13.955  0.00  0.00    -0.240 NA
ATOM     14  C   UNL     1      -4.891 -10.757   9.845  0.00  0.00    +0.078 C 
ATOM     15  C   UNL     1      -3.731 -11.653  10.273  0.00  0.00    +0.031 C 
ATOM     16  C   UNL     1      -5.732 -10.327  11.043  0.00  0.00    +0.031 C 
ATOM     18  C   UNL     1      -2.919 -11.062  11.425  0.00  0.00    +0.107 C 
ATOM     19  C   UNL     1      -4.902  -9.772  12.203  0.00  0.00    +0.107 C 
ATOM     21  C   UNL     1      -3.249 -10.654  13.820  0.00  0.00    +0.122 A 
ATOM     25  C   UNL     1      -4.095 -10.932  14.881  0.00  0.00    +0.055 A 
ATOM     26  C   UNL     1      -3.559 -10.910  16.164  0.00  0.00    +0.027 A 
ATOM     28  C   UNL     1      -2.212 -10.617  16.344  0.00  0.00    +0.031 A 
ATOM     29  C   UNL     1      -1.450 -10.353  15.217  0.00  0.00    +0.113 A 
ENDROOT
BRANCH  26  24
ATOM      2  O   UNL     1      -5.061 -11.806  19.233  0.00  0.00    -0.336 OA
ATOM      6  N   UNL     1      -5.735 -10.938  17.281  0.00  0.00    -0.190 NA
ATOM      7  N   UNL     1      -3.915 -11.710  18.433  0.00  0.00    -0.056 NA
ATOM     20  C   UNL     1      -6.087 -11.330  18.479  0.00  0.00    +0.245 A 
ATOM     24  C   UNL     1      -4.394 -11.189  17.299  0.00  0.00    +0.202 A 
BRANCH  20  10
ATOM      4  N   UNL     1      -8.548 -11.192  18.145  0.00  0.00    -0.287 NA
ATOM     10  C   UNL     1      -7.455 -11.327  19.128  0.00  0.00    +0.146 C 
ATOM     11  C   UNL     1      -7.761 -12.637  19.876  0.00  0.00    +0.030 C 
ATOM     12  C   UNL     1      -9.075 -13.134  19.288  0.00  0.00    +0.017 C 
ATOM     13  C   UNL     1      -9.706 -11.880  18.717  0.00  0.00    +0.085 C 
BRANCH   4  17
ATOM     17  C   UNL     1      -8.846  -9.806  17.804  0.00  0.00    +0.127 C 
BRANCH  17  23
ATOM      1  S   UNL     1     -10.639  -8.838  15.911  0.00  0.00    -0.100 S 
ATOM     23  C   UNL     1      -9.197  -9.650  16.348  0.00  0.00    +0.004 A 
ATOM     27  C   UNL     1      -8.494 -10.087  15.246  0.00  0.00    +0.012 A 
ATOM     30  C   UNL     1      -9.150  -9.751  14.027  0.00  0.00    +0.008 A 
ATOM     31  C   UNL     1     -10.327  -9.069  14.243  0.00  0.00    +0.045 A 
ENDBRANCH  17  23
ENDBRANCH   4  17
ENDBRANCH  20  10
ENDBRANCH  26  24
BRANCH  14  22
ATOM      3  O   UNL     1      -3.394  -8.938   9.431  0.00  0.00    -0.276 OA
ATOM      9  N   UNL     1      -5.138  -9.267   7.967  0.00  0.00    -0.329 N 
ATOM     22  C   UNL     1      -4.384  -9.572   9.074  0.00  0.00    +0.214 C 
ATOM     32  H   UNL     1      -4.888  -8.486   7.370  0.00  0.00    +0.145 HD
ATOM     33  H   UNL     1      -5.989  -9.764   7.722  0.00  0.00    +0.145 HD
ENDBRANCH  14  22
TORSDOF 5
ENDMDL
MODEL 6
REMARK VINA RESULT:      -6.9     29.400     32.169
REMARK  Name = 45783329
REMARK  5 active torsions:
REMARK  status: ('A' for Active; 'I' for Inactive)
REMARK    1  A    between atoms: N_4  and  C_17
REMARK    2  A    between atoms: C_10  and  C_20
REMARK    3  A    between atoms: C_14  and  C_22
REMARK    4  A    between atoms: C_17  and  C_23
REMARK    5  A    between atoms: C_24  and  C_26
REMARK                            x       y       z     vdW  Elec       q    Type
REMARK                         _______ _______ _______ _____ _____    ______ ____
ROOT
ATOM      5  N   UNL     1      14.574   7.253  20.734  0.00  0.00    -0.315 N 
ATOM      8  N   UNL     1      15.900   6.211  19.072  0.00  0.00    -0.240 NA
ATOM     14  C   UNL     1      11.974   8.218  21.591  0.00  0.00    +0.078 C 
ATOM     15  C   UNL     1      12.205   6.763  21.191  0.00  0.00    +0.031 C 
ATOM     16  C   UNL     1      13.270   8.880  22.049  0.00  0.00    +0.031 C 
ATOM     18  C   UNL     1      13.369   6.593  20.215  0.00  0.00    +0.107 C 
ATOM     19  C   UNL     1      14.437   8.670  21.081  0.00  0.00    +0.107 C 
ATOM     21  C   UNL     1      15.813   6.766  20.302  0.00  0.00    +0.122 A 
ATOM     25  C   UNL     1      16.881   6.886  21.176  0.00  0.00    +0.055 A 
ATOM     26  C   UNL     1      18.118   6.405  20.762  0.00  0.00    +0.027 A 
ATOM     28  C   UNL     1      18.248   5.826  19.504  0.00  0.00    +0.031 A 
ATOM     29  C   UNL     1      17.118   5.755  18.704  0.00  0.00    +0.113 A 
ENDROOT
BRANCH  26  24
ATOM      2  O   UNL     1      21.181   6.196  22.510  0.00  0.00    -0.336 OA
ATOM      6  N   UNL     1      19.277   7.363  22.691  0.00  0.00    -0.190 NA
ATOM      7  N   UNL     1      20.362   5.773  21.455  0.00  0.00    -0.056 NA
ATOM     20  C   UNL     1      20.467   7.133  23.187  0.00  0.00    +0.245 A 
ATOM     24  C   UNL     1      19.259   6.506  21.629  0.00  0.00    +0.202 A 
BRANCH  20  10
ATOM      4  N   UNL     1      20.702   9.144  24.633  0.00  0.00    -0.287 NA
ATOM     10  C   UNL     1      21.143   7.756  24.391  0.00  0.00    +0.146 C 
ATOM     11  C   UNL     1      20.828   7.011  25.701  0.00  0.00    +0.030 C 
ATOM     12  C   UNL     1      20.272   8.074  26.639  0.00  0.00    +0.017 C 
ATOM     13  C   UNL     1      20.819   9.369  26.074  0.00  0.00    +0.085 C 
BRANCH   4  17
ATOM     17  C   UNL     1      21.452  10.128  23.861  0.00  0.00    +0.127 C 
BRANCH  17  23
ATOM      1  S   UNL     1      19.239  11.633  23.103  0.00  0.00    -0.100 S 
ATOM     23  C   UNL     1      20.631  10.704  22.739  0.00  0.00    +0.004 A 
ATOM     27  C   UNL     1      20.838  10.592  21.381  0.00  0.00    +0.012 A 
ATOM     30  C   UNL     1      19.840  11.278  20.631  0.00  0.00    +0.008 A 
ATOM     31  C   UNL     1      18.909  11.889  21.443  0.00  0.00    +0.045 A 
ENDBRANCH  17  23
ENDBRANCH   4  17
ENDBRANCH  20  10
ENDBRANCH  26  24
BRANCH  14  22
ATOM      3  O   UNL     1      10.575   8.442  19.664  0.00  0.00    -0.276 OA
ATOM      9  N   UNL     1      11.695  10.305  20.419  0.00  0.00    -0.329 N 
ATOM     22  C   UNL     1      11.335   8.980  20.467  0.00  0.00    +0.214 C 
ATOM     32  H   UNL     1      11.322  10.916  19.701  0.00  0.00    +0.145 HD
ATOM     33  H   UNL     1      12.372  10.717  21.053  0.00  0.00    +0.145 HD
ENDBRANCH  14  22
TORSDOF 5
ENDMDL
MODEL 7
REMARK VINA RESULT:      -6.9     29.331     32.454
REMARK  Name = 45783329
REMARK  5 active torsions:
REMARK  status: ('A' for Active; 'I' for Inactive)
REMARK    1  A    between atoms: N_4  and  C_17
REMARK    2  A    between atoms: C_10  and  C_20
REMARK    3  A    between atoms: C_14  and  C_22
REMARK    4  A    between atoms: C_17  and  C_23
REMARK    5  A    between atoms: C_24  and  C_26
REMARK                            x       y       z     vdW  Elec       q    Type
REMARK                         _______ _______ _______ _____ _____    ______ ____
ROOT
ATOM      5  N   UNL     1      14.668   7.811  19.418  0.00  0.00    -0.315 N 
ATOM      8  N   UNL     1      16.303   6.166  18.938  0.00  0.00    -0.240 NA
ATOM     14  C   UNL     1      12.022   8.898  18.928  0.00  0.00    +0.078 C 
ATOM     15  C   UNL     1      12.232   7.458  19.390  0.00  0.00    +0.031 C 
ATOM     16  C   UNL     1      13.197   9.786  19.328  0.00  0.00    +0.031 C 
ATOM     18  C   UNL     1      13.598   6.900  18.992  0.00  0.00    +0.107 C 
ATOM     19  C   UNL     1      14.560   9.197  18.957  0.00  0.00    +0.107 C 
ATOM     21  C   UNL     1      15.934   7.257  19.647  0.00  0.00    +0.122 A 
ATOM     25  C   UNL     1      16.732   7.871  20.597  0.00  0.00    +0.055 A 
ATOM     26  C   UNL     1      17.991   7.332  20.836  0.00  0.00    +0.027 A 
ATOM     28  C   UNL     1      18.407   6.209  20.128  0.00  0.00    +0.031 A 
ATOM     29  C   UNL     1      17.533   5.670  19.198  0.00  0.00    +0.113 A 
ENDROOT
BRANCH  26  24
ATOM      2  O   UNL     1      19.884   9.369  23.014  0.00  0.00    -0.336 OA
ATOM      6  N   UNL     1      19.667   7.176  22.611  0.00  0.00    -0.190 NA
ATOM      7  N   UNL     1      18.933   9.253  21.992  0.00  0.00    -0.056 NA
ATOM     20  C   UNL     1      20.264   8.101  23.320  0.00  0.00    +0.245 A 
ATOM     24  C   UNL     1      18.860   7.931  21.811  0.00  0.00    +0.202 A 
BRANCH  20  10
ATOM      4  N   UNL     1      22.451   7.127  23.997  0.00  0.00    -0.287 NA
ATOM     10  C   UNL     1      21.301   7.953  24.414  0.00  0.00    +0.146 C 
ATOM     11  C   UNL     1      21.917   9.299  24.835  0.00  0.00    +0.030 C 
ATOM     12  C   UNL     1      23.420   9.115  24.678  0.00  0.00    +0.017 C 
ATOM     13  C   UNL     1      23.605   7.613  24.754  0.00  0.00    +0.085 C 
BRANCH   4  17
ATOM     17  C   UNL     1      22.233   5.698  24.185  0.00  0.00    +0.127 C 
BRANCH  17  23
ATOM      1  S   UNL     1      23.064   5.736  21.531  0.00  0.00    -0.100 S 
ATOM     23  C   UNL     1      22.480   4.921  22.920  0.00  0.00    +0.004 A 
ATOM     27  C   UNL     1      22.297   3.575  22.691  0.00  0.00    +0.012 A 
ATOM     30  C   UNL     1      22.641   3.208  21.358  0.00  0.00    +0.008 A 
ATOM     31  C   UNL     1      23.074   4.287  20.619  0.00  0.00    +0.045 A 
ENDBRANCH  17  23
ENDBRANCH   4  17
ENDBRANCH  20  10
ENDBRANCH  26  24
BRANCH  14  22
ATOM      3  O   UNL     1      12.498   9.585  16.686  0.00  0.00    -0.276 OA
ATOM      9  N   UNL     1      10.670   8.234  17.046  0.00  0.00    -0.329 N 
ATOM     22  C   UNL     1      11.775   8.946  17.448  0.00  0.00    +0.214 C 
ATOM     32  H   UNL     1      10.408   8.194  16.067  0.00  0.00    +0.145 HD
ATOM     33  H   UNL     1      10.049   7.763  17.697  0.00  0.00    +0.145 HD
ENDBRANCH  14  22
TORSDOF 5
ENDMDL
MODEL 8
REMARK VINA RESULT:      -6.7      1.689      2.213
REMARK  Name = 45783329
REMARK  5 active torsions:
REMARK  status: ('A' for Active; 'I' for Inactive)
REMARK    1  A    between atoms: N_4  and  C_17
REMARK    2  A    between atoms: C_10  and  C_20
REMARK    3  A    between atoms: C_14  and  C_22
REMARK    4  A    between atoms: C_17  and  C_23
REMARK    5  A    between atoms: C_24  and  C_26
REMARK                            x       y       z     vdW  Elec       q    Type
REMARK                         _______ _______ _______ _____ _____    ______ ____
ROOT
ATOM      5  N   UNL     1      -4.295 -10.950  15.014  0.00  0.00    -0.315 N 
ATOM      8  N   UNL     1      -2.145 -10.450  14.158  0.00  0.00    -0.240 NA
ATOM     14  C   UNL     1      -5.989 -11.499  17.306  0.00  0.00    +0.078 C 
ATOM     15  C   UNL     1      -5.177 -10.211  17.190  0.00  0.00    +0.031 C 
ATOM     16  C   UNL     1      -6.270 -12.103  15.933  0.00  0.00    +0.031 C 
ATOM     18  C   UNL     1      -3.935 -10.369  16.313  0.00  0.00    +0.107 C 
ATOM     19  C   UNL     1      -5.024 -12.220  15.052  0.00  0.00    +0.107 C 
ATOM     21  C   UNL     1      -3.459 -10.668  13.927  0.00  0.00    +0.122 A 
ATOM     25  C   UNL     1      -4.042 -10.628  12.671  0.00  0.00    +0.055 A 
ATOM     26  C   UNL     1      -3.225 -10.347  11.582  0.00  0.00    +0.027 A 
ATOM     28  C   UNL     1      -1.868 -10.117  11.779  0.00  0.00    +0.031 A 
ATOM     29  C   UNL     1      -1.381 -10.180  13.075  0.00  0.00    +0.113 A 
ENDROOT
BRANCH  26  24
ATOM      2  O   UNL     1      -4.417  -9.593   8.344  0.00  0.00    -0.336 OA
ATOM      6  N   UNL     1      -4.327 -11.397   9.668  0.00  0.00    -0.190 NA
ATOM      7  N   UNL     1      -3.796  -9.176   9.528  0.00  0.00    -0.056 NA
ATOM     20  C   UNL     1      -4.696 -10.912   8.509  0.00  0.00    +0.245 A 
ATOM     24  C   UNL     1      -3.780 -10.296  10.258  0.00  0.00    +0.202 A 
BRANCH  20  10
ATOM      4  N   UNL     1      -6.192 -10.683   6.535  0.00  0.00    -0.287 NA
ATOM     10  C   UNL     1      -5.379 -11.607   7.350  0.00  0.00    +0.146 C 
ATOM     11  C   UNL     1      -4.381 -12.229   6.357  0.00  0.00    +0.030 C 
ATOM     12  C   UNL     1      -4.749 -11.641   5.002  0.00  0.00    +0.017 C 
ATOM     13  C   UNL     1      -6.195 -11.223   5.175  0.00  0.00    +0.085 C 
BRANCH   4  17
ATOM     17  C   UNL     1      -7.542 -10.495   7.053  0.00  0.00    +0.127 C 
BRANCH  17  23
ATOM      1  S   UNL     1      -7.706  -8.311   8.767  0.00  0.00    -0.100 S 
ATOM     23  C   UNL     1      -7.878  -9.038   7.226  0.00  0.00    +0.004 A 
ATOM     27  C   UNL     1      -8.331  -8.144   6.280  0.00  0.00    +0.012 A 
ATOM     30  C   UNL     1      -8.540  -6.846   6.828  0.00  0.00    +0.008 A 
ATOM     31  C   UNL     1      -8.238  -6.796   8.171  0.00  0.00    +0.045 A 
ENDBRANCH  17  23
ENDBRANCH   4  17
ENDBRANCH  20  10
ENDBRANCH  26  24
BRANCH  14  22
ATOM      3  O   UNL     1      -5.149 -13.659  17.896  0.00  0.00    -0.276 OA
ATOM      9  N   UNL     1      -4.873 -11.937  19.396  0.00  0.00    -0.329 N 
ATOM     22  C   UNL     1      -5.297 -12.480  18.207  0.00  0.00    +0.214 C 
ATOM     32  H   UNL     1      -4.391 -12.508  20.083  0.00  0.00    +0.145 HD
ATOM     33  H   UNL     1      -5.059 -10.975  19.663  0.00  0.00    +0.145 HD
ENDBRANCH  14  22
TORSDOF 5
ENDMDL
MODEL 9
REMARK VINA RESULT:      -6.5     29.776     32.867
REMARK  Name = 45783329
REMARK  5 active torsions:
REMARK  status: ('A' for Active; 'I' for Inactive)
REMARK    1  A    between atoms: N_4  and  C_17
REMARK    2  A    between atoms: C_10  and  C_20
REMARK    3  A    between atoms: C_14  and  C_22
REMARK    4  A    between atoms: C_17  and  C_23
REMARK    5  A    between atoms: C_24  and  C_26
REMARK                            x       y       z     vdW  Elec       q    Type
REMARK                         _______ _______ _______ _____ _____    ______ ____
ROOT
ATOM      5  N   UNL     1      14.869   7.758  19.341  0.00  0.00    -0.315 N 
ATOM      8  N   UNL     1      16.435   6.050  18.852  0.00  0.00    -0.240 NA
ATOM     14  C   UNL     1      12.303   9.002  18.802  0.00  0.00    +0.078 C 
ATOM     15  C   UNL     1      12.421   7.536  19.211  0.00  0.00    +0.031 C 
ATOM     16  C   UNL     1      13.506   9.810  19.280  0.00  0.00    +0.031 C 
ATOM     18  C   UNL     1      13.771   6.923  18.840  0.00  0.00    +0.107 C 
ATOM     19  C   UNL     1      14.850   9.166  18.934  0.00  0.00    +0.107 C 
ATOM     21  C   UNL     1      16.095   7.131  19.592  0.00  0.00    +0.122 A 
ATOM     25  C   UNL     1      16.888   7.663  20.595  0.00  0.00    +0.055 A 
ATOM     26  C   UNL     1      18.108   7.050  20.856  0.00  0.00    +0.027 A 
ATOM     28  C   UNL     1      18.492   5.936  20.118  0.00  0.00    +0.031 A 
ATOM     29  C   UNL     1      17.628   5.480  19.135  0.00  0.00    +0.113 A 
ENDROOT
BRANCH  26  24
ATOM      2  O   UNL     1      19.973   8.892  23.223  0.00  0.00    -0.336 OA
ATOM      6  N   UNL     1      19.785   6.746  22.610  0.00  0.00    -0.190 NA
ATOM      7  N   UNL     1      19.024   8.863  22.193  0.00  0.00    -0.056 NA
ATOM     20  C   UNL     1      20.369   7.605  23.406  0.00  0.00    +0.245 A 
ATOM     24  C   UNL     1      18.968   7.564  21.885  0.00  0.00    +0.202 A 
BRANCH  20  10
ATOM      4  N   UNL     1      20.895   6.538  25.591  0.00  0.00    -0.287 NA
ATOM     10  C   UNL     1      21.408   7.366  24.482  0.00  0.00    +0.146 C 
ATOM     11  C   UNL     1      22.639   6.602  23.961  0.00  0.00    +0.030 C 
ATOM     12  C   UNL     1      22.774   5.393  24.877  0.00  0.00    +0.017 C 
ATOM     13  C   UNL     1      22.045   5.816  26.136  0.00  0.00    +0.085 C 
BRANCH   4  17
ATOM     17  C   UNL     1      20.198   7.311  26.612  0.00  0.00    +0.127 C 
BRANCH  17  23
ATOM      1  S   UNL     1      20.329  10.089  26.604  0.00  0.00    -0.100 S 
ATOM     23  C   UNL     1      20.964   8.549  26.998  0.00  0.00    +0.004 A 
ATOM     27  C   UNL     1      22.171   8.639  27.657  0.00  0.00    +0.012 A 
ATOM     30  C   UNL     1      22.579   9.992  27.841  0.00  0.00    +0.008 A 
ATOM     31  C   UNL     1      21.669  10.883  27.317  0.00  0.00    +0.045 A 
ENDBRANCH  17  23
ENDBRANCH   4  17
ENDBRANCH  20  10
ENDBRANCH  26  24
BRANCH  14  22
ATOM      3  O   UNL     1      11.516   8.269  16.665  0.00  0.00    -0.276 OA
ATOM      9  N   UNL     1      12.686  10.247  16.774  0.00  0.00    -0.329 N 
ATOM     22  C   UNL     1      12.115   9.121  17.317  0.00  0.00    +0.214 C 
ATOM     32  H   UNL     1      12.620  10.432  15.779  0.00  0.00    +0.145 HD
ATOM     33  H   UNL     1      13.230  10.909  17.319  0.00  0.00    +0.145 HD
ENDBRANCH  14  22
TORSDOF 5
ENDMDL
MODEL 10
REMARK VINA RESULT:      -6.5     30.010     32.869
REMARK  Name = 45783329
REMARK  5 active torsions:
REMARK  status: ('A' for Active; 'I' for Inactive)
REMARK    1  A    between atoms: N_4  and  C_17
REMARK    2  A    between atoms: C_10  and  C_20
REMARK    3  A    between atoms: C_14  and  C_22
REMARK    4  A    between atoms: C_17  and  C_23
REMARK    5  A    between atoms: C_24  and  C_26
REMARK                            x       y       z     vdW  Elec       q    Type
REMARK                         _______ _______ _______ _____ _____    ______ ____
ROOT
ATOM      5  N   UNL     1      14.706   7.770  19.374  0.00  0.00    -0.315 N 
ATOM      8  N   UNL     1      16.294   6.047  19.038  0.00  0.00    -0.240 NA
ATOM     14  C   UNL     1      12.059   8.843  18.855  0.00  0.00    +0.078 C 
ATOM     15  C   UNL     1      12.265   7.466  19.484  0.00  0.00    +0.031 C 
ATOM     16  C   UNL     1      13.263   9.749  19.097  0.00  0.00    +0.031 C 
ATOM     18  C   UNL     1      13.606   6.836  19.106  0.00  0.00    +0.107 C 
ATOM     19  C   UNL     1      14.601   9.092  18.750  0.00  0.00    +0.107 C 
ATOM     21  C   UNL     1      15.971   7.224  19.621  0.00  0.00    +0.122 A 
ATOM     25  C   UNL     1      16.817   7.933  20.457  0.00  0.00    +0.055 A 
ATOM     26  C   UNL     1      18.076   7.402  20.712  0.00  0.00    +0.027 A 
ATOM     28  C   UNL     1      18.445   6.193  20.133  0.00  0.00    +0.031 A 
ATOM     29  C   UNL     1      17.527   5.561  19.310  0.00  0.00    +0.113 A 
ENDROOT
BRANCH  26  24
ATOM      2  O   UNL     1      19.851   9.552  22.881  0.00  0.00    -0.336 OA
ATOM      6  N   UNL     1      20.242   7.614  21.828  0.00  0.00    -0.190 NA
ATOM      7  N   UNL     1      18.684   9.255  22.166  0.00  0.00    -0.056 NA
ATOM     20  C   UNL     1      20.716   8.535  22.629  0.00  0.00    +0.245 A 
ATOM     24  C   UNL     1      18.993   8.099  21.571  0.00  0.00    +0.202 A 
BRANCH  20  10
ATOM      4  N   UNL     1      22.933   9.662  22.700  0.00  0.00    -0.287 NA
ATOM     10  C   UNL     1      22.072   8.622  23.298  0.00  0.00    +0.146 C 
ATOM     11  C   UNL     1      21.977   9.001  24.787  0.00  0.00    +0.030 C 
ATOM     12  C   UNL     1      22.865  10.228  24.942  0.00  0.00    +0.017 C 
ATOM     13  C   UNL     1      23.817  10.130  23.768  0.00  0.00    +0.085 C 
BRANCH   4  17
ATOM     17  C   UNL     1      23.678   9.193  21.537  0.00  0.00    +0.127 C 
BRANCH  17  23
ATOM      1  S   UNL     1      22.178  11.222  20.367  0.00  0.00    -0.100 S 
ATOM     23  C   UNL     1      23.225   9.870  20.271  0.00  0.00    +0.004 A 
ATOM     27  C   UNL     1      23.541   9.551  18.968  0.00  0.00    +0.012 A 
ATOM     30  C   UNL     1      22.914  10.428  18.037  0.00  0.00    +0.008 A 
ATOM     31  C   UNL     1      22.144  11.384  18.663  0.00  0.00    +0.045 A 
ENDBRANCH  17  23
ENDBRANCH   4  17
ENDBRANCH  20  10
ENDBRANCH  26  24
BRANCH  14  22
ATOM      3  O   UNL     1      11.152   7.745  16.934  0.00  0.00    -0.276 OA
ATOM      9  N   UNL     1      12.221   9.760  16.633  0.00  0.00    -0.329 N 
ATOM     22  C   UNL     1      11.753   8.714  17.392  0.00  0.00    +0.214 C 
ATOM     32  H   UNL     1      12.070   9.779  15.630  0.00  0.00    +0.145 HD
ATOM     33  H   UNL     1      12.769  10.522  17.019  0.00  0.00    +0.145 HD
ENDBRANCH  14  22
TORSDOF 5
ENDMDL
