MODEL 1
REMARK VINA RESULT:      -6.9      0.000      0.000
REMARK  Name = 51136597
REMARK  10 active torsions:
REMARK  status: ('A' for Active; 'I' for Inactive)
REMARK    1  A    between atoms: O_2  and  C_18
REMARK    2  A    between atoms: O_4  and  C_25
REMARK    3  A    between atoms: O_4  and  C_32
REMARK    4  A    between atoms: O_5  and  C_26
REMARK    5  A    between atoms: O_5  and  C_33
REMARK    6  A    between atoms: C_8  and  C_13
REMARK    7  A    between atoms: C_9  and  C_14
REMARK    8  A    between atoms: C_13  and  C_15
REMARK    9  A    between atoms: C_14  and  C_18
REMARK   10  A    between atoms: C_16  and  C_22
REMARK                            x       y       z     vdW  Elec       q    Type
REMARK                         _______ _______ _______ _____ _____    ______ ____
ROOT
ATOM      1  O   UNL     1      10.636   8.397  17.130  0.00  0.00    -0.270 OA
ATOM      6  N   UNL     1      12.934   8.843  17.117  0.00  0.00    -0.297 N 
ATOM      8  C   UNL     1      14.838  10.332  17.696  0.00  0.00    +0.016 C 
ATOM      9  C   UNL     1      14.900  10.764  16.209  0.00  0.00    +0.006 C 
ATOM     10  C   UNL     1      13.532  10.620  15.519  0.00  0.00    +0.023 C 
ATOM     11  C   UNL     1      14.229   8.921  17.807  0.00  0.00    +0.112 C 
ATOM     12  C   UNL     1      12.966   9.214  15.704  0.00  0.00    +0.108 C 
ATOM     16  C   UNL     1      11.724   8.458  17.701  0.00  0.00    +0.247 C 
ENDROOT
BRANCH  16  22
ATOM     22  C   UNL     1      11.730   8.092  19.122  0.00  0.00    +0.037 A 
ATOM     27  C   UNL     1      12.576   7.081  19.579  0.00  0.00    +0.013 A 
ATOM     28  C   UNL     1      10.891   8.756  20.017  0.00  0.00    +0.013 A 
ATOM     29  C   UNL     1      12.582   6.734  20.930  0.00  0.00    +0.001 A 
ATOM     30  C   UNL     1      10.897   8.409  21.368  0.00  0.00    +0.001 A 
ATOM     31  C   UNL     1      11.743   7.398  21.824  0.00  0.00    +0.000 A 
ENDBRANCH  16  22
BRANCH   8  13
ATOM     13  C   UNL     1      14.078  11.311  18.598  0.00  0.00    +0.061 C 
BRANCH  13  15
ATOM      7  N   UNL     1      15.512  10.461  20.326  0.00  0.00    -0.287 NA
ATOM     15  C   UNL     1      14.378  11.012  20.047  0.00  0.00    +0.044 C 
ATOM     17  C   UNL     1      13.363  11.358  21.075  0.00  0.00    +0.003 A 
ATOM     19  C   UNL     1      13.490  10.735  22.323  0.00  0.00    -0.033 A 
ATOM     20  C   UNL     1      14.615   9.765  22.533  0.00  0.00    +0.059 C 
ATOM     21  C   UNL     1      15.830  10.226  21.738  0.00  0.00    +0.146 C 
ATOM     23  C   UNL     1      12.313  12.247  20.831  0.00  0.00    +0.059 A 
ATOM     24  C   UNL     1      12.543  10.987  23.320  0.00  0.00    +0.053 A 
ATOM     25  C   UNL     1      11.383  12.504  21.838  0.00  0.00    +0.162 A 
ATOM     26  C   UNL     1      11.494  11.874  23.077  0.00  0.00    +0.162 A 
BRANCH  25   4
ATOM      4  O   UNL     1      10.361  13.374  21.597  0.00  0.00    -0.491 OA
ATOM     32  C   UNL     1      10.675  14.550  20.854  0.00  0.00    +0.277 C 
ENDBRANCH  25   4
BRANCH  26   5
ATOM      5  O   UNL     1      10.583  12.116  24.061  0.00  0.00    -0.491 OA
ATOM     33  C   UNL     1      11.092  12.536  25.326  0.00  0.00    +0.277 C 
ENDBRANCH  26   5
ENDBRANCH  13  15
ENDBRANCH   8  13
BRANCH   9  14
ATOM     14  C   UNL     1      15.453  12.177  16.018  0.00  0.00    +0.124 C 
BRANCH  14  18
ATOM      3  O   UNL     1      17.703  12.958  15.498  0.00  0.00    -0.251 OA
ATOM     18  C   UNL     1      16.793  12.160  15.335  0.00  0.00    +0.305 C 
BRANCH  18   2
ATOM      2  O   UNL     1      16.860  11.103  14.486  0.00  0.00    -0.481 OA
ATOM     34  H   UNL     1      17.195  11.365  13.601  0.00  0.00    +0.295 HD
ENDBRANCH  18   2
ENDBRANCH  14  18
ENDBRANCH   9  14
TORSDOF 8
ENDMDL
MODEL 2
REMARK VINA RESULT:      -6.2     26.187     29.558
REMARK  Name = 51136597
REMARK  10 active torsions:
REMARK  status: ('A' for Active; 'I' for Inactive)
REMARK    1  A    between atoms: O_2  and  C_18
REMARK    2  A    between atoms: O_4  and  C_25
REMARK    3  A    between atoms: O_4  and  C_32
REMARK    4  A    between atoms: O_5  and  C_26
REMARK    5  A    between atoms: O_5  and  C_33
REMARK    6  A    between atoms: C_8  and  C_13
REMARK    7  A    between atoms: C_9  and  C_14
REMARK    8  A    between atoms: C_13  and  C_15
REMARK    9  A    between atoms: C_14  and  C_18
REMARK   10  A    between atoms: C_16  and  C_22
REMARK                            x       y       z     vdW  Elec       q    Type
REMARK                         _______ _______ _______ _____ _____    ______ ____
ROOT
ATOM      1  O   UNL     1     -10.356 -11.076  18.509  0.00  0.00    -0.270 OA
ATOM      6  N   UNL     1      -8.249 -10.131  18.129  0.00  0.00    -0.297 N 
ATOM      8  C   UNL     1      -6.092 -10.114  16.893  0.00  0.00    +0.016 C 
ATOM      9  C   UNL     1      -5.418 -10.738  18.142  0.00  0.00    +0.006 C 
ATOM     10  C   UNL     1      -6.421 -11.545  18.984  0.00  0.00    +0.023 C 
ATOM     11  C   UNL     1      -7.338  -9.313  17.316  0.00  0.00    +0.112 C 
ATOM     12  C   UNL     1      -7.650 -10.708  19.331  0.00  0.00    +0.108 C 
ATOM     16  C   UNL     1      -9.591 -10.387  17.836  0.00  0.00    +0.247 C 
ENDROOT
BRANCH  16  22
ATOM     22  C   UNL     1     -10.158  -9.791  16.621  0.00  0.00    +0.037 A 
ATOM     27  C   UNL     1     -10.414  -8.421  16.570  0.00  0.00    +0.013 A 
ATOM     28  C   UNL     1     -10.439 -10.595  15.515  0.00  0.00    +0.013 A 
ATOM     29  C   UNL     1     -10.952  -7.855  15.414  0.00  0.00    +0.001 A 
ATOM     30  C   UNL     1     -10.976 -10.028  14.360  0.00  0.00    +0.001 A 
ATOM     31  C   UNL     1     -11.232  -8.658  14.309  0.00  0.00    +0.000 A 
ENDBRANCH  16  22
BRANCH   8  13
ATOM     13  C   UNL     1      -6.458 -11.134  15.808  0.00  0.00    +0.061 C 
BRANCH  13  15
ATOM      7  N   UNL     1      -7.419 -10.009  13.917  0.00  0.00    -0.287 NA
ATOM     15  C   UNL     1      -6.345 -10.494  14.445  0.00  0.00    +0.044 C 
ATOM     17  C   UNL     1      -5.018 -10.458  13.780  0.00  0.00    +0.003 A 
ATOM     19  C   UNL     1      -5.010 -10.224  12.399  0.00  0.00    -0.033 A 
ATOM     20  C   UNL     1      -6.320 -10.042  11.692  0.00  0.00    +0.059 C 
ATOM     21  C   UNL     1      -7.298  -9.334  12.620  0.00  0.00    +0.146 C 
ATOM     23  C   UNL     1      -3.820 -10.660  14.471  0.00  0.00    +0.059 A 
ATOM     24  C   UNL     1      -3.795 -10.218  11.707  0.00  0.00    +0.053 A 
ATOM     25  C   UNL     1      -2.613 -10.636  13.773  0.00  0.00    +0.162 A 
ATOM     26  C   UNL     1      -2.599 -10.419  12.396  0.00  0.00    +0.162 A 
BRANCH  25   4
ATOM      4  O   UNL     1      -1.446 -10.831  14.452  0.00  0.00    -0.491 OA
ATOM     32  C   UNL     1      -1.390 -10.349  15.793  0.00  0.00    +0.277 C 
ENDBRANCH  25   4
BRANCH  26   5
ATOM      5  O   UNL     1      -1.422 -10.404  11.709  0.00  0.00    -0.491 OA
ATOM     33  C   UNL     1      -0.953  -9.134  11.257  0.00  0.00    +0.277 C 
ENDBRANCH  26   5
ENDBRANCH  13  15
ENDBRANCH   8  13
BRANCH   9  14
ATOM     14  C   UNL     1      -4.195 -11.589  17.801  0.00  0.00    +0.124 C 
BRANCH  14  18
ATOM      3  O   UNL     1      -3.370 -12.197  20.013  0.00  0.00    -0.251 OA
ATOM     18  C   UNL     1      -3.833 -12.517  18.928  0.00  0.00    +0.305 C 
BRANCH  18   2
ATOM      2  O   UNL     1      -4.100 -13.799  18.569  0.00  0.00    -0.481 OA
ATOM     34  H   UNL     1      -3.783 -13.998  17.662  0.00  0.00    +0.295 HD
ENDBRANCH  18   2
ENDBRANCH  14  18
ENDBRANCH   9  14
TORSDOF 8
ENDMDL
MODEL 3
REMARK VINA RESULT:      -6.1     26.950     29.336
REMARK  Name = 51136597
REMARK  10 active torsions:
REMARK  status: ('A' for Active; 'I' for Inactive)
REMARK    1  A    between atoms: O_2  and  C_18
REMARK    2  A    between atoms: O_4  and  C_25
REMARK    3  A    between atoms: O_4  and  C_32
REMARK    4  A    between atoms: O_5  and  C_26
REMARK    5  A    between atoms: O_5  and  C_33
REMARK    6  A    between atoms: C_8  and  C_13
REMARK    7  A    between atoms: C_9  and  C_14
REMARK    8  A    between atoms: C_13  and  C_15
REMARK    9  A    between atoms: C_14  and  C_18
REMARK   10  A    between atoms: C_16  and  C_22
REMARK                            x       y       z     vdW  Elec       q    Type
REMARK                         _______ _______ _______ _____ _____    ______ ____
ROOT
ATOM      1  O   UNL     1      -1.453  -9.999  12.155  0.00  0.00    -0.270 OA
ATOM      6  N   UNL     1      -2.791 -11.324  13.543  0.00  0.00    -0.297 N 
ATOM      8  C   UNL     1      -4.648 -11.527  15.183  0.00  0.00    +0.016 C 
ATOM      9  C   UNL     1      -3.589 -11.692  16.303  0.00  0.00    +0.006 C 
ATOM     10  C   UNL     1      -2.260 -11.013  15.929  0.00  0.00    +0.023 C 
ATOM     11  C   UNL     1      -4.065 -11.996  13.837  0.00  0.00    +0.112 C 
ATOM     12  C   UNL     1      -1.761 -11.488  14.566  0.00  0.00    +0.108 C 
ATOM     16  C   UNL     1      -2.516 -10.567  12.402  0.00  0.00    +0.247 C 
ENDROOT
BRANCH  16  22
ATOM     22  C   UNL     1      -3.574 -10.425  11.396  0.00  0.00    +0.037 A 
ATOM     27  C   UNL     1      -3.720 -11.386  10.395  0.00  0.00    +0.013 A 
ATOM     28  C   UNL     1      -4.438  -9.330  11.442  0.00  0.00    +0.013 A 
ATOM     29  C   UNL     1      -4.728 -11.251   9.440  0.00  0.00    +0.001 A 
ATOM     30  C   UNL     1      -5.445  -9.196  10.487  0.00  0.00    +0.001 A 
ATOM     31  C   UNL     1      -5.590 -10.157   9.486  0.00  0.00    +0.000 A 
ENDBRANCH  16  22
BRANCH   8  13
ATOM     13  C   UNL     1      -5.204 -10.104  15.056  0.00  0.00    +0.061 C 
BRANCH  13  15
ATOM      7  N   UNL     1      -7.071 -10.178  13.548  0.00  0.00    -0.287 NA
ATOM     15  C   UNL     1      -6.687 -10.155  14.782  0.00  0.00    +0.044 C 
ATOM     17  C   UNL     1      -7.627 -10.171  15.931  0.00  0.00    +0.003 A 
ATOM     19  C   UNL     1      -8.959  -9.832  15.662  0.00  0.00    -0.033 A 
ATOM     20  C   UNL     1      -9.340  -9.467  14.258  0.00  0.00    +0.059 C 
ATOM     21  C   UNL     1      -8.509 -10.289  13.282  0.00  0.00    +0.146 C 
ATOM     23  C   UNL     1      -7.226 -10.491  17.231  0.00  0.00    +0.059 A 
ATOM     24  C   UNL     1      -9.885  -9.788  16.708  0.00  0.00    +0.053 A 
ATOM     25  C   UNL     1      -8.162 -10.460  18.265  0.00  0.00    +0.162 A 
ATOM     26  C   UNL     1      -9.486 -10.107  18.007  0.00  0.00    +0.162 A 
BRANCH  25   4
ATOM      4  O   UNL     1      -7.767 -10.775  19.532  0.00  0.00    -0.491 OA
ATOM     32  C   UNL     1      -7.413 -12.134  19.779  0.00  0.00    +0.277 C 
ENDBRANCH  25   4
BRANCH  26   5
ATOM      5  O   UNL     1     -10.402 -10.068  19.015  0.00  0.00    -0.491 OA
ATOM     33  C   UNL     1     -11.709  -9.602  18.685  0.00  0.00    +0.277 C 
ENDBRANCH  26   5
ENDBRANCH  13  15
ENDBRANCH   8  13
BRANCH   9  14
ATOM     14  C   UNL     1      -4.077 -11.206  17.667  0.00  0.00    +0.124 C 
BRANCH  14  18
ATOM      3  O   UNL     1      -3.306 -12.088  19.805  0.00  0.00    -0.251 OA
ATOM     18  C   UNL     1      -3.872 -12.246  18.733  0.00  0.00    +0.305 C 
BRANCH  18   2
ATOM      2  O   UNL     1      -4.418 -13.423  18.334  0.00  0.00    -0.481 OA
ATOM     34  H   UNL     1      -4.786 -13.930  19.090  0.00  0.00    +0.295 HD
ENDBRANCH  18   2
ENDBRANCH  14  18
ENDBRANCH   9  14
TORSDOF 8
ENDMDL
MODEL 4
REMARK VINA RESULT:      -6.1     26.371     28.971
REMARK  Name = 51136597
REMARK  10 active torsions:
REMARK  status: ('A' for Active; 'I' for Inactive)
REMARK    1  A    between atoms: O_2  and  C_18
REMARK    2  A    between atoms: O_4  and  C_25
REMARK    3  A    between atoms: O_4  and  C_32
REMARK    4  A    between atoms: O_5  and  C_26
REMARK    5  A    between atoms: O_5  and  C_33
REMARK    6  A    between atoms: C_8  and  C_13
REMARK    7  A    between atoms: C_9  and  C_14
REMARK    8  A    between atoms: C_13  and  C_15
REMARK    9  A    between atoms: C_14  and  C_18
REMARK   10  A    between atoms: C_16  and  C_22
REMARK                            x       y       z     vdW  Elec       q    Type
REMARK                         _______ _______ _______ _____ _____    ______ ____
ROOT
ATOM      1  O   UNL     1      -6.133 -14.533  11.441  0.00  0.00    -0.270 OA
ATOM      6  N   UNL     1      -4.178 -13.251  11.346  0.00  0.00    -0.297 N 
ATOM      8  C   UNL     1      -2.946 -11.164  11.900  0.00  0.00    +0.016 C 
ATOM      9  C   UNL     1      -3.134 -10.710  10.430  0.00  0.00    +0.006 C 
ATOM     10  C   UNL     1      -4.383 -11.347   9.796  0.00  0.00    +0.023 C 
ATOM     11  C   UNL     1      -2.972 -12.702  11.981  0.00  0.00    +0.112 C 
ATOM     12  C   UNL     1      -4.367 -12.866   9.949  0.00  0.00    +0.108 C 
ATOM     16  C   UNL     1      -5.119 -14.076  11.967  0.00  0.00    +0.247 C 
ENDROOT
BRANCH  16  22
ATOM     22  C   UNL     1      -4.897 -14.442  13.370  0.00  0.00    +0.037 A 
ATOM     27  C   UNL     1      -4.109 -15.549  13.686  0.00  0.00    +0.013 A 
ATOM     28  C   UNL     1      -5.471 -13.681  14.389  0.00  0.00    +0.013 A 
ATOM     29  C   UNL     1      -3.897 -15.896  15.021  0.00  0.00    +0.001 A 
ATOM     30  C   UNL     1      -5.258 -14.028  15.722  0.00  0.00    +0.001 A 
ATOM     31  C   UNL     1      -4.471 -15.136  16.038  0.00  0.00    +0.000 A 
ENDBRANCH  16  22
BRANCH   8  13
ATOM     13  C   UNL     1      -3.968 -10.564  12.873  0.00  0.00    +0.061 C 
BRANCH  13  15
ATOM      7  N   UNL     1      -2.085 -10.454  14.358  0.00  0.00    -0.287 NA
ATOM     15  C   UNL     1      -3.372 -10.484  14.258  0.00  0.00    +0.044 C 
ATOM     17  C   UNL     1      -4.285 -10.449  15.429  0.00  0.00    +0.003 A 
ATOM     19  C   UNL     1      -3.725 -10.763  16.674  0.00  0.00    -0.033 A 
ATOM     20  C   UNL     1      -2.271 -11.121  16.741  0.00  0.00    +0.059 C 
ATOM     21  C   UNL     1      -1.506 -10.315  15.699  0.00  0.00    +0.146 C 
ATOM     23  C   UNL     1      -5.642 -10.137  15.320  0.00  0.00    +0.059 A 
ATOM     24  C   UNL     1      -4.540 -10.788  17.810  0.00  0.00    +0.053 A 
ATOM     25  C   UNL     1      -6.443 -10.150  16.462  0.00  0.00    +0.162 A 
ATOM     26  C   UNL     1      -5.896 -10.477  17.703  0.00  0.00    +0.162 A 
BRANCH  25   4
ATOM      4  O   UNL     1      -7.767  -9.842  16.352  0.00  0.00    -0.491 OA
ATOM     32  C   UNL     1      -8.610 -10.821  15.750  0.00  0.00    +0.277 C 
ENDBRANCH  25   4
BRANCH  26   5
ATOM      5  O   UNL     1      -6.677 -10.498  18.820  0.00  0.00    -0.491 OA
ATOM     33  C   UNL     1      -6.808 -11.748  19.494  0.00  0.00    +0.277 C 
ENDBRANCH  26   5
ENDBRANCH  13  15
ENDBRANCH   8  13
BRANCH   9  14
ATOM     14  C   UNL     1      -3.166  -9.190  10.271  0.00  0.00    +0.124 C 
BRANCH  14  18
ATOM      3  O   UNL     1      -5.493  -8.496  10.477  0.00  0.00    -0.251 OA
ATOM     18  C   UNL     1      -4.507  -8.710   9.789  0.00  0.00    +0.305 C 
BRANCH  18   2
ATOM      2  O   UNL     1      -4.474  -8.539   8.442  0.00  0.00    -0.481 OA
ATOM     34  H   UNL     1      -5.084  -7.827   8.150  0.00  0.00    +0.295 HD
ENDBRANCH  18   2
ENDBRANCH  14  18
ENDBRANCH   9  14
TORSDOF 8
ENDMDL
MODEL 5
REMARK VINA RESULT:      -5.7     12.538     16.203
REMARK  Name = 51136597
REMARK  10 active torsions:
REMARK  status: ('A' for Active; 'I' for Inactive)
REMARK    1  A    between atoms: O_2  and  C_18
REMARK    2  A    between atoms: O_4  and  C_25
REMARK    3  A    between atoms: O_4  and  C_32
REMARK    4  A    between atoms: O_5  and  C_26
REMARK    5  A    between atoms: O_5  and  C_33
REMARK    6  A    between atoms: C_8  and  C_13
REMARK    7  A    between atoms: C_9  and  C_14
REMARK    8  A    between atoms: C_13  and  C_15
REMARK    9  A    between atoms: C_14  and  C_18
REMARK   10  A    between atoms: C_16  and  C_22
REMARK                            x       y       z     vdW  Elec       q    Type
REMARK                         _______ _______ _______ _____ _____    ______ ____
ROOT
ATOM      1  O   UNL     1      11.006  10.407   1.292  0.00  0.00    -0.270 OA
ATOM      6  N   UNL     1      11.150   8.073   1.371  0.00  0.00    -0.297 N 
ATOM      8  C   UNL     1      11.930   6.004   2.506  0.00  0.00    +0.016 C 
ATOM      9  C   UNL     1      13.045   5.884   1.435  0.00  0.00    +0.006 C 
ATOM     10  C   UNL     1      13.415   7.257   0.847  0.00  0.00    +0.023 C 
ATOM     11  C   UNL     1      10.731   6.780   1.930  0.00  0.00    +0.112 C 
ATOM     12  C   UNL     1      12.177   7.990   0.335  0.00  0.00    +0.108 C 
ATOM     16  C   UNL     1      10.655   9.322   1.753  0.00  0.00    +0.247 C 
ENDROOT
BRANCH  16  22
ATOM     22  C   UNL     1       9.624   9.366   2.796  0.00  0.00    +0.037 A 
ATOM     27  C   UNL     1       9.732  10.278   3.846  0.00  0.00    +0.013 A 
ATOM     28  C   UNL     1       8.532   8.498   2.735  0.00  0.00    +0.013 A 
ATOM     29  C   UNL     1       8.750  10.321   4.837  0.00  0.00    +0.001 A 
ATOM     30  C   UNL     1       7.552   8.542   3.725  0.00  0.00    +0.001 A 
ATOM     31  C   UNL     1       7.660   9.453   4.776  0.00  0.00    +0.000 A 
ENDBRANCH  16  22
BRANCH   8  13
ATOM     13  C   UNL     1      12.396   6.643   3.820  0.00  0.00    +0.061 C 
BRANCH  13  15
ATOM      7  N   UNL     1      10.757   5.244   4.880  0.00  0.00    -0.287 NA
ATOM     15  C   UNL     1      11.384   6.373   4.907  0.00  0.00    +0.044 C 
ATOM     17  C   UNL     1      11.155   7.412   5.944  0.00  0.00    +0.003 A 
ATOM     19  C   UNL     1       9.972   7.310   6.688  0.00  0.00    -0.033 A 
ATOM     20  C   UNL     1       9.024   6.189   6.385  0.00  0.00    +0.059 C 
ATOM     21  C   UNL     1       9.819   4.957   5.970  0.00  0.00    +0.146 C 
ATOM     23  C   UNL     1      12.051   8.458   6.177  0.00  0.00    +0.059 A 
ATOM     24  C   UNL     1       9.678   8.280   7.651  0.00  0.00    +0.053 A 
ATOM     25  C   UNL     1      11.755   9.411   7.152  0.00  0.00    +0.162 A 
ATOM     26  C   UNL     1      10.572   9.325   7.885  0.00  0.00    +0.162 A 
BRANCH  25   4
ATOM      4  O   UNL     1      12.634  10.429   7.378  0.00  0.00    -0.491 OA
ATOM     32  C   UNL     1      12.606  11.522   6.463  0.00  0.00    +0.277 C 
ENDBRANCH  25   4
BRANCH  26   5
ATOM      5  O   UNL     1      10.275  10.258   8.833  0.00  0.00    -0.491 OA
ATOM     33  C   UNL     1       9.364  11.292   8.461  0.00  0.00    +0.277 C 
ENDBRANCH  26   5
ENDBRANCH  13  15
ENDBRANCH   8  13
BRANCH   9  14
ATOM     14  C   UNL     1      14.292   5.163   1.944  0.00  0.00    +0.124 C 
BRANCH  14  18
ATOM      3  O   UNL     1      13.303   3.076   1.165  0.00  0.00    -0.251 OA
ATOM     18  C   UNL     1      14.247   3.691   1.637  0.00  0.00    +0.305 C 
BRANCH  18   2
ATOM      2  O   UNL     1      15.434   3.119   1.964  0.00  0.00    -0.481 OA
ATOM     34  H   UNL     1      15.345   2.153   2.110  0.00  0.00    +0.295 HD
ENDBRANCH  18   2
ENDBRANCH  14  18
ENDBRANCH   9  14
TORSDOF 8
ENDMDL
MODEL 6
REMARK VINA RESULT:      -5.7     26.199     29.404
REMARK  Name = 51136597
REMARK  10 active torsions:
REMARK  status: ('A' for Active; 'I' for Inactive)
REMARK    1  A    between atoms: O_2  and  C_18
REMARK    2  A    between atoms: O_4  and  C_25
REMARK    3  A    between atoms: O_4  and  C_32
REMARK    4  A    between atoms: O_5  and  C_26
REMARK    5  A    between atoms: O_5  and  C_33
REMARK    6  A    between atoms: C_8  and  C_13
REMARK    7  A    between atoms: C_9  and  C_14
REMARK    8  A    between atoms: C_13  and  C_15
REMARK    9  A    between atoms: C_14  and  C_18
REMARK   10  A    between atoms: C_16  and  C_22
REMARK                            x       y       z     vdW  Elec       q    Type
REMARK                         _______ _______ _______ _____ _____    ______ ____
ROOT
ATOM      1  O   UNL     1      -8.216 -11.445  18.327  0.00  0.00    -0.270 OA
ATOM      6  N   UNL     1      -6.455 -10.345  17.248  0.00  0.00    -0.297 N 
ATOM      8  C   UNL     1      -4.724 -10.292  15.465  0.00  0.00    +0.016 C 
ATOM      9  C   UNL     1      -3.659 -10.614  16.545  0.00  0.00    +0.006 C 
ATOM     10  C   UNL     1      -4.271 -11.376  17.734  0.00  0.00    +0.023 C 
ATOM     11  C   UNL     1      -5.926  -9.578  16.111  0.00  0.00    +0.112 C 
ATOM     12  C   UNL     1      -5.482 -10.638  18.298  0.00  0.00    +0.108 C 
ATOM     16  C   UNL     1      -7.770 -10.798  17.380  0.00  0.00    +0.247 C 
ENDROOT
BRANCH  16  22
ATOM     22  C   UNL     1      -8.719 -10.485  16.306  0.00  0.00    +0.037 A 
ATOM     27  C   UNL     1      -9.433  -9.287  16.333  0.00  0.00    +0.013 A 
ATOM     28  C   UNL     1      -8.906 -11.385  15.256  0.00  0.00    +0.013 A 
ATOM     29  C   UNL     1     -10.335  -8.990  15.310  0.00  0.00    +0.001 A 
ATOM     30  C   UNL     1      -9.806 -11.087  14.234  0.00  0.00    +0.001 A 
ATOM     31  C   UNL     1     -10.521  -9.889  14.261  0.00  0.00    +0.000 A 
ENDBRANCH  16  22
BRANCH   8  13
ATOM     13  C   UNL     1      -5.196 -11.516  14.671  0.00  0.00    +0.061 C 
BRANCH  13  15
ATOM      7  N   UNL     1      -3.493 -12.230  13.137  0.00  0.00    -0.287 NA
ATOM     15  C   UNL     1      -4.557 -11.517  13.303  0.00  0.00    +0.044 C 
ATOM     17  C   UNL     1      -5.172 -10.702  12.225  0.00  0.00    +0.003 A 
ATOM     19  C   UNL     1      -4.369 -10.415  11.114  0.00  0.00    -0.033 A 
ATOM     20  C   UNL     1      -2.960 -10.928  11.092  0.00  0.00    +0.059 C 
ATOM     21  C   UNL     1      -2.906 -12.279  11.793  0.00  0.00    +0.146 C 
ATOM     23  C   UNL     1      -6.481 -10.219  12.297  0.00  0.00    +0.059 A 
ATOM     24  C   UNL     1      -4.876  -9.617  10.084  0.00  0.00    +0.053 A 
ATOM     25  C   UNL     1      -6.982  -9.437  11.256  0.00  0.00    +0.162 A 
ATOM     26  C   UNL     1      -6.183  -9.134  10.154  0.00  0.00    +0.162 A 
BRANCH  25   4
ATOM      4  O   UNL     1      -8.261  -8.970  11.328  0.00  0.00    -0.491 OA
ATOM     32  C   UNL     1      -9.286  -9.807  10.798  0.00  0.00    +0.277 C 
ENDBRANCH  25   4
BRANCH  26   5
ATOM      5  O   UNL     1      -6.666  -8.365   9.138  0.00  0.00    -0.491 OA
ATOM     33  C   UNL     1      -7.027  -9.037   7.933  0.00  0.00    +0.277 C 
ENDBRANCH  26   5
ENDBRANCH  13  15
ENDBRANCH   8  13
BRANCH   9  14
ATOM     14  C   UNL     1      -2.449 -11.366  15.989  0.00  0.00    +0.124 C 
BRANCH  14  18
ATOM      3  O   UNL     1      -1.463  -9.887  14.321  0.00  0.00    -0.251 OA
ATOM     18  C   UNL     1      -1.426 -10.424  15.418  0.00  0.00    +0.305 C 
BRANCH  18   2
ATOM      2  O   UNL     1      -0.422 -10.242  16.314  0.00  0.00    -0.481 OA
ATOM     34  H   UNL     1       0.058 -11.077  16.501  0.00  0.00    +0.295 HD
ENDBRANCH  18   2
ENDBRANCH  14  18
ENDBRANCH   9  14
TORSDOF 8
ENDMDL
MODEL 7
REMARK VINA RESULT:      -5.4     12.785     17.577
REMARK  Name = 51136597
REMARK  10 active torsions:
REMARK  status: ('A' for Active; 'I' for Inactive)
REMARK    1  A    between atoms: O_2  and  C_18
REMARK    2  A    between atoms: O_4  and  C_25
REMARK    3  A    between atoms: O_4  and  C_32
REMARK    4  A    between atoms: O_5  and  C_26
REMARK    5  A    between atoms: O_5  and  C_33
REMARK    6  A    between atoms: C_8  and  C_13
REMARK    7  A    between atoms: C_9  and  C_14
REMARK    8  A    between atoms: C_13  and  C_15
REMARK    9  A    between atoms: C_14  and  C_18
REMARK   10  A    between atoms: C_16  and  C_22
REMARK                            x       y       z     vdW  Elec       q    Type
REMARK                         _______ _______ _______ _____ _____    ______ ____
ROOT
ATOM      1  O   UNL     1      10.653  11.287   5.700  0.00  0.00    -0.270 OA
ATOM      6  N   UNL     1      11.227   9.109   6.336  0.00  0.00    -0.297 N 
ATOM      8  C   UNL     1      10.745   6.671   6.327  0.00  0.00    +0.016 C 
ATOM      9  C   UNL     1      10.250   6.804   7.790  0.00  0.00    +0.006 C 
ATOM     10  C   UNL     1       9.738   8.223   8.088  0.00  0.00    +0.023 C 
ATOM     11  C   UNL     1      11.767   7.780   6.017  0.00  0.00    +0.112 C 
ATOM     12  C   UNL     1      10.780   9.276   7.717  0.00  0.00    +0.108 C 
ATOM     16  C   UNL     1      11.111  10.175   5.440  0.00  0.00    +0.247 C 
ENDROOT
BRANCH  16  22
ATOM     22  C   UNL     1      11.569   9.971   4.061  0.00  0.00    +0.037 A 
ATOM     27  C   UNL     1      12.540   9.009   3.784  0.00  0.00    +0.013 A 
ATOM     28  C   UNL     1      11.032  10.738   3.027  0.00  0.00    +0.013 A 
ATOM     29  C   UNL     1      12.974   8.814   2.472  0.00  0.00    +0.001 A 
ATOM     30  C   UNL     1      11.466  10.543   1.717  0.00  0.00    +0.001 A 
ATOM     31  C   UNL     1      12.437   9.581   1.439  0.00  0.00    +0.000 A 
ENDBRANCH  16  22
BRANCH   8  13
ATOM     13  C   UNL     1       9.620   6.677   5.286  0.00  0.00    +0.061 C 
BRANCH  13  15
ATOM      7  N   UNL     1      10.556   4.730   4.238  0.00  0.00    -0.287 NA
ATOM     15  C   UNL     1      10.050   5.906   4.062  0.00  0.00    +0.044 C 
ATOM     17  C   UNL     1       9.877   6.530   2.725  0.00  0.00    +0.003 A 
ATOM     19  C   UNL     1      10.619   5.980   1.672  0.00  0.00    -0.033 A 
ATOM     20  C   UNL     1      11.534   4.827   1.959  0.00  0.00    +0.059 C 
ATOM     21  C   UNL     1      10.918   3.956   3.046  0.00  0.00    +0.146 C 
ATOM     23  C   UNL     1       9.035   7.622   2.505  0.00  0.00    +0.059 A 
ATOM     24  C   UNL     1      10.532   6.548   0.397  0.00  0.00    +0.053 A 
ATOM     25  C   UNL     1       8.944   8.171   1.226  0.00  0.00    +0.162 A 
ATOM     26  C   UNL     1       9.692   7.639   0.175  0.00  0.00    +0.162 A 
BRANCH  25   4
ATOM      4  O   UNL     1       8.118   9.236   1.014  0.00  0.00    -0.491 OA
ATOM     32  C   UNL     1       7.479   9.796   2.158  0.00  0.00    +0.277 C 
ENDBRANCH  25   4
BRANCH  26   5
ATOM      5  O   UNL     1       9.611   8.178  -1.074  0.00  0.00    -0.491 OA
ATOM     33  C   UNL     1       8.826   7.472  -2.034  0.00  0.00    +0.277 C 
ENDBRANCH  26   5
ENDBRANCH  13  15
ENDBRANCH   8  13
BRANCH   9  14
ATOM     14  C   UNL     1       9.196   5.762   8.164  0.00  0.00    +0.124 C 
BRANCH  14  18
ATOM      3  O   UNL     1       9.933   4.567  10.157  0.00  0.00    -0.251 OA
ATOM     18  C   UNL     1       9.793   4.624   8.945  0.00  0.00    +0.305 C 
BRANCH  18   2
ATOM      2  O   UNL     1      10.167   3.633   8.095  0.00  0.00    -0.481 OA
ATOM     34  H   UNL     1      10.950   3.143   8.427  0.00  0.00    +0.295 HD
ENDBRANCH  18   2
ENDBRANCH  14  18
ENDBRANCH   9  14
TORSDOF 8
ENDMDL
MODEL 8
REMARK VINA RESULT:      -5.4     26.987     29.817
REMARK  Name = 51136597
REMARK  10 active torsions:
REMARK  status: ('A' for Active; 'I' for Inactive)
REMARK    1  A    between atoms: O_2  and  C_18
REMARK    2  A    between atoms: O_4  and  C_25
REMARK    3  A    between atoms: O_4  and  C_32
REMARK    4  A    between atoms: O_5  and  C_26
REMARK    5  A    between atoms: O_5  and  C_33
REMARK    6  A    between atoms: C_8  and  C_13
REMARK    7  A    between atoms: C_9  and  C_14
REMARK    8  A    between atoms: C_13  and  C_15
REMARK    9  A    between atoms: C_14  and  C_18
REMARK   10  A    between atoms: C_16  and  C_22
REMARK                            x       y       z     vdW  Elec       q    Type
REMARK                         _______ _______ _______ _____ _____    ______ ____
ROOT
ATOM      1  O   UNL     1      -8.696 -10.887  18.833  0.00  0.00    -0.270 OA
ATOM      6  N   UNL     1      -6.791 -10.056  17.758  0.00  0.00    -0.297 N 
ATOM      8  C   UNL     1      -5.229 -10.084  15.824  0.00  0.00    +0.016 C 
ATOM      9  C   UNL     1      -4.210 -10.847  16.709  0.00  0.00    +0.006 C 
ATOM     10  C   UNL     1      -4.913 -11.649  17.818  0.00  0.00    +0.023 C 
ATOM     11  C   UNL     1      -6.163  -9.238  16.710  0.00  0.00    +0.112 C 
ATOM     12  C   UNL     1      -5.855 -10.763  18.629  0.00  0.00    +0.108 C 
ATOM     16  C   UNL     1      -8.166 -10.200  17.961  0.00  0.00    +0.247 C 
ENDROOT
BRANCH  16  22
ATOM     22  C   UNL     1      -9.076  -9.475  17.067  0.00  0.00    +0.037 A 
ATOM     27  C   UNL     1      -9.569  -8.224  17.439  0.00  0.00    +0.013 A 
ATOM     28  C   UNL     1      -9.444 -10.034  15.844  0.00  0.00    +0.013 A 
ATOM     29  C   UNL     1     -10.433  -7.534  16.587  0.00  0.00    +0.001 A 
ATOM     30  C   UNL     1     -10.307  -9.345  14.993  0.00  0.00    +0.001 A 
ATOM     31  C   UNL     1     -10.802  -8.094  15.365  0.00  0.00    +0.000 A 
ENDBRANCH  16  22
BRANCH   8  13
ATOM     13  C   UNL     1      -6.050 -10.989  14.898  0.00  0.00    +0.061 C 
BRANCH  13  15
ATOM      7  N   UNL     1      -6.467  -9.317  13.226  0.00  0.00    -0.287 NA
ATOM     15  C   UNL     1      -5.967 -10.481  13.479  0.00  0.00    +0.044 C 
ATOM     17  C   UNL     1      -5.326 -11.337  12.449  0.00  0.00    +0.003 A 
ATOM     19  C   UNL     1      -5.603 -11.028  11.111  0.00  0.00    -0.033 A 
ATOM     20  C   UNL     1      -6.523  -9.883  10.811  0.00  0.00    +0.059 C 
ATOM     21  C   UNL     1      -6.332  -8.797  11.862  0.00  0.00    +0.146 C 
ATOM     23  C   UNL     1      -4.496 -12.413  12.770  0.00  0.00    +0.059 A 
ATOM     24  C   UNL     1      -5.063 -11.821  10.094  0.00  0.00    +0.053 A 
ATOM     25  C   UNL     1      -3.949 -13.188  11.748  0.00  0.00    +0.162 A 
ATOM     26  C   UNL     1      -4.233 -12.896  10.414  0.00  0.00    +0.162 A 
BRANCH  25   4
ATOM      4  O   UNL     1      -3.137 -14.237  12.065  0.00  0.00    -0.491 OA
ATOM     32  C   UNL     1      -2.079 -13.978  12.985  0.00  0.00    +0.277 C 
ENDBRANCH  25   4
BRANCH  26   5
ATOM      5  O   UNL     1      -3.708 -13.656   9.412  0.00  0.00    -0.491 OA
ATOM     33  C   UNL     1      -4.189 -13.408   8.091  0.00  0.00    +0.277 C 
ENDBRANCH  26   5
ENDBRANCH  13  15
ENDBRANCH   8  13
BRANCH   9  14
ATOM     14  C   UNL     1      -3.272 -11.747  15.905  0.00  0.00    +0.124 C 
BRANCH  14  18
ATOM      3  O   UNL     1      -1.966 -10.409  14.341  0.00  0.00    -0.251 OA
ATOM     18  C   UNL     1      -2.070 -10.993  15.409  0.00  0.00    +0.305 C 
BRANCH  18   2
ATOM      2  O   UNL     1      -1.081 -11.046  16.339  0.00  0.00    -0.481 OA
ATOM     34  H   UNL     1      -1.053 -11.916  16.792  0.00  0.00    +0.295 HD
ENDBRANCH  18   2
ENDBRANCH  14  18
ENDBRANCH   9  14
TORSDOF 8
ENDMDL
MODEL 9
REMARK VINA RESULT:      -5.3     23.682     27.558
REMARK  Name = 51136597
REMARK  10 active torsions:
REMARK  status: ('A' for Active; 'I' for Inactive)
REMARK    1  A    between atoms: O_2  and  C_18
REMARK    2  A    between atoms: O_4  and  C_25
REMARK    3  A    between atoms: O_4  and  C_32
REMARK    4  A    between atoms: O_5  and  C_26
REMARK    5  A    between atoms: O_5  and  C_33
REMARK    6  A    between atoms: C_8  and  C_13
REMARK    7  A    between atoms: C_9  and  C_14
REMARK    8  A    between atoms: C_13  and  C_15
REMARK    9  A    between atoms: C_14  and  C_18
REMARK   10  A    between atoms: C_16  and  C_22
REMARK                            x       y       z     vdW  Elec       q    Type
REMARK                         _______ _______ _______ _____ _____    ______ ____
ROOT
ATOM      1  O   UNL     1       3.956 -13.606  36.782  0.00  0.00    -0.270 OA
ATOM      6  N   UNL     1       3.737 -11.326  36.299  0.00  0.00    -0.297 N 
ATOM      8  C   UNL     1       4.743  -9.183  35.545  0.00  0.00    +0.016 C 
ATOM      9  C   UNL     1       4.752  -8.713  37.022  0.00  0.00    +0.006 C 
ATOM     10  C   UNL     1       4.819  -9.903  37.994  0.00  0.00    +0.023 C 
ATOM     11  C   UNL     1       3.629 -10.225  35.333  0.00  0.00    +0.112 C 
ATOM     12  C   UNL     1       3.716 -10.918  37.702  0.00  0.00    +0.108 C 
ATOM     16  C   UNL     1       3.860 -12.680  35.977  0.00  0.00    +0.247 C 
ENDROOT
BRANCH  16  22
ATOM     22  C   UNL     1       3.877 -13.054  34.558  0.00  0.00    +0.037 A 
ATOM     27  C   UNL     1       5.091 -13.295  33.915  0.00  0.00    +0.013 A 
ATOM     28  C   UNL     1       2.679 -13.171  33.853  0.00  0.00    +0.013 A 
ATOM     29  C   UNL     1       5.107 -13.652  32.566  0.00  0.00    +0.001 A 
ATOM     30  C   UNL     1       2.695 -13.527  32.505  0.00  0.00    +0.001 A 
ATOM     31  C   UNL     1       3.910 -13.768  31.862  0.00  0.00    +0.000 A 
ENDBRANCH  16  22
BRANCH   8  13
ATOM     13  C   UNL     1       6.089  -9.736  35.059  0.00  0.00    +0.061 C 
BRANCH  13  15
ATOM      7  N   UNL     1       6.023  -8.005  33.396  0.00  0.00    -0.287 NA
ATOM     15  C   UNL     1       6.389  -9.211  33.676  0.00  0.00    +0.044 C 
ATOM     17  C   UNL     1       7.081 -10.101  32.708  0.00  0.00    +0.003 A 
ATOM     19  C   UNL     1       6.999  -9.746  31.356  0.00  0.00    -0.033 A 
ATOM     20  C   UNL     1       6.221  -8.521  30.977  0.00  0.00    +0.059 C 
ATOM     21  C   UNL     1       6.368  -7.474  32.073  0.00  0.00    +0.146 C 
ATOM     23  C   UNL     1       7.773 -11.249  33.099  0.00  0.00    +0.059 A 
ATOM     24  C   UNL     1       7.595 -10.564  30.391  0.00  0.00    +0.053 A 
ATOM     25  C   UNL     1       8.377 -12.050  32.130  0.00  0.00    +0.162 A 
ATOM     26  C   UNL     1       8.287 -11.712  30.780  0.00  0.00    +0.162 A 
BRANCH  25   4
ATOM      4  O   UNL     1       9.054 -13.169  32.515  0.00  0.00    -0.491 OA
ATOM     32  C   UNL     1       8.963 -13.538  33.890  0.00  0.00    +0.277 C 
ENDBRANCH  25   4
BRANCH  26   5
ATOM      5  O   UNL     1       8.869 -12.496  29.829  0.00  0.00    -0.491 OA
ATOM     33  C   UNL     1       8.096 -12.780  28.663  0.00  0.00    +0.277 C 
ENDBRANCH  26   5
ENDBRANCH  13  15
ENDBRANCH   8  13
BRANCH   9  14
ATOM     14  C   UNL     1       5.863  -7.707  37.325  0.00  0.00    +0.124 C 
BRANCH  14  18
ATOM      3  O   UNL     1       5.984  -6.099  39.154  0.00  0.00    -0.251 OA
ATOM     18  C   UNL     1       5.377  -6.597  38.217  0.00  0.00    +0.305 C 
BRANCH  18   2
ATOM      2  O   UNL     1       4.136  -6.209  37.830  0.00  0.00    -0.481 OA
ATOM     34  H   UNL     1       3.907  -5.319  38.175  0.00  0.00    +0.295 HD
ENDBRANCH  18   2
ENDBRANCH  14  18
ENDBRANCH   9  14
TORSDOF 8
ENDMDL
MODEL 10
REMARK VINA RESULT:      -5.3     27.174     29.696
REMARK  Name = 51136597
REMARK  10 active torsions:
REMARK  status: ('A' for Active; 'I' for Inactive)
REMARK    1  A    between atoms: O_2  and  C_18
REMARK    2  A    between atoms: O_4  and  C_25
REMARK    3  A    between atoms: O_4  and  C_32
REMARK    4  A    between atoms: O_5  and  C_26
REMARK    5  A    between atoms: O_5  and  C_33
REMARK    6  A    between atoms: C_8  and  C_13
REMARK    7  A    between atoms: C_9  and  C_14
REMARK    8  A    between atoms: C_13  and  C_15
REMARK    9  A    between atoms: C_14  and  C_18
REMARK   10  A    between atoms: C_16  and  C_22
REMARK                            x       y       z     vdW  Elec       q    Type
REMARK                         _______ _______ _______ _____ _____    ______ ____
ROOT
ATOM      1  O   UNL     1      -7.360  -9.400  10.475  0.00  0.00    -0.270 OA
ATOM      6  N   UNL     1      -5.873 -10.887  11.502  0.00  0.00    -0.297 N 
ATOM      8  C   UNL     1      -4.559 -11.579  13.495  0.00  0.00    +0.016 C 
ATOM      9  C   UNL     1      -3.288 -11.027  12.800  0.00  0.00    +0.006 C 
ATOM     10  C   UNL     1      -3.630  -9.910  11.799  0.00  0.00    +0.023 C 
ATOM     11  C   UNL     1      -5.600 -11.988  12.436  0.00  0.00    +0.112 C 
ATOM     12  C   UNL     1      -4.698 -10.365  10.807  0.00  0.00    +0.108 C 
ATOM     16  C   UNL     1      -7.128 -10.326  11.252  0.00  0.00    +0.247 C 
ENDROOT
BRANCH  16  22
ATOM     22  C   UNL     1      -8.284 -10.875  11.968  0.00  0.00    +0.037 A 
ATOM     27  C   UNL     1      -8.649 -10.353  13.209  0.00  0.00    +0.013 A 
ATOM     28  C   UNL     1      -9.023 -11.917  11.406  0.00  0.00    +0.013 A 
ATOM     29  C   UNL     1      -9.750 -10.875  13.889  0.00  0.00    +0.001 A 
ATOM     30  C   UNL     1     -10.123 -12.438  12.085  0.00  0.00    +0.001 A 
ATOM     31  C   UNL     1     -10.487 -11.916  13.327  0.00  0.00    +0.000 A 
ENDBRANCH  16  22
BRANCH   8  13
ATOM     13  C   UNL     1      -5.182 -10.614  14.510  0.00  0.00    +0.061 C 
BRANCH  13  15
ATOM      7  N   UNL     1      -4.724 -12.333  16.122  0.00  0.00    -0.287 NA
ATOM     15  C   UNL     1      -5.491 -11.347  15.792  0.00  0.00    +0.044 C 
ATOM     17  C   UNL     1      -6.654 -10.909  16.605  0.00  0.00    +0.003 A 
ATOM     19  C   UNL     1      -7.141 -11.820  17.552  0.00  0.00    -0.033 A 
ATOM     20  C   UNL     1      -6.477 -13.159  17.672  0.00  0.00    +0.059 C 
ATOM     21  C   UNL     1      -4.986 -13.007  17.398  0.00  0.00    +0.146 C 
ATOM     23  C   UNL     1      -7.262  -9.662  16.444  0.00  0.00    +0.059 A 
ATOM     24  C   UNL     1      -8.259 -11.484  18.321  0.00  0.00    +0.053 A 
ATOM     25  C   UNL     1      -8.368  -9.331  17.227  0.00  0.00    +0.162 A 
ATOM     26  C   UNL     1      -8.867 -10.238  18.161  0.00  0.00    +0.162 A 
BRANCH  25   4
ATOM      4  O   UNL     1      -8.957  -8.111  17.068  0.00  0.00    -0.491 OA
ATOM     32  C   UNL     1      -9.858  -7.967  15.973  0.00  0.00    +0.277 C 
ENDBRANCH  25   4
BRANCH  26   5
ATOM      5  O   UNL     1      -9.952  -9.922  18.923  0.00  0.00    -0.491 OA
ATOM     33  C   UNL     1     -10.178 -10.713  20.088  0.00  0.00    +0.277 C 
ENDBRANCH  26   5
ENDBRANCH  13  15
ENDBRANCH   8  13
BRANCH   9  14
ATOM     14  C   UNL     1      -2.220 -10.556  13.787  0.00  0.00    +0.124 C 
BRANCH  14  18
ATOM      3  O   UNL     1      -1.190 -12.740  14.120  0.00  0.00    -0.251 OA
ATOM     18  C   UNL     1      -1.648 -11.702  14.574  0.00  0.00    +0.305 C 
BRANCH  18   2
ATOM      2  O   UNL     1      -1.709 -11.422  15.901  0.00  0.00    -0.481 OA
ATOM     34  H   UNL     1      -1.097 -11.984  16.422  0.00  0.00    +0.295 HD
ENDBRANCH  18   2
ENDBRANCH  14  18
ENDBRANCH   9  14
TORSDOF 8
ENDMDL
