MODEL 1
REMARK VINA RESULT:      -6.9      0.000      0.000
REMARK  Name = 51136666
REMARK  8 active torsions:
REMARK  status: ('A' for Active; 'I' for Inactive)
REMARK    1  A    between atoms: O_2  and  C_18
REMARK    2  A    between atoms: O_4  and  C_26
REMARK    3  A    between atoms: O_4  and  C_31
REMARK    4  A    between atoms: C_8  and  C_13
REMARK    5  A    between atoms: C_9  and  C_14
REMARK    6  A    between atoms: C_13  and  C_15
REMARK    7  A    between atoms: C_14  and  C_18
REMARK    8  A    between atoms: C_16  and  C_22
REMARK                            x       y       z     vdW  Elec       q    Type
REMARK                         _______ _______ _______ _____ _____    ______ ____
ROOT
ATOM      1  O   UNL     1      10.648   8.312  17.166  0.00  0.00    -0.270 OA
ATOM      5  N   UNL     1      12.930   8.824  17.208  0.00  0.00    -0.297 N 
ATOM      8  C   UNL     1      14.773  10.377  17.816  0.00  0.00    +0.016 C 
ATOM      9  C   UNL     1      14.864  10.790  16.325  0.00  0.00    +0.006 C 
ATOM     10  C   UNL     1      13.521  10.595  15.601  0.00  0.00    +0.023 C 
ATOM     11  C   UNL     1      14.203   8.951  17.932  0.00  0.00    +0.112 C 
ATOM     12  C   UNL     1      12.991   9.177  15.791  0.00  0.00    +0.108 C 
ATOM     16  C   UNL     1      11.716   8.414  17.765  0.00  0.00    +0.248 C 
ENDROOT
BRANCH  16  22
ATOM      7  N   UNL     1      12.492   6.665  20.990  0.00  0.00    -0.263 NA
ATOM     22  C   UNL     1      11.693   8.069  19.191  0.00  0.00    +0.055 A 
ATOM     27  C   UNL     1      10.895   8.774  20.086  0.00  0.00    +0.016 A 
ATOM     28  C   UNL     1      12.466   7.031  19.689  0.00  0.00    +0.123 A 
ATOM     29  C   UNL     1      10.896   8.425  21.432  0.00  0.00    +0.020 A 
ATOM     30  C   UNL     1      11.704   7.373  21.830  0.00  0.00    +0.111 A 
ENDBRANCH  16  22
BRANCH   8  13
ATOM     13  C   UNL     1      13.960  11.348  18.682  0.00  0.00    +0.061 C 
BRANCH  13  15
ATOM      6  N   UNL     1      15.523  10.792  20.419  0.00  0.00    -0.287 NA
ATOM     15  C   UNL     1      14.316  11.157  20.136  0.00  0.00    +0.044 C 
ATOM     17  C   UNL     1      13.271  11.392  21.166  0.00  0.00    -0.001 A 
ATOM     19  C   UNL     1      13.501  10.847  22.435  0.00  0.00    -0.033 A 
ATOM     20  C   UNL     1      14.759  10.064  22.666  0.00  0.00    +0.059 C 
ATOM     21  C   UNL     1      15.885  10.666  21.834  0.00  0.00    +0.146 C 
ATOM     23  C   UNL     1      12.099  12.105  20.903  0.00  0.00    +0.013 A 
ATOM     24  C   UNL     1      12.537  10.998  23.436  0.00  0.00    +0.050 A 
ATOM     25  C   UNL     1      11.150  12.263  21.913  0.00  0.00    +0.046 A 
ATOM     26  C   UNL     1      11.366  11.709  23.176  0.00  0.00    +0.120 A 
BRANCH  26   4
ATOM      4  O   UNL     1      10.432  11.861  24.153  0.00  0.00    -0.495 OA
ATOM     31  C   UNL     1      10.832  12.563  25.329  0.00  0.00    +0.277 C 
ENDBRANCH  26   4
ENDBRANCH  13  15
ENDBRANCH   8  13
BRANCH   9  14
ATOM     14  C   UNL     1      15.382  12.214  16.126  0.00  0.00    +0.124 C 
BRANCH  14  18
ATOM      3  O   UNL     1      17.533  13.099  15.395  0.00  0.00    -0.251 OA
ATOM     18  C   UNL     1      16.673  12.232  15.355  0.00  0.00    +0.305 C 
BRANCH  18   2
ATOM      2  O   UNL     1      16.759  11.120  14.580  0.00  0.00    -0.481 OA
ATOM     32  H   UNL     1      17.146  10.363  15.070  0.00  0.00    +0.295 HD
ENDBRANCH  18   2
ENDBRANCH  14  18
ENDBRANCH   9  14
TORSDOF 7
ENDMDL
MODEL 2
REMARK VINA RESULT:      -6.4      3.491      7.222
REMARK  Name = 51136666
REMARK  8 active torsions:
REMARK  status: ('A' for Active; 'I' for Inactive)
REMARK    1  A    between atoms: O_2  and  C_18
REMARK    2  A    between atoms: O_4  and  C_26
REMARK    3  A    between atoms: O_4  and  C_31
REMARK    4  A    between atoms: C_8  and  C_13
REMARK    5  A    between atoms: C_9  and  C_14
REMARK    6  A    between atoms: C_13  and  C_15
REMARK    7  A    between atoms: C_14  and  C_18
REMARK    8  A    between atoms: C_16  and  C_22
REMARK                            x       y       z     vdW  Elec       q    Type
REMARK                         _______ _______ _______ _____ _____    ______ ____
ROOT
ATOM      1  O   UNL     1      13.345  13.909  22.579  0.00  0.00    -0.270 OA
ATOM      5  N   UNL     1      13.243  11.579  22.754  0.00  0.00    -0.297 N 
ATOM      8  C   UNL     1      13.506   9.333  21.724  0.00  0.00    +0.016 C 
ATOM      9  C   UNL     1      11.962   9.240  21.626  0.00  0.00    +0.006 C 
ATOM     10  C   UNL     1      11.315  10.634  21.547  0.00  0.00    +0.023 C 
ATOM     11  C   UNL     1      13.904  10.272  22.878  0.00  0.00    +0.112 C 
ATOM     12  C   UNL     1      11.784  11.527  22.692  0.00  0.00    +0.108 C 
ATOM     16  C   UNL     1      13.893  12.814  22.688  0.00  0.00    +0.248 C 
ENDROOT
BRANCH  16  22
ATOM      7  N   UNL     1      17.368  12.709  24.093  0.00  0.00    -0.263 NA
ATOM     22  C   UNL     1      15.358  12.828  22.754  0.00  0.00    +0.055 A 
ATOM     27  C   UNL     1      16.125  12.961  21.601  0.00  0.00    +0.016 A 
ATOM     28  C   UNL     1      16.022  12.706  23.965  0.00  0.00    +0.123 A 
ATOM     29  C   UNL     1      17.513  12.968  21.694  0.00  0.00    +0.020 A 
ATOM     30  C   UNL     1      18.080  12.841  22.951  0.00  0.00    +0.111 A 
ENDBRANCH  16  22
BRANCH   8  13
ATOM     13  C   UNL     1      14.187   9.772  20.421  0.00  0.00    +0.061 C 
BRANCH  13  15
ATOM      6  N   UNL     1      14.564   7.903  18.961  0.00  0.00    -0.287 NA
ATOM     15  C   UNL     1      15.052   8.653  19.893  0.00  0.00    +0.044 C 
ATOM     17  C   UNL     1      16.409   8.466  20.467  0.00  0.00    -0.001 A 
ATOM     19  C   UNL     1      17.020   7.226  20.250  0.00  0.00    -0.033 A 
ATOM     20  C   UNL     1      16.274   6.179  19.477  0.00  0.00    +0.059 C 
ATOM     21  C   UNL     1      15.427   6.855  18.406  0.00  0.00    +0.146 C 
ATOM     23  C   UNL     1      17.060   9.457  21.205  0.00  0.00    +0.013 A 
ATOM     24  C   UNL     1      18.281   6.971  20.799  0.00  0.00    +0.050 A 
ATOM     25  C   UNL     1      18.325   9.200  21.736  0.00  0.00    +0.046 A 
ATOM     26  C   UNL     1      18.933   7.960  21.536  0.00  0.00    +0.120 A 
BRANCH  26   4
ATOM      4  O   UNL     1      20.163   7.714  22.063  0.00  0.00    -0.495 OA
ATOM     31  C   UNL     1      20.206   7.070  23.336  0.00  0.00    +0.277 C 
ENDBRANCH  26   4
ENDBRANCH  13  15
ENDBRANCH   8  13
BRANCH   9  14
ATOM     14  C   UNL     1      11.485   8.358  20.473  0.00  0.00    +0.124 C 
BRANCH  14  18
ATOM      3  O   UNL     1      11.276   6.356  21.849  0.00  0.00    -0.251 OA
ATOM     18  C   UNL     1      11.609   6.896  20.805  0.00  0.00    +0.305 C 
BRANCH  18   2
ATOM      2  O   UNL     1      12.160   6.233  19.755  0.00  0.00    -0.481 OA
ATOM     32  H   UNL     1      13.077   5.941  19.948  0.00  0.00    +0.295 HD
ENDBRANCH  18   2
ENDBRANCH  14  18
ENDBRANCH   9  14
TORSDOF 7
ENDMDL
MODEL 3
REMARK VINA RESULT:      -6.2     26.184     28.867
REMARK  Name = 51136666
REMARK  8 active torsions:
REMARK  status: ('A' for Active; 'I' for Inactive)
REMARK    1  A    between atoms: O_2  and  C_18
REMARK    2  A    between atoms: O_4  and  C_26
REMARK    3  A    between atoms: O_4  and  C_31
REMARK    4  A    between atoms: C_8  and  C_13
REMARK    5  A    between atoms: C_9  and  C_14
REMARK    6  A    between atoms: C_13  and  C_15
REMARK    7  A    between atoms: C_14  and  C_18
REMARK    8  A    between atoms: C_16  and  C_22
REMARK                            x       y       z     vdW  Elec       q    Type
REMARK                         _______ _______ _______ _____ _____    ______ ____
ROOT
ATOM      1  O   UNL     1      -5.874 -14.742  11.274  0.00  0.00    -0.270 OA
ATOM      5  N   UNL     1      -4.008 -13.334  11.215  0.00  0.00    -0.297 N 
ATOM      8  C   UNL     1      -2.914 -11.188  11.827  0.00  0.00    +0.016 C 
ATOM      9  C   UNL     1      -3.133 -10.705  10.371  0.00  0.00    +0.006 C 
ATOM     10  C   UNL     1      -4.338 -11.406   9.719  0.00  0.00    +0.023 C 
ATOM     11  C   UNL     1      -2.839 -12.725  11.866  0.00  0.00    +0.112 C 
ATOM     12  C   UNL     1      -4.223 -12.923   9.830  0.00  0.00    +0.108 C 
ATOM     16  C   UNL     1      -4.892 -14.236  11.812  0.00  0.00    +0.248 C 
ENDROOT
BRANCH  16  22
ATOM      7  N   UNL     1      -3.631 -16.162  14.771  0.00  0.00    -0.263 NA
ATOM     22  C   UNL     1      -4.645 -14.625  13.205  0.00  0.00    +0.055 A 
ATOM     27  C   UNL     1      -5.153 -13.874  14.260  0.00  0.00    +0.016 A 
ATOM     28  C   UNL     1      -3.896 -15.751  13.511  0.00  0.00    +0.123 A 
ATOM     29  C   UNL     1      -4.899 -14.266  15.570  0.00  0.00    +0.020 A 
ATOM     30  C   UNL     1      -4.141 -15.408  15.770  0.00  0.00    +0.111 A 
ENDBRANCH  16  22
BRANCH   8  13
ATOM     13  C   UNL     1      -3.972 -10.682  12.817  0.00  0.00    +0.061 C 
BRANCH  13  15
ATOM      6  N   UNL     1      -2.076 -10.415  14.267  0.00  0.00    -0.287 NA
ATOM     15  C   UNL     1      -3.361 -10.533  14.189  0.00  0.00    +0.044 C 
ATOM     17  C   UNL     1      -4.255 -10.535  15.375  0.00  0.00    -0.001 A 
ATOM     19  C   UNL     1      -3.657 -10.784  16.616  0.00  0.00    -0.033 A 
ATOM     20  C   UNL     1      -2.181 -11.042  16.666  0.00  0.00    +0.059 C 
ATOM     21  C   UNL     1      -1.488 -10.209  15.594  0.00  0.00    +0.146 C 
ATOM     23  C   UNL     1      -5.631 -10.316  15.283  0.00  0.00    +0.013 A 
ATOM     24  C   UNL     1      -4.450 -10.839  17.765  0.00  0.00    +0.050 A 
ATOM     25  C   UNL     1      -6.413 -10.358  16.438  0.00  0.00    +0.046 A 
ATOM     26  C   UNL     1      -5.825 -10.622  17.676  0.00  0.00    +0.120 A 
BRANCH  26   4
ATOM      4  O   UNL     1      -6.595 -10.669  18.797  0.00  0.00    -0.495 OA
ATOM     31  C   UNL     1      -6.736 -11.937  19.434  0.00  0.00    +0.277 C 
ENDBRANCH  26   4
ENDBRANCH  13  15
ENDBRANCH   8  13
BRANCH   9  14
ATOM     14  C   UNL     1      -3.263  -9.187  10.254  0.00  0.00    +0.124 C 
BRANCH  14  18
ATOM      3  O   UNL     1      -5.635  -8.642  10.396  0.00  0.00    -0.251 OA
ATOM     18  C   UNL     1      -4.617  -8.785   9.736  0.00  0.00    +0.305 C 
BRANCH  18   2
ATOM      2  O   UNL     1      -4.555  -8.596   8.392  0.00  0.00    -0.481 OA
ATOM     32  H   UNL     1      -3.685  -8.861   8.026  0.00  0.00    +0.295 HD
ENDBRANCH  18   2
ENDBRANCH  14  18
ENDBRANCH   9  14
TORSDOF 7
ENDMDL
MODEL 4
REMARK VINA RESULT:      -6.1     26.665     29.179
REMARK  Name = 51136666
REMARK  8 active torsions:
REMARK  status: ('A' for Active; 'I' for Inactive)
REMARK    1  A    between atoms: O_2  and  C_18
REMARK    2  A    between atoms: O_4  and  C_26
REMARK    3  A    between atoms: O_4  and  C_31
REMARK    4  A    between atoms: C_8  and  C_13
REMARK    5  A    between atoms: C_9  and  C_14
REMARK    6  A    between atoms: C_13  and  C_15
REMARK    7  A    between atoms: C_14  and  C_18
REMARK    8  A    between atoms: C_16  and  C_22
REMARK                            x       y       z     vdW  Elec       q    Type
REMARK                         _______ _______ _______ _____ _____    ______ ____
ROOT
ATOM      1  O   UNL     1      -1.460  -9.938  12.102  0.00  0.00    -0.270 OA
ATOM      5  N   UNL     1      -2.746 -11.214  13.580  0.00  0.00    -0.297 N 
ATOM      8  C   UNL     1      -4.611 -11.380  15.215  0.00  0.00    +0.016 C 
ATOM      9  C   UNL     1      -3.559 -11.399  16.354  0.00  0.00    +0.006 C 
ATOM     10  C   UNL     1      -2.262 -10.685  15.937  0.00  0.00    +0.023 C 
ATOM     11  C   UNL     1      -3.989 -11.924  13.916  0.00  0.00    +0.112 C 
ATOM     12  C   UNL     1      -1.722 -11.242  14.623  0.00  0.00    +0.108 C 
ATOM     16  C   UNL     1      -2.495 -10.538  12.384  0.00  0.00    +0.248 C 
ENDROOT
BRANCH  16  22
ATOM      7  N   UNL     1      -4.657 -11.659   9.533  0.00  0.00    -0.263 NA
ATOM     22  C   UNL     1      -3.546 -10.532  11.361  0.00  0.00    +0.055 A 
ATOM     27  C   UNL     1      -4.413  -9.451  11.231  0.00  0.00    +0.016 A 
ATOM     28  C   UNL     1      -3.708 -11.601  10.495  0.00  0.00    +0.123 A 
ATOM     29  C   UNL     1      -5.402  -9.475  10.254  0.00  0.00    +0.020 A 
ATOM     30  C   UNL     1      -5.481 -10.591   9.437  0.00  0.00    +0.111 A 
ENDBRANCH  16  22
BRANCH   8  13
ATOM     13  C   UNL     1      -5.237 -10.001  14.968  0.00  0.00    +0.061 C 
BRANCH  13  15
ATOM      6  N   UNL     1      -7.042 -10.294  13.412  0.00  0.00    -0.287 NA
ATOM     15  C   UNL     1      -6.704 -10.153  14.651  0.00  0.00    +0.044 C 
ATOM     17  C   UNL     1      -7.684 -10.129  15.768  0.00  0.00    -0.001 A 
ATOM     19  C   UNL     1      -9.020  -9.884  15.430  0.00  0.00    -0.033 A 
ATOM     20  C   UNL     1      -9.369  -9.652  13.990  0.00  0.00    +0.059 C 
ATOM     21  C   UNL     1      -8.462 -10.503  13.110  0.00  0.00    +0.146 C 
ATOM     23  C   UNL     1      -7.314 -10.323  17.101  0.00  0.00    +0.013 A 
ATOM     24  C   UNL     1      -9.984  -9.808  16.439  0.00  0.00    +0.050 A 
ATOM     25  C   UNL     1      -8.287 -10.261  18.099  0.00  0.00    +0.046 A 
ATOM     26  C   UNL     1      -9.618 -10.002  17.771  0.00  0.00    +0.120 A 
BRANCH  26   4
ATOM      4  O   UNL     1     -10.559  -9.935  18.751  0.00  0.00    -0.495 OA
ATOM     31  C   UNL     1     -10.246 -10.561  19.995  0.00  0.00    +0.277 C 
ENDBRANCH  26   4
ENDBRANCH  13  15
ENDBRANCH   8  13
BRANCH   9  14
ATOM     14  C   UNL     1      -4.089 -10.831  17.670  0.00  0.00    +0.124 C 
BRANCH  14  18
ATOM      3  O   UNL     1      -5.248 -12.535  18.972  0.00  0.00    -0.251 OA
ATOM     18  C   UNL     1      -4.236 -11.901  18.717  0.00  0.00    +0.305 C 
BRANCH  18   2
ATOM      2  O   UNL     1      -3.053 -12.075  19.362  0.00  0.00    -0.481 OA
ATOM     32  H   UNL     1      -2.836 -11.312  19.938  0.00  0.00    +0.295 HD
ENDBRANCH  18   2
ENDBRANCH  14  18
ENDBRANCH   9  14
TORSDOF 7
ENDMDL
MODEL 5
REMARK VINA RESULT:      -6.1     12.758     16.556
REMARK  Name = 51136666
REMARK  8 active torsions:
REMARK  status: ('A' for Active; 'I' for Inactive)
REMARK    1  A    between atoms: O_2  and  C_18
REMARK    2  A    between atoms: O_4  and  C_26
REMARK    3  A    between atoms: O_4  and  C_31
REMARK    4  A    between atoms: C_8  and  C_13
REMARK    5  A    between atoms: C_9  and  C_14
REMARK    6  A    between atoms: C_13  and  C_15
REMARK    7  A    between atoms: C_14  and  C_18
REMARK    8  A    between atoms: C_16  and  C_22
REMARK                            x       y       z     vdW  Elec       q    Type
REMARK                         _______ _______ _______ _____ _____    ______ ____
ROOT
ATOM      1  O   UNL     1      15.280   6.633   3.834  0.00  0.00    -0.270 OA
ATOM      5  N   UNL     1      13.406   7.186   2.548  0.00  0.00    -0.297 N 
ATOM      8  C   UNL     1      10.998   6.877   2.014  0.00  0.00    +0.016 C 
ATOM      9  C   UNL     1      11.420   6.055   0.769  0.00  0.00    +0.006 C 
ATOM     10  C   UNL     1      12.798   5.400   0.964  0.00  0.00    +0.023 C 
ATOM     11  C   UNL     1      12.114   7.869   2.391  0.00  0.00    +0.112 C 
ATOM     12  C   UNL     1      13.846   6.428   1.378  0.00  0.00    +0.108 C 
ATOM     16  C   UNL     1      14.202   7.207   3.696  0.00  0.00    +0.248 C 
ENDROOT
BRANCH  16  22
ATOM      7  N   UNL     1      13.588  10.098   6.003  0.00  0.00    -0.263 NA
ATOM     22  C   UNL     1      13.727   7.977   4.851  0.00  0.00    +0.055 A 
ATOM     27  C   UNL     1      12.991   7.371   5.863  0.00  0.00    +0.016 A 
ATOM     28  C   UNL     1      13.997   9.332   4.967  0.00  0.00    +0.123 A 
ATOM     29  C   UNL     1      12.552   8.128   6.943  0.00  0.00    +0.020 A 
ATOM     30  C   UNL     1      12.874   9.475   6.967  0.00  0.00    +0.111 A 
ENDBRANCH  16  22
BRANCH   8  13
ATOM     13  C   UNL     1      10.618   6.017   3.227  0.00  0.00    +0.061 C 
BRANCH  13  15
ATOM      6  N   UNL     1       8.842   7.615   3.478  0.00  0.00    -0.287 NA
ATOM     15  C   UNL     1       9.591   6.740   4.064  0.00  0.00    +0.044 C 
ATOM     17  C   UNL     1       9.495   6.419   5.512  0.00  0.00    -0.001 A 
ATOM     19  C   UNL     1       8.832   7.349   6.321  0.00  0.00    -0.033 A 
ATOM     20  C   UNL     1       8.283   8.594   5.689  0.00  0.00    +0.059 C 
ATOM     21  C   UNL     1       7.805   8.273   4.279  0.00  0.00    +0.146 C 
ATOM     23  C   UNL     1      10.043   5.261   6.067  0.00  0.00    +0.013 A 
ATOM     24  C   UNL     1       8.742   7.126   7.698  0.00  0.00    +0.050 A 
ATOM     25  C   UNL     1       9.935   5.039   7.440  0.00  0.00    +0.046 A 
ATOM     26  C   UNL     1       9.289   5.970   8.255  0.00  0.00    +0.120 A 
BRANCH  26   4
ATOM      4  O   UNL     1       9.194   5.750   9.594  0.00  0.00    -0.495 OA
ATOM     31  C   UNL     1       9.041   4.397  10.021  0.00  0.00    +0.277 C 
ENDBRANCH  26   4
ENDBRANCH  13  15
ENDBRANCH   8  13
BRANCH   9  14
ATOM     14  C   UNL     1      10.381   5.014   0.356  0.00  0.00    +0.124 C 
BRANCH  14  18
ATOM      3  O   UNL     1      10.718   3.619  -1.615  0.00  0.00    -0.251 OA
ATOM     18  C   UNL     1      10.461   4.703  -1.114  0.00  0.00    +0.305 C 
BRANCH  18   2
ATOM      2  O   UNL     1      10.202   5.825  -1.834  0.00  0.00    -0.481 OA
ATOM     32  H   UNL     1       9.431   6.316  -1.479  0.00  0.00    +0.295 HD
ENDBRANCH  18   2
ENDBRANCH  14  18
ENDBRANCH   9  14
TORSDOF 7
ENDMDL
MODEL 6
REMARK VINA RESULT:      -5.9     25.214     27.749
REMARK  Name = 51136666
REMARK  8 active torsions:
REMARK  status: ('A' for Active; 'I' for Inactive)
REMARK    1  A    between atoms: O_2  and  C_18
REMARK    2  A    between atoms: O_4  and  C_26
REMARK    3  A    between atoms: O_4  and  C_31
REMARK    4  A    between atoms: C_8  and  C_13
REMARK    5  A    between atoms: C_9  and  C_14
REMARK    6  A    between atoms: C_13  and  C_15
REMARK    7  A    between atoms: C_14  and  C_18
REMARK    8  A    between atoms: C_16  and  C_22
REMARK                            x       y       z     vdW  Elec       q    Type
REMARK                         _______ _______ _______ _____ _____    ______ ____
ROOT
ATOM      1  O   UNL     1     -12.118  11.404  22.981  0.00  0.00    -0.270 OA
ATOM      5  N   UNL     1     -12.757  10.670  20.854  0.00  0.00    -0.297 N 
ATOM      8  C   UNL     1     -13.151   8.813  19.249  0.00  0.00    +0.016 C 
ATOM      9  C   UNL     1     -11.817   9.185  18.552  0.00  0.00    +0.006 C 
ATOM     10  C   UNL     1     -10.843   9.872  19.525  0.00  0.00    +0.023 C 
ATOM     11  C   UNL     1     -13.739  10.050  19.952  0.00  0.00    +0.112 C 
ATOM     12  C   UNL     1     -11.501  11.061  20.219  0.00  0.00    +0.108 C 
ATOM     16  C   UNL     1     -12.937  10.892  22.222  0.00  0.00    +0.248 C 
ENDROOT
BRANCH  16  22
ATOM      7  N   UNL     1     -16.452  11.077  23.514  0.00  0.00    -0.263 NA
ATOM     22  C   UNL     1     -14.212  10.486  22.824  0.00  0.00    +0.055 A 
ATOM     27  C   UNL     1     -14.411   9.182  23.268  0.00  0.00    +0.016 A 
ATOM     28  C   UNL     1     -15.255  11.387  22.969  0.00  0.00    +0.123 A 
ATOM     29  C   UNL     1     -15.631   8.826  23.833  0.00  0.00    +0.020 A 
ATOM     30  C   UNL     1     -16.610   9.801  23.933  0.00  0.00    +0.111 A 
ENDBRANCH  16  22
BRANCH   8  13
ATOM     13  C   UNL     1     -13.032   7.646  20.237  0.00  0.00    +0.061 C 
BRANCH  13  15
ATOM      6  N   UNL     1     -15.216   7.115  19.391  0.00  0.00    -0.287 NA
ATOM     15  C   UNL     1     -14.350   6.916  20.329  0.00  0.00    +0.044 C 
ATOM     17  C   UNL     1     -14.590   6.015  21.485  0.00  0.00    -0.001 A 
ATOM     19  C   UNL     1     -15.921   5.668  21.749  0.00  0.00    -0.033 A 
ATOM     20  C   UNL     1     -17.000   6.228  20.871  0.00  0.00    +0.059 C 
ATOM     21  C   UNL     1     -16.472   6.360  19.448  0.00  0.00    +0.146 C 
ATOM     23  C   UNL     1     -13.559   5.536  22.296  0.00  0.00    +0.013 A 
ATOM     24  C   UNL     1     -16.218   4.856  22.847  0.00  0.00    +0.050 A 
ATOM     25  C   UNL     1     -13.864   4.713  23.381  0.00  0.00    +0.046 A 
ATOM     26  C   UNL     1     -15.190   4.376  23.658  0.00  0.00    +0.120 A 
BRANCH  26   4
ATOM      4  O   UNL     1     -15.479   3.580  24.723  0.00  0.00    -0.495 OA
ATOM     31  C   UNL     1     -16.778   2.989  24.758  0.00  0.00    +0.277 C 
ENDBRANCH  26   4
ENDBRANCH  13  15
ENDBRANCH   8  13
BRANCH   9  14
ATOM     14  C   UNL     1     -11.146   7.996  17.866  0.00  0.00    +0.124 C 
BRANCH  14  18
ATOM      3  O   UNL     1     -10.244   9.540  16.209  0.00  0.00    -0.251 OA
ATOM     18  C   UNL     1     -10.485   8.401  16.577  0.00  0.00    +0.305 C 
BRANCH  18   2
ATOM      2  O   UNL     1     -10.181   7.293  15.851  0.00  0.00    -0.481 OA
ATOM     32  H   UNL     1      -9.454   7.462  15.214  0.00  0.00    +0.295 HD
ENDBRANCH  18   2
ENDBRANCH  14  18
ENDBRANCH   9  14
TORSDOF 7
ENDMDL
MODEL 7
REMARK VINA RESULT:      -5.7     27.361     29.749
REMARK  Name = 51136666
REMARK  8 active torsions:
REMARK  status: ('A' for Active; 'I' for Inactive)
REMARK    1  A    between atoms: O_2  and  C_18
REMARK    2  A    between atoms: O_4  and  C_26
REMARK    3  A    between atoms: O_4  and  C_31
REMARK    4  A    between atoms: C_8  and  C_13
REMARK    5  A    between atoms: C_9  and  C_14
REMARK    6  A    between atoms: C_13  and  C_15
REMARK    7  A    between atoms: C_14  and  C_18
REMARK    8  A    between atoms: C_16  and  C_22
REMARK                            x       y       z     vdW  Elec       q    Type
REMARK                         _______ _______ _______ _____ _____    ______ ____
ROOT
ATOM      1  O   UNL     1      -2.002 -10.207  14.453  0.00  0.00    -0.270 OA
ATOM      5  N   UNL     1      -3.881 -11.354  15.243  0.00  0.00    -0.297 N 
ATOM      8  C   UNL     1      -6.312 -11.400  15.758  0.00  0.00    +0.016 C 
ATOM      9  C   UNL     1      -5.957 -11.255  17.260  0.00  0.00    +0.006 C 
ATOM     10  C   UNL     1      -4.605 -10.548  17.456  0.00  0.00    +0.023 C 
ATOM     11  C   UNL     1      -5.145 -12.064  15.004  0.00  0.00    +0.112 C 
ATOM     12  C   UNL     1      -3.503 -11.230  16.650  0.00  0.00    +0.108 C 
ATOM     16  C   UNL     1      -3.056 -10.807  14.257  0.00  0.00    +0.248 C 
ENDROOT
BRANCH  16  22
ATOM      7  N   UNL     1      -4.801 -10.155  11.003  0.00  0.00    -0.263 NA
ATOM     22  C   UNL     1      -3.468 -10.951  12.856  0.00  0.00    +0.055 A 
ATOM     27  C   UNL     1      -2.953 -11.968  12.059  0.00  0.00    +0.016 A 
ATOM     28  C   UNL     1      -4.381 -10.078  12.286  0.00  0.00    +0.123 A 
ATOM     29  C   UNL     1      -3.361 -12.077  10.734  0.00  0.00    +0.020 A 
ATOM     30  C   UNL     1      -4.278 -11.155  10.258  0.00  0.00    +0.111 A 
ENDBRANCH  16  22
BRANCH   8  13
ATOM     13  C   UNL     1      -6.700 -10.079  15.080  0.00  0.00    +0.061 C 
BRANCH  13  15
ATOM      6  N   UNL     1      -8.345 -11.059  13.631  0.00  0.00    -0.287 NA
ATOM     15  C   UNL     1      -8.106 -10.173  14.541  0.00  0.00    +0.044 C 
ATOM     17  C   UNL     1      -9.140  -9.249  15.073  0.00  0.00    -0.001 A 
ATOM     19  C   UNL     1     -10.301  -9.091  14.306  0.00  0.00    -0.033 A 
ATOM     20  C   UNL     1     -10.418  -9.843  13.013  0.00  0.00    +0.059 C 
ATOM     21  C   UNL     1      -9.724 -11.192  13.151  0.00  0.00    +0.146 C 
ATOM     23  C   UNL     1      -8.981  -8.546  16.269  0.00  0.00    +0.013 A 
ATOM     24  C   UNL     1     -11.294  -8.204  14.731  0.00  0.00    +0.050 A 
ATOM     25  C   UNL     1      -9.985  -7.674  16.693  0.00  0.00    +0.046 A 
ATOM     26  C   UNL     1     -11.137  -7.502  15.925  0.00  0.00    +0.120 A 
BRANCH  26   4
ATOM      4  O   UNL     1     -12.109  -6.644  16.341  0.00  0.00    -0.495 OA
ATOM     31  C   UNL     1     -13.270  -6.531  15.520  0.00  0.00    +0.277 C 
ENDBRANCH  26   4
ENDBRANCH  13  15
ENDBRANCH   8  13
BRANCH   9  14
ATOM     14  C   UNL     1      -7.051 -10.562  18.071  0.00  0.00    +0.124 C 
BRANCH  14  18
ATOM      3  O   UNL     1      -7.321 -12.025  20.002  0.00  0.00    -0.251 OA
ATOM     18  C   UNL     1      -6.994 -10.950  19.523  0.00  0.00    +0.305 C 
BRANCH  18   2
ATOM      2  O   UNL     1      -6.515  -9.912  20.256  0.00  0.00    -0.481 OA
ATOM     32  H   UNL     1      -6.982  -9.074  20.051  0.00  0.00    +0.295 HD
ENDBRANCH  18   2
ENDBRANCH  14  18
ENDBRANCH   9  14
TORSDOF 7
ENDMDL
MODEL 8
REMARK VINA RESULT:      -5.6     22.494     26.044
REMARK  Name = 51136666
REMARK  8 active torsions:
REMARK  status: ('A' for Active; 'I' for Inactive)
REMARK    1  A    between atoms: O_2  and  C_18
REMARK    2  A    between atoms: O_4  and  C_26
REMARK    3  A    between atoms: O_4  and  C_31
REMARK    4  A    between atoms: C_8  and  C_13
REMARK    5  A    between atoms: C_9  and  C_14
REMARK    6  A    between atoms: C_13  and  C_15
REMARK    7  A    between atoms: C_14  and  C_18
REMARK    8  A    between atoms: C_16  and  C_22
REMARK                            x       y       z     vdW  Elec       q    Type
REMARK                         _______ _______ _______ _____ _____    ______ ____
ROOT
ATOM      1  O   UNL     1       2.713 -12.855  33.601  0.00  0.00    -0.270 OA
ATOM      5  N   UNL     1       4.791 -13.493  32.738  0.00  0.00    -0.297 N 
ATOM      8  C   UNL     1       6.806 -12.973  31.381  0.00  0.00    +0.016 C 
ATOM      9  C   UNL     1       6.234 -13.873  30.256  0.00  0.00    +0.006 C 
ATOM     10  C   UNL     1       4.698 -13.949  30.319  0.00  0.00    +0.023 C 
ATOM     11  C   UNL     1       6.259 -13.426  32.747  0.00  0.00    +0.112 C 
ATOM     12  C   UNL     1       4.222 -14.361  31.709  0.00  0.00    +0.108 C 
ATOM     16  C   UNL     1       3.941 -12.806  33.608  0.00  0.00    +0.248 C 
ENDROOT
BRANCH  16  22
ATOM      7  N   UNL     1       5.346 -11.672  36.894  0.00  0.00    -0.263 NA
ATOM     22  C   UNL     1       4.548 -11.944  34.628  0.00  0.00    +0.055 A 
ATOM     27  C   UNL     1       4.902 -10.631  34.339  0.00  0.00    +0.016 A 
ATOM     28  C   UNL     1       4.789 -12.413  35.910  0.00  0.00    +0.123 A 
ATOM     29  C   UNL     1       5.478  -9.838  35.325  0.00  0.00    +0.020 A 
ATOM     30  C   UNL     1       5.677 -10.401  36.576  0.00  0.00    +0.111 A 
ENDBRANCH  16  22
BRANCH   8  13
ATOM     13  C   UNL     1       6.544 -11.475  31.172  0.00  0.00    +0.061 C 
BRANCH  13  15
ATOM      6  N   UNL     1       8.924 -11.249  31.402  0.00  0.00    -0.287 NA
ATOM     15  C   UNL     1       7.772 -10.683  31.551  0.00  0.00    +0.044 C 
ATOM     17  C   UNL     1       7.600  -9.305  32.078  0.00  0.00    -0.001 A 
ATOM     19  C   UNL     1       8.685  -8.753  32.769  0.00  0.00    -0.033 A 
ATOM     20  C   UNL     1       9.924  -9.579  32.942  0.00  0.00    +0.059 C 
ATOM     21  C   UNL     1      10.119 -10.457  31.713  0.00  0.00    +0.146 C 
ATOM     23  C   UNL     1       6.418  -8.578  31.918  0.00  0.00    +0.013 A 
ATOM     24  C   UNL     1       8.572  -7.475  33.325  0.00  0.00    +0.050 A 
ATOM     25  C   UNL     1       6.320  -7.297  32.463  0.00  0.00    +0.046 A 
ATOM     26  C   UNL     1       7.393  -6.747  33.167  0.00  0.00    +0.120 A 
BRANCH  26   4
ATOM      4  O   UNL     1       7.287  -5.501  33.702  0.00  0.00    -0.495 OA
ATOM     31  C   UNL     1       8.503  -4.833  34.037  0.00  0.00    +0.277 C 
ENDBRANCH  26   4
ENDBRANCH  13  15
ENDBRANCH   8  13
BRANCH   9  14
ATOM     14  C   UNL     1       6.697 -13.459  28.860  0.00  0.00    +0.124 C 
BRANCH  14  18
ATOM      3  O   UNL     1       8.762 -14.738  28.658  0.00  0.00    -0.251 OA
ATOM     18  C   UNL     1       8.176 -13.667  28.682  0.00  0.00    +0.305 C 
BRANCH  18   2
ATOM      2  O   UNL     1       8.794 -12.464  28.548  0.00  0.00    -0.481 OA
ATOM     32  H   UNL     1       9.609 -12.410  29.092  0.00  0.00    +0.295 HD
ENDBRANCH  18   2
ENDBRANCH  14  18
ENDBRANCH   9  14
TORSDOF 7
ENDMDL
MODEL 9
REMARK VINA RESULT:      -5.6     13.240     16.860
REMARK  Name = 51136666
REMARK  8 active torsions:
REMARK  status: ('A' for Active; 'I' for Inactive)
REMARK    1  A    between atoms: O_2  and  C_18
REMARK    2  A    between atoms: O_4  and  C_26
REMARK    3  A    between atoms: O_4  and  C_31
REMARK    4  A    between atoms: C_8  and  C_13
REMARK    5  A    between atoms: C_9  and  C_14
REMARK    6  A    between atoms: C_13  and  C_15
REMARK    7  A    between atoms: C_14  and  C_18
REMARK    8  A    between atoms: C_16  and  C_22
REMARK                            x       y       z     vdW  Elec       q    Type
REMARK                         _______ _______ _______ _____ _____    ______ ____
ROOT
ATOM      1  O   UNL     1      10.758   9.982   0.267  0.00  0.00    -0.270 OA
ATOM      5  N   UNL     1      10.953   7.695   0.716  0.00  0.00    -0.297 N 
ATOM      8  C   UNL     1      11.705   5.853   2.205  0.00  0.00    +0.016 C 
ATOM      9  C   UNL     1      12.892   5.609   1.239  0.00  0.00    +0.006 C 
ATOM     10  C   UNL     1      13.267   6.887   0.469  0.00  0.00    +0.023 C 
ATOM     11  C   UNL     1      10.529   6.490   1.442  0.00  0.00    +0.112 C 
ATOM     12  C   UNL     1      12.050   7.490  -0.227  0.00  0.00    +0.108 C 
ATOM     16  C   UNL     1      10.403   8.971   0.868  0.00  0.00    +0.248 C 
ENDROOT
BRANCH  16  22
ATOM      7  N   UNL     1       6.924   9.191   2.247  0.00  0.00    -0.263 NA
ATOM     22  C   UNL     1       9.303   9.138   1.824  0.00  0.00    +0.055 A 
ATOM     27  C   UNL     1       9.555   9.391   3.169  0.00  0.00    +0.016 A 
ATOM     28  C   UNL     1       7.981   9.049   1.417  0.00  0.00    +0.123 A 
ATOM     29  C   UNL     1       8.492   9.543   4.052  0.00  0.00    +0.020 A 
ATOM     30  C   UNL     1       7.207   9.436   3.546  0.00  0.00    +0.111 A 
ENDBRANCH  16  22
BRANCH   8  13
ATOM     13  C   UNL     1      12.066   6.702   3.432  0.00  0.00    +0.061 C 
BRANCH  13  15
ATOM      6  N   UNL     1      10.662   5.136   4.591  0.00  0.00    -0.287 NA
ATOM     15  C   UNL     1      11.188   6.316   4.598  0.00  0.00    +0.044 C 
ATOM     17  C   UNL     1      10.969   7.303   5.686  0.00  0.00    -0.001 A 
ATOM     19  C   UNL     1       9.876   7.078   6.531  0.00  0.00    -0.033 A 
ATOM     20  C   UNL     1       9.004   5.884   6.279  0.00  0.00    +0.059 C 
ATOM     21  C   UNL     1       9.859   4.739   5.752  0.00  0.00    +0.146 C 
ATOM     23  C   UNL     1      11.789   8.418   5.871  0.00  0.00    +0.013 A 
ATOM     24  C   UNL     1       9.591   7.992   7.549  0.00  0.00    +0.050 A 
ATOM     25  C   UNL     1      11.506   9.316   6.900  0.00  0.00    +0.046 A 
ATOM     26  C   UNL     1      10.409   9.106   7.736  0.00  0.00    +0.120 A 
BRANCH  26   4
ATOM      4  O   UNL     1      10.135   9.992   8.732  0.00  0.00    -0.495 OA
ATOM     31  C   UNL     1       9.535  11.230   8.354  0.00  0.00    +0.277 C 
ENDBRANCH  26   4
ENDBRANCH  13  15
ENDBRANCH   8  13
BRANCH   9  14
ATOM     14  C   UNL     1      14.119   5.018   1.932  0.00  0.00    +0.124 C 
BRANCH  14  18
ATOM      3  O   UNL     1      13.289   2.777   1.448  0.00  0.00    -0.251 OA
ATOM     18  C   UNL     1      14.209   3.530   1.725  0.00  0.00    +0.305 C 
BRANCH  18   2
ATOM      2  O   UNL     1      15.494   3.122   1.894  0.00  0.00    -0.481 OA
ATOM     32  H   UNL     1      15.734   3.054   2.843  0.00  0.00    +0.295 HD
ENDBRANCH  18   2
ENDBRANCH  14  18
ENDBRANCH   9  14
TORSDOF 7
ENDMDL
MODEL 10
REMARK VINA RESULT:      -5.6     12.707     17.425
REMARK  Name = 51136666
REMARK  8 active torsions:
REMARK  status: ('A' for Active; 'I' for Inactive)
REMARK    1  A    between atoms: O_2  and  C_18
REMARK    2  A    between atoms: O_4  and  C_26
REMARK    3  A    between atoms: O_4  and  C_31
REMARK    4  A    between atoms: C_8  and  C_13
REMARK    5  A    between atoms: C_9  and  C_14
REMARK    6  A    between atoms: C_13  and  C_15
REMARK    7  A    between atoms: C_14  and  C_18
REMARK    8  A    between atoms: C_16  and  C_22
REMARK                            x       y       z     vdW  Elec       q    Type
REMARK                         _______ _______ _______ _____ _____    ______ ____
ROOT
ATOM      1  O   UNL     1      10.452  11.404   5.727  0.00  0.00    -0.270 OA
ATOM      5  N   UNL     1      11.106   9.251   6.364  0.00  0.00    -0.297 N 
ATOM      8  C   UNL     1      10.715   6.796   6.360  0.00  0.00    +0.016 C 
ATOM      9  C   UNL     1      10.217   6.912   7.823  0.00  0.00    +0.006 C 
ATOM     10  C   UNL     1       9.654   8.313   8.119  0.00  0.00    +0.023 C 
ATOM     11  C   UNL     1      11.695   7.942   6.045  0.00  0.00    +0.112 C 
ATOM     12  C   UNL     1      10.656   9.402   7.746  0.00  0.00    +0.108 C 
ATOM     16  C   UNL     1      10.949  10.311   5.467  0.00  0.00    +0.248 C 
ENDROOT
BRANCH  16  22
ATOM      7  N   UNL     1      11.272  10.749   1.757  0.00  0.00    -0.263 NA
ATOM     22  C   UNL     1      11.412  10.122   4.088  0.00  0.00    +0.055 A 
ATOM     27  C   UNL     1      12.394   9.184   3.784  0.00  0.00    +0.016 A 
ATOM     28  C   UNL     1      10.888  10.873   3.048  0.00  0.00    +0.123 A 
ATOM     29  C   UNL     1      12.814   9.029   2.468  0.00  0.00    +0.020 A 
ATOM     30  C   UNL     1      12.227   9.828   1.500  0.00  0.00    +0.111 A 
ENDBRANCH  16  22
BRANCH   8  13
ATOM     13  C   UNL     1       9.588   6.760   5.319  0.00  0.00    +0.061 C 
BRANCH  13  15
ATOM      6  N   UNL     1      10.642   4.899   4.226  0.00  0.00    -0.287 NA
ATOM     15  C   UNL     1      10.059   6.043   4.078  0.00  0.00    +0.044 C 
ATOM     17  C   UNL     1       9.839   6.683   2.755  0.00  0.00    -0.001 A 
ATOM     19  C   UNL     1      10.609   6.205   1.687  0.00  0.00    -0.033 A 
ATOM     20  C   UNL     1      11.597   5.107   1.945  0.00  0.00    +0.059 C 
ATOM     21  C   UNL     1      11.045   4.175   3.016  0.00  0.00    +0.146 C 
ATOM     23  C   UNL     1       8.927   7.722   2.561  0.00  0.00    +0.013 A 
ATOM     24  C   UNL     1      10.478   6.792   0.425  0.00  0.00    +0.050 A 
ATOM     25  C   UNL     1       8.793   8.292   1.295  0.00  0.00    +0.046 A 
ATOM     26  C   UNL     1       9.568   7.830   0.230  0.00  0.00    +0.120 A 
BRANCH  26   4
ATOM      4  O   UNL     1       9.436   8.396  -1.001  0.00  0.00    -0.495 OA
ATOM     31  C   UNL     1       8.736   7.644  -1.990  0.00  0.00    +0.277 C 
ENDBRANCH  26   4
ENDBRANCH  13  15
ENDBRANCH   8  13
BRANCH   9  14
ATOM     14  C   UNL     1       9.203   5.832   8.200  0.00  0.00    +0.124 C 
BRANCH  14  18
ATOM      3  O   UNL     1       9.950   4.693  10.221  0.00  0.00    -0.251 OA
ATOM     18  C   UNL     1       9.839   4.733   9.006  0.00  0.00    +0.305 C 
BRANCH  18   2
ATOM      2  O   UNL     1      10.288   3.757   8.174  0.00  0.00    -0.481 OA
ATOM     32  H   UNL     1      10.881   3.127   8.637  0.00  0.00    +0.295 HD
ENDBRANCH  18   2
ENDBRANCH  14  18
ENDBRANCH   9  14
TORSDOF 7
ENDMDL
