MODEL 1
REMARK VINA RESULT:      -7.9      0.000      0.000
REMARK  Name = 11912973
REMARK  7 active torsions:
REMARK  status: ('A' for Active; 'I' for Inactive)
REMARK    1  A    between atoms: S_1  and  N_8
REMARK    2  A    between atoms: S_1  and  C_20
REMARK    3  A    between atoms: N_8  and  C_15
REMARK    4  A    between atoms: N_9  and  C_16
REMARK    5  A    between atoms: N_12  and  C_27
REMARK    6  A    between atoms: C_23  and  C_29
REMARK    7  A    between atoms: C_31  and  C_34
REMARK                            x       y       z     vdW  Elec       q    Type
REMARK                         _______ _______ _______ _____ _____    ______ ____
ROOT
ATOM      2  O   UNL     1      17.633   5.722  20.295  0.00  0.00    -0.370 OA
ATOM      3  O   UNL     1      16.866   8.706  20.826  0.00  0.00    -0.370 OA
ATOM     13  C   UNL     1      17.322   7.638  21.672  0.00  0.00    +0.170 C 
ATOM     14  C   UNL     1      16.684   6.358  21.169  0.00  0.00    +0.171 C 
ATOM     15  C   UNL     1      18.802   7.414  21.480  0.00  0.00    +0.133 C 
ATOM     16  C   UNL     1      15.482   6.827  20.384  0.00  0.00    +0.130 C 
ATOM     17  C   UNL     1      18.847   6.487  20.281  0.00  0.00    +0.183 C 
ATOM     18  C   UNL     1      15.928   8.185  19.872  0.00  0.00    +0.185 C 
ENDROOT
BRANCH  16   9
ATOM      9  N   UNL     1      14.342   6.974  21.262  0.00  0.00    -0.306 N 
ATOM     10  N   UNL     1      12.987   7.822  19.545  0.00  0.00    -0.211 NA
ATOM     11  N   UNL     1      12.126   7.546  21.779  0.00  0.00    -0.223 NA
ATOM     19  C   UNL     1      13.115   7.461  20.850  0.00  0.00    +0.216 A 
ATOM     23  C   UNL     1      11.777   8.293  19.177  0.00  0.00    +0.111 A 
ATOM     24  C   UNL     1      10.943   8.026  21.342  0.00  0.00    +0.116 A 
ATOM     28  C   UNL     1      10.708   8.419  20.040  0.00  0.00    +0.051 A 
ATOM     36  H   UNL     1      14.410   6.659  22.223  0.00  0.00    +0.149 HD
BRANCH  23  29
ATOM      6  O   UNL     1      12.800   9.191  17.246  0.00  0.00    -0.461 OA
ATOM     29  C   UNL     1      11.673   8.667  17.792  0.00  0.00    +0.153 A 
ATOM     30  C   UNL     1      10.661   8.613  16.864  0.00  0.00    +0.051 A 
ATOM     32  C   UNL     1      11.201   9.140  15.666  0.00  0.00    +0.042 A 
ATOM     33  C   UNL     1      12.505   9.476  15.951  0.00  0.00    +0.196 A 
ENDBRANCH  23  29
ENDBRANCH  16   9
BRANCH  15   8
ATOM      8  N   UNL     1      19.360   6.720  22.666  0.00  0.00    -0.182 NA
ATOM     35  H   UNL     1      18.679   6.323  23.325  0.00  0.00    +0.148 HD
BRANCH   8   1
ATOM      1  S   UNL     1      20.911   7.121  23.227  0.00  0.00    +0.059 S 
ATOM      4  O   UNL     1      20.845   7.444  24.639  0.00  0.00    -0.153 OA
ATOM      5  O   UNL     1      21.520   8.050  22.294  0.00  0.00    -0.153 OA
BRANCH   1  20
ATOM     20  C   UNL     1      21.769   5.584  23.059  0.00  0.00    +0.105 A 
ATOM     21  C   UNL     1      22.718   5.234  24.004  0.00  0.00    +0.030 A 
ATOM     22  C   UNL     1      21.476   4.761  21.987  0.00  0.00    +0.030 A 
ATOM     25  C   UNL     1      23.395   4.021  23.871  0.00  0.00    +0.025 A 
ATOM     26  C   UNL     1      22.152   3.549  21.854  0.00  0.00    +0.025 A 
ATOM     27  C   UNL     1      23.112   3.179  22.796  0.00  0.00    +0.033 A 
BRANCH  27  12
ATOM      7  O   UNL     1      25.186   2.304  20.796  0.00  0.00    -0.276 OA
ATOM     12  N   UNL     1      23.788   1.966  22.664  0.00  0.00    -0.286 N 
ATOM     31  C   UNL     1      24.749   1.610  21.708  0.00  0.00    +0.214 C 
ATOM     34  C   UNL     1      25.241   0.199  21.909  0.00  0.00    +0.109 C 
ATOM     37  H   UNL     1      23.546   1.257  23.353  0.00  0.00    +0.155 HD
ENDBRANCH  27  12
ENDBRANCH   1  20
ENDBRANCH   8   1
ENDBRANCH  15   8
TORSDOF 6
ENDMDL
MODEL 2
REMARK VINA RESULT:      -7.6     27.775     31.551
REMARK  Name = 11912973
REMARK  7 active torsions:
REMARK  status: ('A' for Active; 'I' for Inactive)
REMARK    1  A    between atoms: S_1  and  N_8
REMARK    2  A    between atoms: S_1  and  C_20
REMARK    3  A    between atoms: N_8  and  C_15
REMARK    4  A    between atoms: N_9  and  C_16
REMARK    5  A    between atoms: N_12  and  C_27
REMARK    6  A    between atoms: C_23  and  C_29
REMARK    7  A    between atoms: C_31  and  C_34
REMARK                            x       y       z     vdW  Elec       q    Type
REMARK                         _______ _______ _______ _____ _____    ______ ____
ROOT
ATOM      2  O   UNL     1      -9.268  -9.101  15.096  0.00  0.00    -0.370 OA
ATOM      3  O   UNL     1     -10.659  -7.318  17.253  0.00  0.00    -0.370 OA
ATOM     13  C   UNL     1     -10.703  -8.723  16.956  0.00  0.00    +0.170 C 
ATOM     14  C   UNL     1     -10.643  -8.868  15.447  0.00  0.00    +0.171 C 
ATOM     15  C   UNL     1      -9.446  -9.400  17.444  0.00  0.00    +0.133 C 
ATOM     16  C   UNL     1     -11.095  -7.524  14.929  0.00  0.00    +0.130 C 
ATOM     17  C   UNL     1      -8.482  -9.183  16.293  0.00  0.00    +0.183 C 
ATOM     18  C   UNL     1     -10.648  -6.575  16.025  0.00  0.00    +0.185 C 
ENDROOT
BRANCH  16   9
ATOM      9  N   UNL     1     -12.537  -7.500  14.804  0.00  0.00    -0.306 N 
ATOM     10  N   UNL     1     -12.458  -6.183  12.863  0.00  0.00    -0.211 NA
ATOM     11  N   UNL     1     -14.565  -6.902  13.788  0.00  0.00    -0.223 NA
ATOM     19  C   UNL     1     -13.206  -6.843  13.788  0.00  0.00    +0.216 A 
ATOM     23  C   UNL     1     -13.144  -5.553  11.887  0.00  0.00    +0.111 A 
ATOM     24  C   UNL     1     -15.185  -6.249  12.783  0.00  0.00    +0.116 A 
ATOM     28  C   UNL     1     -14.521  -5.552  11.795  0.00  0.00    +0.051 A 
ATOM     36  H   UNL     1     -13.101  -8.032  15.456  0.00  0.00    +0.149 HD
BRANCH  23  29
ATOM      6  O   UNL     1     -11.715  -5.658  10.010  0.00  0.00    -0.461 OA
ATOM     29  C   UNL     1     -12.326  -4.865  10.925  0.00  0.00    +0.153 A 
ATOM     30  C   UNL     1     -12.011  -3.544  10.713  0.00  0.00    +0.051 A 
ATOM     32  C   UNL     1     -11.147  -3.523   9.593  0.00  0.00    +0.042 A 
ATOM     33  C   UNL     1     -10.998  -4.834   9.201  0.00  0.00    +0.196 A 
ENDBRANCH  23  29
ENDBRANCH  16   9
BRANCH  15   8
ATOM      8  N   UNL     1      -9.695 -10.852  17.616  0.00  0.00    -0.182 NA
ATOM     35  H   UNL     1     -10.604 -11.201  17.286  0.00  0.00    +0.148 HD
BRANCH   8   1
ATOM      1  S   UNL     1      -8.874 -11.712  18.827  0.00  0.00    +0.059 S 
ATOM      4  O   UNL     1      -9.277 -13.105  18.788  0.00  0.00    -0.153 OA
ATOM      5  O   UNL     1      -8.953 -10.964  20.067  0.00  0.00    -0.153 OA
BRANCH   1  20
ATOM     20  C   UNL     1      -7.198 -11.613  18.272  0.00  0.00    +0.105 A 
ATOM     21  C   UNL     1      -6.322 -10.759  18.920  0.00  0.00    +0.030 A 
ATOM     22  C   UNL     1      -6.793 -12.392  17.203  0.00  0.00    +0.030 A 
ATOM     25  C   UNL     1      -4.999 -10.682  18.482  0.00  0.00    +0.025 A 
ATOM     26  C   UNL     1      -5.471 -12.315  16.766  0.00  0.00    +0.025 A 
ATOM     27  C   UNL     1      -4.574 -11.460  17.406  0.00  0.00    +0.033 A 
BRANCH  27  12
ATOM      7  O   UNL     1      -3.429 -10.475  14.800  0.00  0.00    -0.276 OA
ATOM     12  N   UNL     1      -3.251 -11.383  16.969  0.00  0.00    -0.286 N 
ATOM     31  C   UNL     1      -2.772 -10.915  15.738  0.00  0.00    +0.214 C 
ATOM     34  C   UNL     1      -1.269 -10.997  15.656  0.00  0.00    +0.109 C 
ATOM     37  H   UNL     1      -2.555 -11.710  17.635  0.00  0.00    +0.155 HD
ENDBRANCH  27  12
ENDBRANCH   1  20
ENDBRANCH   8   1
ENDBRANCH  15   8
TORSDOF 6
ENDMDL
MODEL 3
REMARK VINA RESULT:      -7.5      7.870     13.296
REMARK  Name = 11912973
REMARK  7 active torsions:
REMARK  status: ('A' for Active; 'I' for Inactive)
REMARK    1  A    between atoms: S_1  and  N_8
REMARK    2  A    between atoms: S_1  and  C_20
REMARK    3  A    between atoms: N_8  and  C_15
REMARK    4  A    between atoms: N_9  and  C_16
REMARK    5  A    between atoms: N_12  and  C_27
REMARK    6  A    between atoms: C_23  and  C_29
REMARK    7  A    between atoms: C_31  and  C_34
REMARK                            x       y       z     vdW  Elec       q    Type
REMARK                         _______ _______ _______ _____ _____    ______ ____
ROOT
ATOM      2  O   UNL     1      14.061  11.096  17.002  0.00  0.00    -0.370 OA
ATOM      3  O   UNL     1      13.869   8.203  15.834  0.00  0.00    -0.370 OA
ATOM     13  C   UNL     1      12.987   9.338  15.811  0.00  0.00    +0.170 C 
ATOM     14  C   UNL     1      13.107  10.031  17.154  0.00  0.00    +0.171 C 
ATOM     15  C   UNL     1      13.481  10.363  14.820  0.00  0.00    +0.133 C 
ATOM     16  C   UNL     1      13.655   8.965  18.073  0.00  0.00    +0.130 C 
ATOM     17  C   UNL     1      14.486  11.156  15.633  0.00  0.00    +0.183 C 
ATOM     18  C   UNL     1      14.475   8.103  17.130  0.00  0.00    +0.185 C 
ENDROOT
BRANCH  16   9
ATOM      9  N   UNL     1      12.570   8.193  18.639  0.00  0.00    -0.306 N 
ATOM     10  N   UNL     1      12.575   9.440  20.628  0.00  0.00    -0.211 NA
ATOM     11  N   UNL     1      11.018   7.628  20.306  0.00  0.00    -0.223 NA
ATOM     19  C   UNL     1      12.039   8.427  19.895  0.00  0.00    +0.216 A 
ATOM     23  C   UNL     1      12.033   9.640  21.847  0.00  0.00    +0.111 A 
ATOM     24  C   UNL     1      10.524   7.885  21.535  0.00  0.00    +0.116 A 
ATOM     28  C   UNL     1      10.996   8.887  22.358  0.00  0.00    +0.051 A 
ATOM     36  H   UNL     1      12.128   7.472  18.082  0.00  0.00    +0.149 HD
BRANCH  23  29
ATOM      6  O   UNL     1      12.015  11.000  23.778  0.00  0.00    -0.461 OA
ATOM     29  C   UNL     1      12.622  10.716  22.598  0.00  0.00    +0.153 A 
ATOM     30  C   UNL     1      13.693  11.550  22.388  0.00  0.00    +0.051 A 
ATOM     32  C   UNL     1      13.750  12.405  23.514  0.00  0.00    +0.042 A 
ATOM     33  C   UNL     1      12.708  12.030  24.331  0.00  0.00    +0.196 A 
ENDBRANCH  23  29
ENDBRANCH  16   9
BRANCH  15   8
ATOM      8  N   UNL     1      12.361  11.247  14.416  0.00  0.00    -0.182 NA
ATOM     35  H   UNL     1      11.413  10.897  14.603  0.00  0.00    +0.148 HD
BRANCH   8   1
ATOM      1  S   UNL     1      12.588  12.386  13.178  0.00  0.00    +0.059 S 
ATOM      4  O   UNL     1      13.392  11.800  12.123  0.00  0.00    -0.153 OA
ATOM      5  O   UNL     1      12.975  13.651  13.772  0.00  0.00    -0.153 OA
BRANCH   1  20
ATOM     20  C   UNL     1      10.943  12.588  12.561  0.00  0.00    +0.105 A 
ATOM     21  C   UNL     1      10.151  13.602  13.072  0.00  0.00    +0.030 A 
ATOM     22  C   UNL     1      10.479  11.730  11.580  0.00  0.00    +0.030 A 
ATOM     25  C   UNL     1       8.853  13.762  12.585  0.00  0.00    +0.025 A 
ATOM     26  C   UNL     1       9.183  11.890  11.093  0.00  0.00    +0.025 A 
ATOM     27  C   UNL     1       8.370  12.906  11.596  0.00  0.00    +0.033 A 
BRANCH  27  12
ATOM      7  O   UNL     1       7.386  14.097   9.010  0.00  0.00    -0.276 OA
ATOM     12  N   UNL     1       7.072  13.066  11.108  0.00  0.00    -0.286 N 
ATOM     31  C   UNL     1       6.669  13.633   9.891  0.00  0.00    +0.214 C 
ATOM     34  C   UNL     1       5.169  13.619   9.738  0.00  0.00    +0.109 C 
ATOM     37  H   UNL     1       6.333  12.727  11.720  0.00  0.00    +0.155 HD
ENDBRANCH  27  12
ENDBRANCH   1  20
ENDBRANCH   8   1
ENDBRANCH  15   8
TORSDOF 6
ENDMDL
MODEL 4
REMARK VINA RESULT:      -7.5     27.860     31.184
REMARK  Name = 11912973
REMARK  7 active torsions:
REMARK  status: ('A' for Active; 'I' for Inactive)
REMARK    1  A    between atoms: S_1  and  N_8
REMARK    2  A    between atoms: S_1  and  C_20
REMARK    3  A    between atoms: N_8  and  C_15
REMARK    4  A    between atoms: N_9  and  C_16
REMARK    5  A    between atoms: N_12  and  C_27
REMARK    6  A    between atoms: C_23  and  C_29
REMARK    7  A    between atoms: C_31  and  C_34
REMARK                            x       y       z     vdW  Elec       q    Type
REMARK                         _______ _______ _______ _____ _____    ______ ____
ROOT
ATOM      2  O   UNL     1      -6.188 -10.548  16.765  0.00  0.00    -0.370 OA
ATOM      3  O   UNL     1      -4.661 -11.584  19.287  0.00  0.00    -0.370 OA
ATOM     13  C   UNL     1      -4.731 -12.031  17.923  0.00  0.00    +0.170 C 
ATOM     14  C   UNL     1      -6.155 -11.813  17.449  0.00  0.00    +0.171 C 
ATOM     15  C   UNL     1      -3.904 -11.133  17.036  0.00  0.00    +0.133 C 
ATOM     16  C   UNL     1      -6.962 -11.740  18.723  0.00  0.00    +0.130 C 
ATOM     17  C   UNL     1      -4.863 -10.001  16.719  0.00  0.00    +0.183 C 
ATOM     18  C   UNL     1      -5.966 -11.170  19.716  0.00  0.00    +0.185 C 
ENDROOT
BRANCH  16   9
ATOM      9  N   UNL     1      -7.369 -13.067  19.129  0.00  0.00    -0.306 N 
ATOM     10  N   UNL     1      -9.504 -12.336  19.773  0.00  0.00    -0.211 NA
ATOM     11  N   UNL     1      -8.873 -14.653  19.985  0.00  0.00    -0.223 NA
ATOM     19  C   UNL     1      -8.619 -13.361  19.644  0.00  0.00    +0.216 A 
ATOM     23  C   UNL     1     -10.713 -12.659  20.278  0.00  0.00    +0.111 A 
ATOM     24  C   UNL     1     -10.101 -14.903  20.483  0.00  0.00    +0.116 A 
ATOM     28  C   UNL     1     -11.071 -13.937  20.654  0.00  0.00    +0.051 A 
ATOM     36  H   UNL     1      -6.737 -13.847  18.988  0.00  0.00    +0.149 HD
BRANCH  23  29
ATOM      6  O   UNL     1     -12.865 -11.875  20.856  0.00  0.00    -0.461 OA
ATOM     29  C   UNL     1     -11.626 -11.554  20.404  0.00  0.00    +0.153 A 
ATOM     30  C   UNL     1     -11.529 -10.206  20.163  0.00  0.00    +0.051 A 
ATOM     32  C   UNL     1     -12.793  -9.658  20.488  0.00  0.00    +0.042 A 
ATOM     33  C   UNL     1     -13.570 -10.714  20.905  0.00  0.00    +0.196 A 
ENDBRANCH  23  29
ENDBRANCH  16   9
BRANCH  15   8
ATOM      8  N   UNL     1      -3.553 -11.851  15.787  0.00  0.00    -0.182 NA
ATOM     35  H   UNL     1      -3.881 -12.823  15.712  0.00  0.00    +0.148 HD
BRANCH   8   1
ATOM      1  S   UNL     1      -2.197 -11.368  14.887  0.00  0.00    +0.059 S 
ATOM      4  O   UNL     1      -1.351 -12.518  14.634  0.00  0.00    -0.153 OA
ATOM      5  O   UNL     1      -1.640 -10.171  15.487  0.00  0.00    -0.153 OA
BRANCH   1  20
ATOM     20  C   UNL     1      -2.931 -10.882  13.353  0.00  0.00    +0.105 A 
ATOM     21  C   UNL     1      -4.309 -10.903  13.228  0.00  0.00    +0.030 A 
ATOM     22  C   UNL     1      -2.114 -10.489  12.308  0.00  0.00    +0.030 A 
ATOM     25  C   UNL     1      -4.888 -10.519  12.018  0.00  0.00    +0.025 A 
ATOM     26  C   UNL     1      -2.693 -10.105  11.099  0.00  0.00    +0.025 A 
ATOM     27  C   UNL     1      -4.080 -10.120  10.954  0.00  0.00    +0.033 A 
BRANCH  27  12
ATOM      7  O   UNL     1      -4.378 -11.624   8.363  0.00  0.00    -0.276 OA
ATOM     12  N   UNL     1      -4.659  -9.735   9.745  0.00  0.00    -0.286 N 
ATOM     31  C   UNL     1      -4.770 -10.479   8.562  0.00  0.00    +0.214 C 
ATOM     34  C   UNL     1      -5.467  -9.701   7.475  0.00  0.00    +0.109 C 
ATOM     37  H   UNL     1      -5.047  -8.794   9.729  0.00  0.00    +0.155 HD
ENDBRANCH  27  12
ENDBRANCH   1  20
ENDBRANCH   8   1
ENDBRANCH  15   8
TORSDOF 6
ENDMDL
MODEL 5
REMARK VINA RESULT:      -7.5      7.563     10.556
REMARK  Name = 11912973
REMARK  7 active torsions:
REMARK  status: ('A' for Active; 'I' for Inactive)
REMARK    1  A    between atoms: S_1  and  N_8
REMARK    2  A    between atoms: S_1  and  C_20
REMARK    3  A    between atoms: N_8  and  C_15
REMARK    4  A    between atoms: N_9  and  C_16
REMARK    5  A    between atoms: N_12  and  C_27
REMARK    6  A    between atoms: C_23  and  C_29
REMARK    7  A    between atoms: C_31  and  C_34
REMARK                            x       y       z     vdW  Elec       q    Type
REMARK                         _______ _______ _______ _____ _____    ______ ____
ROOT
ATOM      2  O   UNL     1      13.334   8.885  15.214  0.00  0.00    -0.370 OA
ATOM      3  O   UNL     1      15.201  11.008  16.546  0.00  0.00    -0.370 OA
ATOM     13  C   UNL     1      13.895  10.503  16.867  0.00  0.00    +0.170 C 
ATOM     14  C   UNL     1      13.166  10.271  15.557  0.00  0.00    +0.171 C 
ATOM     15  C   UNL     1      14.002   9.127  17.479  0.00  0.00    +0.133 C 
ATOM     16  C   UNL     1      13.896  11.147  14.568  0.00  0.00    +0.130 C 
ATOM     17  C   UNL     1      14.058   8.224  16.263  0.00  0.00    +0.183 C 
ATOM     18  C   UNL     1      15.307  11.175  15.125  0.00  0.00    +0.185 C 
ENDROOT
BRANCH  16   9
ATOM      9  N   UNL     1      13.330  12.479  14.573  0.00  0.00    -0.306 N 
ATOM     10  N   UNL     1      12.475  12.244  12.400  0.00  0.00    -0.211 NA
ATOM     11  N   UNL     1      12.149  14.282  13.645  0.00  0.00    -0.223 NA
ATOM     19  C   UNL     1      12.630  13.017  13.508  0.00  0.00    +0.216 A 
ATOM     23  C   UNL     1      11.787  12.801  11.381  0.00  0.00    +0.111 A 
ATOM     24  C   UNL     1      11.472  14.775  12.588  0.00  0.00    +0.116 A 
ATOM     28  C   UNL     1      11.258  14.074  11.419  0.00  0.00    +0.051 A 
ATOM     36  H   UNL     1      13.394  13.044  15.412  0.00  0.00    +0.149 HD
BRANCH  23  29
ATOM      6  O   UNL     1      10.469  11.278  10.148  0.00  0.00    -0.461 OA
ATOM     29  C   UNL     1      11.640  11.959  10.224  0.00  0.00    +0.153 A 
ATOM     30  C   UNL     1      12.439  11.678   9.143  0.00  0.00    +0.051 A 
ATOM     32  C   UNL     1      11.712  10.760   8.347  0.00  0.00    +0.042 A 
ATOM     33  C   UNL     1      10.520  10.550   9.001  0.00  0.00    +0.196 A 
ENDBRANCH  23  29
ENDBRANCH  16   9
BRANCH  15   8
ATOM      8  N   UNL     1      12.778   8.833  18.262  0.00  0.00    -0.182 NA
ATOM     35  H   UNL     1      12.044   9.552  18.250  0.00  0.00    +0.148 HD
BRANCH   8   1
ATOM      1  S   UNL     1      12.852   7.755  19.572  0.00  0.00    +0.059 S 
ATOM      4  O   UNL     1      14.227   7.345  19.783  0.00  0.00    -0.153 OA
ATOM      5  O   UNL     1      11.810   6.758  19.415  0.00  0.00    -0.153 OA
BRANCH   1  20
ATOM     20  C   UNL     1      12.377   8.790  20.924  0.00  0.00    +0.105 A 
ATOM     21  C   UNL     1      11.096   8.684  21.437  0.00  0.00    +0.030 A 
ATOM     22  C   UNL     1      13.294   9.685  21.445  0.00  0.00    +0.030 A 
ATOM     25  C   UNL     1      10.721   9.501  22.504  0.00  0.00    +0.025 A 
ATOM     26  C   UNL     1      12.920  10.500  22.512  0.00  0.00    +0.025 A 
ATOM     27  C   UNL     1      11.633  10.408  23.042  0.00  0.00    +0.033 A 
BRANCH  27  12
ATOM      7  O   UNL     1      10.702  13.272  23.082  0.00  0.00    -0.276 OA
ATOM     12  N   UNL     1      11.259  11.224  24.110  0.00  0.00    -0.286 N 
ATOM     31  C   UNL     1      10.832  12.559  24.072  0.00  0.00    +0.214 C 
ATOM     34  C   UNL     1      10.518  13.085  25.450  0.00  0.00    +0.109 C 
ATOM     37  H   UNL     1      11.304  10.786  25.027  0.00  0.00    +0.155 HD
ENDBRANCH  27  12
ENDBRANCH   1  20
ENDBRANCH   8   1
ENDBRANCH  15   8
TORSDOF 6
ENDMDL
MODEL 6
REMARK VINA RESULT:      -7.4     31.295     34.222
REMARK  Name = 11912973
REMARK  7 active torsions:
REMARK  status: ('A' for Active; 'I' for Inactive)
REMARK    1  A    between atoms: S_1  and  N_8
REMARK    2  A    between atoms: S_1  and  C_20
REMARK    3  A    between atoms: N_8  and  C_15
REMARK    4  A    between atoms: N_9  and  C_16
REMARK    5  A    between atoms: N_12  and  C_27
REMARK    6  A    between atoms: C_23  and  C_29
REMARK    7  A    between atoms: C_31  and  C_34
REMARK                            x       y       z     vdW  Elec       q    Type
REMARK                         _______ _______ _______ _____ _____    ______ ____
ROOT
ATOM      2  O   UNL     1     -17.020   4.636  25.839  0.00  0.00    -0.370 OA
ATOM      3  O   UNL     1     -16.679   2.118  24.018  0.00  0.00    -0.370 OA
ATOM     13  C   UNL     1     -16.014   2.573  25.208  0.00  0.00    +0.170 C 
ATOM     14  C   UNL     1     -15.906   4.083  25.116  0.00  0.00    +0.171 C 
ATOM     15  C   UNL     1     -16.887   2.337  26.417  0.00  0.00    +0.133 C 
ATOM     16  C   UNL     1     -16.043   4.375  23.641  0.00  0.00    +0.130 C 
ATOM     17  C   UNL     1     -17.771   3.569  26.435  0.00  0.00    +0.183 C 
ATOM     18  C   UNL     1     -16.927   3.240  23.157  0.00  0.00    +0.185 C 
ENDROOT
BRANCH  16   9
ATOM      9  N   UNL     1     -14.748   4.307  23.000  0.00  0.00    -0.306 N 
ATOM     10  N   UNL     1     -14.782   6.586  22.441  0.00  0.00    -0.211 NA
ATOM     11  N   UNL     1     -12.907   5.194  21.845  0.00  0.00    -0.223 NA
ATOM     19  C   UNL     1     -14.127   5.395  22.411  0.00  0.00    +0.216 A 
ATOM     23  C   UNL     1     -14.148   7.625  21.858  0.00  0.00    +0.111 A 
ATOM     24  C   UNL     1     -12.332   6.275  21.280  0.00  0.00    +0.116 A 
ATOM     28  C   UNL     1     -12.910   7.528  21.256  0.00  0.00    +0.051 A 
ATOM     36  H   UNL     1     -14.227   3.438  23.019  0.00  0.00    +0.149 HD
BRANCH  23  29
ATOM      6  O   UNL     1     -15.287   9.252  23.137  0.00  0.00    -0.461 OA
ATOM     29  C   UNL     1     -14.866   8.871  21.904  0.00  0.00    +0.153 A 
ATOM     30  C   UNL     1     -15.235   9.794  20.956  0.00  0.00    +0.051 A 
ATOM     32  C   UNL     1     -15.931  10.811  21.651  0.00  0.00    +0.042 A 
ATOM     33  C   UNL     1     -15.935  10.435  22.974  0.00  0.00    +0.196 A 
ENDBRANCH  23  29
ENDBRANCH  16   9
BRANCH  15   8
ATOM      8  N   UNL     1     -16.049   2.309  27.639  0.00  0.00    -0.182 NA
ATOM     35  H   UNL     1     -15.182   2.861  27.612  0.00  0.00    +0.148 HD
BRANCH   8   1
ATOM      1  S   UNL     1     -16.150   0.989  28.703  0.00  0.00    +0.059 S 
ATOM      4  O   UNL     1     -15.072   0.061  28.423  0.00  0.00    -0.153 OA
ATOM      5  O   UNL     1     -17.523   0.523  28.739  0.00  0.00    -0.153 OA
BRANCH   1  20
ATOM     20  C   UNL     1     -15.823   1.752  30.264  0.00  0.00    +0.105 A 
ATOM     21  C   UNL     1     -16.397   2.979  30.549  0.00  0.00    +0.030 A 
ATOM     22  C   UNL     1     -15.001   1.108  31.171  0.00  0.00    +0.030 A 
ATOM     25  C   UNL     1     -16.139   3.581  31.781  0.00  0.00    +0.025 A 
ATOM     26  C   UNL     1     -14.744   1.709  32.403  0.00  0.00    +0.025 A 
ATOM     27  C   UNL     1     -15.313   2.945  32.708  0.00  0.00    +0.033 A 
BRANCH  27  12
ATOM      7  O   UNL     1     -13.730   5.416  33.386  0.00  0.00    -0.276 OA
ATOM     12  N   UNL     1     -15.056   3.547  33.940  0.00  0.00    -0.286 N 
ATOM     31  C   UNL     1     -14.307   4.703  34.200  0.00  0.00    +0.214 C 
ATOM     34  C   UNL     1     -14.269   5.025  35.673  0.00  0.00    +0.109 C 
ATOM     37  H   UNL     1     -15.469   3.081  34.745  0.00  0.00    +0.155 HD
ENDBRANCH  27  12
ENDBRANCH   1  20
ENDBRANCH   8   1
ENDBRANCH  15   8
TORSDOF 6
ENDMDL
MODEL 7
REMARK VINA RESULT:      -7.4     27.371     31.844
REMARK  Name = 11912973
REMARK  7 active torsions:
REMARK  status: ('A' for Active; 'I' for Inactive)
REMARK    1  A    between atoms: S_1  and  N_8
REMARK    2  A    between atoms: S_1  and  C_20
REMARK    3  A    between atoms: N_8  and  C_15
REMARK    4  A    between atoms: N_9  and  C_16
REMARK    5  A    between atoms: N_12  and  C_27
REMARK    6  A    between atoms: C_23  and  C_29
REMARK    7  A    between atoms: C_31  and  C_34
REMARK                            x       y       z     vdW  Elec       q    Type
REMARK                         _______ _______ _______ _____ _____    ______ ____
ROOT
ATOM      2  O   UNL     1      -7.877 -11.352  15.891  0.00  0.00    -0.370 OA
ATOM      3  O   UNL     1      -6.668 -13.452  17.865  0.00  0.00    -0.370 OA
ATOM     13  C   UNL     1      -7.088 -12.086  18.013  0.00  0.00    +0.170 C 
ATOM     14  C   UNL     1      -6.714 -11.357  16.737  0.00  0.00    +0.171 C 
ATOM     15  C   UNL     1      -8.595 -12.006  18.057  0.00  0.00    +0.133 C 
ATOM     16  C   UNL     1      -5.628 -12.211  16.129  0.00  0.00    +0.130 C 
ATOM     17  C   UNL     1      -8.971 -11.966  16.588  0.00  0.00    +0.183 C 
ATOM     18  C   UNL     1      -5.990 -13.604  16.609  0.00  0.00    +0.185 C 
ENDROOT
BRANCH  16   9
ATOM      9  N   UNL     1      -4.338 -11.821  16.654  0.00  0.00    -0.306 N 
ATOM     10  N   UNL     1      -3.608 -11.020  14.572  0.00  0.00    -0.211 NA
ATOM     11  N   UNL     1      -2.178 -10.914  16.510  0.00  0.00    -0.223 NA
ATOM     19  C   UNL     1      -3.345 -11.234  15.890  0.00  0.00    +0.216 A 
ATOM     23  C   UNL     1      -2.618 -10.446  13.857  0.00  0.00    +0.111 A 
ATOM     24  C   UNL     1      -1.233 -10.344  15.735  0.00  0.00    +0.116 A 
ATOM     28  C   UNL     1      -1.398 -10.083  14.390  0.00  0.00    +0.051 A 
ATOM     36  H   UNL     1      -4.151 -11.926  17.644  0.00  0.00    +0.149 HD
BRANCH  23  29
ATOM      6  O   UNL     1      -4.230 -10.392  12.132  0.00  0.00    -0.461 OA
ATOM     29  C   UNL     1      -2.925 -10.234  12.468  0.00  0.00    +0.153 A 
ATOM     30  C   UNL     1      -2.176  -9.896  11.367  0.00  0.00    +0.051 A 
ATOM     32  C   UNL     1      -3.080  -9.844  10.280  0.00  0.00    +0.042 A 
ATOM     33  C   UNL     1      -4.317 -10.153  10.797  0.00  0.00    +0.196 A 
ENDBRANCH  23  29
ENDBRANCH  16   9
BRANCH  15   8
ATOM      8  N   UNL     1      -9.008 -10.740  18.710  0.00  0.00    -0.182 NA
ATOM     35  H   UNL     1      -8.314 -10.295  19.324  0.00  0.00    +0.148 HD
BRANCH   8   1
ATOM      1  S   UNL     1     -10.656 -10.419  18.963  0.00  0.00    +0.059 S 
ATOM      4  O   UNL     1     -10.847  -9.901  20.304  0.00  0.00    -0.153 OA
ATOM      5  O   UNL     1     -11.430 -11.556  18.503  0.00  0.00    -0.153 OA
BRANCH   1  20
ATOM     20  C   UNL     1     -10.950  -9.100  17.821  0.00  0.00    +0.105 A 
ATOM     21  C   UNL     1      -9.889  -8.308  17.418  0.00  0.00    +0.030 A 
ATOM     22  C   UNL     1     -12.234  -8.886  17.353  0.00  0.00    +0.030 A 
ATOM     25  C   UNL     1     -10.121  -7.268  16.517  0.00  0.00    +0.025 A 
ATOM     26  C   UNL     1     -12.466  -7.848  16.452  0.00  0.00    +0.025 A 
ATOM     27  C   UNL     1     -11.410  -7.038  16.034  0.00  0.00    +0.033 A 
BRANCH  27  12
ATOM      7  O   UNL     1     -12.838  -7.032  13.383  0.00  0.00    -0.276 OA
ATOM     12  N   UNL     1     -11.641  -5.999  15.133  0.00  0.00    -0.286 N 
ATOM     31  C   UNL     1     -12.315  -6.053  13.904  0.00  0.00    +0.214 C 
ATOM     34  C   UNL     1     -12.351  -4.706  13.227  0.00  0.00    +0.109 C 
ATOM     37  H   UNL     1     -11.271  -5.093  15.410  0.00  0.00    +0.155 HD
ENDBRANCH  27  12
ENDBRANCH   1  20
ENDBRANCH   8   1
ENDBRANCH  15   8
TORSDOF 6
ENDMDL
MODEL 8
REMARK VINA RESULT:      -7.3     30.300     33.650
REMARK  Name = 11912973
REMARK  7 active torsions:
REMARK  status: ('A' for Active; 'I' for Inactive)
REMARK    1  A    between atoms: S_1  and  N_8
REMARK    2  A    between atoms: S_1  and  C_20
REMARK    3  A    between atoms: N_8  and  C_15
REMARK    4  A    between atoms: N_9  and  C_16
REMARK    5  A    between atoms: N_12  and  C_27
REMARK    6  A    between atoms: C_23  and  C_29
REMARK    7  A    between atoms: C_31  and  C_34
REMARK                            x       y       z     vdW  Elec       q    Type
REMARK                         _______ _______ _______ _____ _____    ______ ____
ROOT
ATOM      2  O   UNL     1     -17.250   4.233  22.717  0.00  0.00    -0.370 OA
ATOM      3  O   UNL     1     -14.331   4.428  23.818  0.00  0.00    -0.370 OA
ATOM     13  C   UNL     1     -15.622   4.380  24.447  0.00  0.00    +0.170 C 
ATOM     14  C   UNL     1     -16.579   5.171  23.576  0.00  0.00    +0.171 C 
ATOM     15  C   UNL     1     -16.168   2.973  24.412  0.00  0.00    +0.133 C 
ATOM     16  C   UNL     1     -15.681   6.074  22.765  0.00  0.00    +0.130 C 
ATOM     17  C   UNL     1     -16.825   2.903  23.048  0.00  0.00    +0.183 C 
ATOM     18  C   UNL     1     -14.406   5.260  22.650  0.00  0.00    +0.185 C 
ENDROOT
BRANCH  16   9
ATOM      9  N   UNL     1     -15.427   7.301  23.490  0.00  0.00    -0.306 N 
ATOM     10  N   UNL     1     -13.869   8.046  21.901  0.00  0.00    -0.211 NA
ATOM     11  N   UNL     1     -14.394   9.379  23.839  0.00  0.00    -0.223 NA
ATOM     19  C   UNL     1     -14.537   8.271  23.064  0.00  0.00    +0.216 A 
ATOM     23  C   UNL     1     -13.009   9.013  21.516  0.00  0.00    +0.111 A 
ATOM     24  C   UNL     1     -13.519  10.304  23.395  0.00  0.00    +0.116 A 
ATOM     28  C   UNL     1     -12.792  10.174  22.229  0.00  0.00    +0.051 A 
ATOM     36  H   UNL     1     -15.958   7.503  24.328  0.00  0.00    +0.149 HD
BRANCH  23  29
ATOM      6  O   UNL     1     -12.263   9.786  19.412  0.00  0.00    -0.461 OA
ATOM     29  C   UNL     1     -12.317   8.747  20.284  0.00  0.00    +0.153 A 
ATOM     30  C   UNL     1     -11.677   7.646  19.769  0.00  0.00    +0.051 A 
ATOM     32  C   UNL     1     -11.197   8.031  18.495  0.00  0.00    +0.042 A 
ATOM     33  C   UNL     1     -11.579   9.343  18.325  0.00  0.00    +0.196 A 
ENDBRANCH  23  29
ENDBRANCH  16   9
BRANCH  15   8
ATOM      8  N   UNL     1     -17.195   2.810  25.468  0.00  0.00    -0.182 NA
ATOM     35  H   UNL     1     -17.572   3.675  25.876  0.00  0.00    +0.148 HD
BRANCH   8   1
ATOM      1  S   UNL     1     -17.251   1.379  26.380  0.00  0.00    +0.059 S 
ATOM      4  O   UNL     1     -16.421   0.371  25.747  0.00  0.00    -0.153 OA
ATOM      5  O   UNL     1     -18.633   1.086  26.706  0.00  0.00    -0.153 OA
BRANCH   1  20
ATOM     20  C   UNL     1     -16.460   1.872  27.883  0.00  0.00    +0.105 A 
ATOM     21  C   UNL     1     -16.303   0.945  28.898  0.00  0.00    +0.030 A 
ATOM     22  C   UNL     1     -16.012   3.174  28.015  0.00  0.00    +0.030 A 
ATOM     25  C   UNL     1     -15.679   1.334  30.084  0.00  0.00    +0.025 A 
ATOM     26  C   UNL     1     -15.388   3.563  29.199  0.00  0.00    +0.025 A 
ATOM     27  C   UNL     1     -15.222   2.643  30.234  0.00  0.00    +0.033 A 
BRANCH  27  12
ATOM      7  O   UNL     1     -16.366   3.859  32.740  0.00  0.00    -0.276 OA
ATOM     12  N   UNL     1     -14.596   3.031  31.419  0.00  0.00    -0.286 N 
ATOM     31  C   UNL     1     -15.181   3.597  32.561  0.00  0.00    +0.214 C 
ATOM     34  C   UNL     1     -14.158   3.874  33.633  0.00  0.00    +0.109 C 
ATOM     37  H   UNL     1     -13.591   2.881  31.449  0.00  0.00    +0.155 HD
ENDBRANCH  27  12
ENDBRANCH   1  20
ENDBRANCH   8   1
ENDBRANCH  15   8
TORSDOF 6
ENDMDL
MODEL 9
REMARK VINA RESULT:      -7.2     27.858     32.250
REMARK  Name = 11912973
REMARK  7 active torsions:
REMARK  status: ('A' for Active; 'I' for Inactive)
REMARK    1  A    between atoms: S_1  and  N_8
REMARK    2  A    between atoms: S_1  and  C_20
REMARK    3  A    between atoms: N_8  and  C_15
REMARK    4  A    between atoms: N_9  and  C_16
REMARK    5  A    between atoms: N_12  and  C_27
REMARK    6  A    between atoms: C_23  and  C_29
REMARK    7  A    between atoms: C_31  and  C_34
REMARK                            x       y       z     vdW  Elec       q    Type
REMARK                         _______ _______ _______ _____ _____    ______ ____
ROOT
ATOM      2  O   UNL     1      -7.695 -12.370  17.167  0.00  0.00    -0.370 OA
ATOM      3  O   UNL     1      -6.567 -10.691  19.550  0.00  0.00    -0.370 OA
ATOM     13  C   UNL     1      -7.215 -10.342  18.316  0.00  0.00    +0.170 C 
ATOM     14  C   UNL     1      -6.725 -11.311  17.258  0.00  0.00    +0.171 C 
ATOM     15  C   UNL     1      -8.697 -10.613  18.410  0.00  0.00    +0.133 C 
ATOM     16  C   UNL     1      -5.424 -11.839  17.814  0.00  0.00    +0.130 C 
ATOM     17  C   UNL     1      -8.791 -12.083  18.048  0.00  0.00    +0.183 C 
ATOM     18  C   UNL     1      -5.649 -11.768  19.313  0.00  0.00    +0.185 C 
ENDROOT
BRANCH  16   9
ATOM      9  N   UNL     1      -4.333 -10.969  17.431  0.00  0.00    -0.306 N 
ATOM     10  N   UNL     1      -3.721 -12.346  15.631  0.00  0.00    -0.211 NA
ATOM     11  N   UNL     1      -2.510 -10.317  16.105  0.00  0.00    -0.223 NA
ATOM     19  C   UNL     1      -3.497 -11.218  16.357  0.00  0.00    +0.216 A 
ATOM     23  C   UNL     1      -2.887 -12.557  14.592  0.00  0.00    +0.111 A 
ATOM     24  C   UNL     1      -1.713 -10.591  15.052  0.00  0.00    +0.116 A 
ATOM     28  C   UNL     1      -1.856 -11.706  14.252  0.00  0.00    +0.051 A 
ATOM     36  H   UNL     1      -4.190 -10.100  17.931  0.00  0.00    +0.149 HD
BRANCH  23  29
ATOM      6  O   UNL     1      -2.213 -14.079  12.916  0.00  0.00    -0.461 OA
ATOM     29  C   UNL     1      -3.149 -13.758  13.845  0.00  0.00    +0.153 A 
ATOM     30  C   UNL     1      -4.162 -14.685  13.856  0.00  0.00    +0.051 A 
ATOM     32  C   UNL     1      -3.829 -15.641  12.868  0.00  0.00    +0.042 A 
ATOM     33  C   UNL     1      -2.634 -15.228  12.325  0.00  0.00    +0.196 A 
ENDBRANCH  23  29
ENDBRANCH  16   9
BRANCH  15   8
ATOM      8  N   UNL     1      -9.418  -9.805  17.397  0.00  0.00    -0.182 NA
ATOM     35  H   UNL     1      -8.868  -9.085  16.912  0.00  0.00    +0.148 HD
BRANCH   8   1
ATOM      1  S   UNL     1     -11.102  -9.620  17.507  0.00  0.00    +0.059 S 
ATOM      4  O   UNL     1     -11.462  -9.275  18.868  0.00  0.00    -0.153 OA
ATOM      5  O   UNL     1     -11.739 -10.742  16.846  0.00  0.00    -0.153 OA
BRANCH   1  20
ATOM     20  C   UNL     1     -11.380  -8.199  16.492  0.00  0.00    +0.105 A 
ATOM     21  C   UNL     1     -12.624  -8.015  15.915  0.00  0.00    +0.030 A 
ATOM     22  C   UNL     1     -10.349  -7.298  16.294  0.00  0.00    +0.030 A 
ATOM     25  C   UNL     1     -12.843  -6.893  15.114  0.00  0.00    +0.025 A 
ATOM     26  C   UNL     1     -10.568  -6.177  15.495  0.00  0.00    +0.025 A 
ATOM     27  C   UNL     1     -11.815  -5.974  14.905  0.00  0.00    +0.033 A 
BRANCH  27  12
ATOM      7  O   UNL     1     -12.309  -5.751  11.943  0.00  0.00    -0.276 OA
ATOM     12  N   UNL     1     -12.035  -4.852  14.105  0.00  0.00    -0.286 N 
ATOM     31  C   UNL     1     -12.259  -4.805  12.722  0.00  0.00    +0.214 C 
ATOM     34  C   UNL     1     -12.454  -3.392  12.235  0.00  0.00    +0.109 C 
ATOM     37  H   UNL     1     -12.030  -3.961  14.596  0.00  0.00    +0.155 HD
ENDBRANCH  27  12
ENDBRANCH   1  20
ENDBRANCH   8   1
ENDBRANCH  15   8
TORSDOF 6
ENDMDL
MODEL 10
REMARK VINA RESULT:      -7.1      4.137      9.849
REMARK  Name = 11912973
REMARK  7 active torsions:
REMARK  status: ('A' for Active; 'I' for Inactive)
REMARK    1  A    between atoms: S_1  and  N_8
REMARK    2  A    between atoms: S_1  and  C_20
REMARK    3  A    between atoms: N_8  and  C_15
REMARK    4  A    between atoms: N_9  and  C_16
REMARK    5  A    between atoms: N_12  and  C_27
REMARK    6  A    between atoms: C_23  and  C_29
REMARK    7  A    between atoms: C_31  and  C_34
REMARK                            x       y       z     vdW  Elec       q    Type
REMARK                         _______ _______ _______ _____ _____    ______ ____
ROOT
ATOM      2  O   UNL     1      15.916  11.821  23.611  0.00  0.00    -0.370 OA
ATOM      3  O   UNL     1      15.607  12.709  20.630  0.00  0.00    -0.370 OA
ATOM     13  C   UNL     1      14.667  12.333  21.651  0.00  0.00    +0.170 C 
ATOM     14  C   UNL     1      15.301  11.218  22.459  0.00  0.00    +0.171 C 
ATOM     15  C   UNL     1      14.496  13.459  22.642  0.00  0.00    +0.133 C 
ATOM     16  C   UNL     1      16.355  10.648  21.541  0.00  0.00    +0.130 C 
ATOM     17  C   UNL     1      15.643  13.230  23.608  0.00  0.00    +0.183 C 
ATOM     18  C   UNL     1      16.754  11.850  20.705  0.00  0.00    +0.185 C 
ENDROOT
BRANCH  16   9
ATOM      9  N   UNL     1      15.777   9.623  20.699  0.00  0.00    -0.306 N 
ATOM     10  N   UNL     1      17.645   8.222  20.932  0.00  0.00    -0.211 NA
ATOM     11  N   UNL     1      15.754   7.551  19.598  0.00  0.00    -0.223 NA
ATOM     19  C   UNL     1      16.411   8.430  20.401  0.00  0.00    +0.216 A 
ATOM     23  C   UNL     1      18.234   7.048  20.621  0.00  0.00    +0.111 A 
ATOM     24  C   UNL     1      16.401   6.399  19.327  0.00  0.00    +0.116 A 
ATOM     28  C   UNL     1      17.654   6.089  19.816  0.00  0.00    +0.051 A 
ATOM     36  H   UNL     1      14.836   9.743  20.342  0.00  0.00    +0.149 HD
BRANCH  23  29
ATOM      6  O   UNL     1      19.551   6.571  22.522  0.00  0.00    -0.461 OA
ATOM     29  C   UNL     1      19.539   6.858  21.196  0.00  0.00    +0.153 A 
ATOM     30  C   UNL     1      20.817   6.902  20.695  0.00  0.00    +0.051 A 
ATOM     32  C   UNL     1      21.674   6.624  21.785  0.00  0.00    +0.042 A 
ATOM     33  C   UNL     1      20.856   6.430  22.874  0.00  0.00    +0.196 A 
ENDBRANCH  23  29
ENDBRANCH  16   9
BRANCH  15   8
ATOM      8  N   UNL     1      13.207  13.302  23.357  0.00  0.00    -0.182 NA
ATOM     35  H   UNL     1      13.243  12.828  24.268  0.00  0.00    +0.148 HD
BRANCH   8   1
ATOM      1  S   UNL     1      11.752  13.290  22.481  0.00  0.00    +0.059 S 
ATOM      4  O   UNL     1      11.983  13.830  21.155  0.00  0.00    -0.153 OA
ATOM      5  O   UNL     1      10.699  13.834  23.316  0.00  0.00    -0.153 OA
BRANCH   1  20
ATOM     20  C   UNL     1      11.438  11.558  22.318  0.00  0.00    +0.105 A 
ATOM     21  C   UNL     1      10.954  10.855  23.408  0.00  0.00    +0.030 A 
ATOM     22  C   UNL     1      11.681  10.938  21.106  0.00  0.00    +0.030 A 
ATOM     25  C   UNL     1      10.706   9.488  23.279  0.00  0.00    +0.025 A 
ATOM     26  C   UNL     1      11.433   9.572  20.977  0.00  0.00    +0.025 A 
ATOM     27  C   UNL     1      10.945   8.847  22.064  0.00  0.00    +0.033 A 
BRANCH  27  12
ATOM      7  O   UNL     1      12.750   6.605  21.178  0.00  0.00    -0.276 OA
ATOM     12  N   UNL     1      10.696   7.480  21.936  0.00  0.00    -0.286 N 
ATOM     31  C   UNL     1      11.578   6.475  21.514  0.00  0.00    +0.214 C 
ATOM     34  C   UNL     1      10.919   5.119  21.513  0.00  0.00    +0.109 C 
ATOM     37  H   UNL     1       9.753   7.186  22.180  0.00  0.00    +0.155 HD
ENDBRANCH  27  12
ENDBRANCH   1  20
ENDBRANCH   8   1
ENDBRANCH  15   8
TORSDOF 6
ENDMDL
