MODEL 1
REMARK VINA RESULT:      -6.9      0.000      0.000
REMARK  Name = 11912918
REMARK  7 active torsions:
REMARK  status: ('A' for Active; 'I' for Inactive)
REMARK    1  A    between atoms: N_4  and  C_10
REMARK    2  A    between atoms: N_5  and  C_11
REMARK    3  A    between atoms: C_15  and  C_18
REMARK    4  A    between atoms: C_16  and  C_17
REMARK    5  A    between atoms: C_16  and  C_20
REMARK    6  A    between atoms: C_16  and  C_21
REMARK    7  A    between atoms: C_16  and  C_22
REMARK                            x       y       z     vdW  Elec       q    Type
REMARK                         _______ _______ _______ _____ _____    ______ ____
ROOT
ATOM      1  O   UNL     1     -11.205  -6.068  16.542  0.00  0.00    -0.370 OA
ATOM      2  O   UNL     1     -12.619  -7.968  14.510  0.00  0.00    -0.370 OA
ATOM      8  C   UNL     1     -11.245  -7.599  14.721  0.00  0.00    +0.171 C 
ATOM      9  C   UNL     1     -11.229  -6.132  15.106  0.00  0.00    +0.171 C 
ATOM     10  C   UNL     1     -10.693  -8.306  15.935  0.00  0.00    +0.130 C 
ATOM     11  C   UNL     1     -12.540  -5.598  14.576  0.00  0.00    +0.130 C 
ATOM     12  C   UNL     1     -11.121  -7.398  17.073  0.00  0.00    +0.185 C 
ATOM     13  C   UNL     1     -13.449  -6.809  14.676  0.00  0.00    +0.185 C 
ENDROOT
BRANCH  10   4
ATOM      4  N   UNL     1      -9.250  -8.367  15.859  0.00  0.00    -0.306 N 
ATOM      6  N   UNL     1      -9.131 -10.127  17.405  0.00  0.00    -0.219 NA
ATOM      7  N   UNL     1      -7.133  -9.214  16.414  0.00  0.00    -0.223 NA
ATOM     14  C   UNL     1      -8.482  -9.262  16.580  0.00  0.00    +0.216 A 
ATOM     17  C   UNL     1      -8.352 -10.987  18.094  0.00  0.00    +0.052 A 
ATOM     19  C   UNL     1      -6.975 -11.020  17.996  0.00  0.00    +0.043 A 
ATOM     23  C   UNL     1      -6.415 -10.102  17.134  0.00  0.00    +0.116 A 
ATOM     29  H   UNL     1      -8.760  -7.763  15.208  0.00  0.00    +0.149 HD
BRANCH  17  16
ATOM     16  C   UNL     1      -9.048 -11.943  19.003  0.00  0.00    +0.005 C 
ATOM     20  C   UNL     1      -9.950 -12.931  18.201  0.00  0.00    +0.017 C 
ATOM     21  C   UNL     1      -9.961 -11.192  20.021  0.00  0.00    +0.017 C 
ATOM     22  C   UNL     1      -8.111 -12.846  19.872  0.00  0.00    +0.017 C 
ENDBRANCH  17  16
ENDBRANCH  10   4
BRANCH  11   5
ATOM      3  O   UNL     1     -13.946  -3.422  13.339  0.00  0.00    -0.270 OA
ATOM      5  N   UNL     1     -12.408  -5.153  13.210  0.00  0.00    -0.304 N 
ATOM     15  C   UNL     1     -13.135  -4.086  12.700  0.00  0.00    +0.244 C 
ATOM     30  H   UNL     1     -11.843  -5.727  12.594  0.00  0.00    +0.149 HD
BRANCH  15  18
ATOM     18  C   UNL     1     -12.905  -3.770  11.267  0.00  0.00    +0.037 A 
ATOM     24  C   UNL     1     -11.618  -3.806  10.772  0.00  0.00    +0.013 A 
ATOM     25  C   UNL     1     -13.989  -3.451  10.475  0.00  0.00    +0.013 A 
ATOM     26  C   UNL     1     -11.405  -3.512   9.426  0.00  0.00    +0.001 A 
ATOM     27  C   UNL     1     -13.776  -3.156   9.127  0.00  0.00    +0.001 A 
ATOM     28  C   UNL     1     -12.483  -3.186   8.604  0.00  0.00    +0.000 A 
ENDBRANCH  15  18
ENDBRANCH  11   5
TORSDOF 4
ENDMDL
MODEL 2
REMARK VINA RESULT:      -6.8      8.498      9.786
REMARK  Name = 11912918
REMARK  7 active torsions:
REMARK  status: ('A' for Active; 'I' for Inactive)
REMARK    1  A    between atoms: N_4  and  C_10
REMARK    2  A    between atoms: N_5  and  C_11
REMARK    3  A    between atoms: C_15  and  C_18
REMARK    4  A    between atoms: C_16  and  C_17
REMARK    5  A    between atoms: C_16  and  C_20
REMARK    6  A    between atoms: C_16  and  C_21
REMARK    7  A    between atoms: C_16  and  C_22
REMARK                            x       y       z     vdW  Elec       q    Type
REMARK                         _______ _______ _______ _____ _____    ______ ____
ROOT
ATOM      1  O   UNL     1      -4.944  -8.730  10.064  0.00  0.00    -0.370 OA
ATOM      2  O   UNL     1      -5.948 -11.684  10.008  0.00  0.00    -0.370 OA
ATOM      8  C   UNL     1      -4.678 -11.081  10.311  0.00  0.00    +0.171 C 
ATOM      9  C   UNL     1      -4.501  -9.907   9.368  0.00  0.00    +0.171 C 
ATOM     10  C   UNL     1      -4.711 -10.452  11.684  0.00  0.00    +0.130 C 
ATOM     11  C   UNL     1      -5.429 -10.218   8.216  0.00  0.00    +0.130 C 
ATOM     12  C   UNL     1      -5.304  -9.082  11.407  0.00  0.00    +0.185 C 
ATOM     13  C   UNL     1      -6.540 -10.999   8.895  0.00  0.00    +0.185 C 
ENDROOT
BRANCH  10   4
ATOM      4  N   UNL     1      -3.366 -10.319  12.199  0.00  0.00    -0.306 N 
ATOM      6  N   UNL     1      -4.055 -10.714  14.407  0.00  0.00    -0.219 NA
ATOM      7  N   UNL     1      -1.738 -10.303  13.889  0.00  0.00    -0.223 NA
ATOM     14  C   UNL     1      -3.043 -10.449  13.538  0.00  0.00    +0.216 A 
ATOM     17  C   UNL     1      -3.706 -10.835  15.705  0.00  0.00    +0.052 A 
ATOM     19  C   UNL     1      -2.411 -10.705  16.165  0.00  0.00    +0.043 A 
ATOM     23  C   UNL     1      -1.460 -10.436  15.203  0.00  0.00    +0.116 A 
ATOM     29  H   UNL     1      -2.597 -10.174  11.555  0.00  0.00    +0.149 HD
BRANCH  17  16
ATOM     16  C   UNL     1      -4.805 -11.126  16.672  0.00  0.00    +0.005 C 
ATOM     20  C   UNL     1      -5.619 -12.384  16.239  0.00  0.00    +0.017 C 
ATOM     21  C   UNL     1      -5.802  -9.930  16.770  0.00  0.00    +0.017 C 
ATOM     22  C   UNL     1      -4.347 -11.409  18.141  0.00  0.00    +0.017 C 
ENDBRANCH  17  16
ENDBRANCH  10   4
BRANCH  11   5
ATOM      3  O   UNL     1      -6.162 -10.446   5.449  0.00  0.00    -0.270 OA
ATOM      5  N   UNL     1      -4.766 -11.014   7.212  0.00  0.00    -0.304 N 
ATOM     15  C   UNL     1      -5.197 -11.061   5.894  0.00  0.00    +0.244 C 
ATOM     30  H   UNL     1      -4.034 -11.638   7.533  0.00  0.00    +0.149 HD
BRANCH  15  18
ATOM     18  C   UNL     1      -4.424 -11.950   4.989  0.00  0.00    +0.037 A 
ATOM     24  C   UNL     1      -3.247 -12.508   5.445  0.00  0.00    +0.013 A 
ATOM     25  C   UNL     1      -4.909 -12.192   3.720  0.00  0.00    +0.013 A 
ATOM     26  C   UNL     1      -2.524 -13.345   4.596  0.00  0.00    +0.001 A 
ATOM     27  C   UNL     1      -4.185 -13.030   2.870  0.00  0.00    +0.001 A 
ATOM     28  C   UNL     1      -2.993 -13.605   3.308  0.00  0.00    +0.000 A 
ENDBRANCH  15  18
ENDBRANCH  11   5
TORSDOF 4
ENDMDL
MODEL 3
REMARK VINA RESULT:      -6.7      4.357      7.517
REMARK  Name = 11912918
REMARK  7 active torsions:
REMARK  status: ('A' for Active; 'I' for Inactive)
REMARK    1  A    between atoms: N_4  and  C_10
REMARK    2  A    between atoms: N_5  and  C_11
REMARK    3  A    between atoms: C_15  and  C_18
REMARK    4  A    between atoms: C_16  and  C_17
REMARK    5  A    between atoms: C_16  and  C_20
REMARK    6  A    between atoms: C_16  and  C_21
REMARK    7  A    between atoms: C_16  and  C_22
REMARK                            x       y       z     vdW  Elec       q    Type
REMARK                         _______ _______ _______ _____ _____    ______ ____
ROOT
ATOM      1  O   UNL     1      -6.112 -10.842  19.765  0.00  0.00    -0.370 OA
ATOM      2  O   UNL     1      -7.557 -12.221  17.367  0.00  0.00    -0.370 OA
ATOM      8  C   UNL     1      -6.540 -11.208  17.454  0.00  0.00    +0.171 C 
ATOM      9  C   UNL     1      -6.871 -10.340  18.653  0.00  0.00    +0.171 C 
ATOM     10  C   UNL     1      -5.209 -11.830  17.803  0.00  0.00    +0.130 C 
ATOM     11  C   UNL     1      -8.348 -10.569  18.876  0.00  0.00    +0.130 C 
ATOM     12  C   UNL     1      -5.268 -11.912  19.318  0.00  0.00    +0.185 C 
ATOM     13  C   UNL     1      -8.532 -11.997  18.397  0.00  0.00    +0.185 C 
ENDROOT
BRANCH  10   4
ATOM      4  N   UNL     1      -4.132 -10.958  17.390  0.00  0.00    -0.306 N 
ATOM      6  N   UNL     1      -3.599 -12.306  15.546  0.00  0.00    -0.219 NA
ATOM      7  N   UNL     1      -2.361 -10.289  16.003  0.00  0.00    -0.223 NA
ATOM     14  C   UNL     1      -3.340 -11.191  16.281  0.00  0.00    +0.216 A 
ATOM     17  C   UNL     1      -2.808 -12.503  14.470  0.00  0.00    +0.052 A 
ATOM     19  C   UNL     1      -1.788 -11.649  14.102  0.00  0.00    +0.043 A 
ATOM     23  C   UNL     1      -1.609 -10.549  14.913  0.00  0.00    +0.116 A 
ATOM     29  H   UNL     1      -3.965 -10.097  17.900  0.00  0.00    +0.149 HD
BRANCH  17  16
ATOM     16  C   UNL     1      -3.078 -13.722  13.653  0.00  0.00    +0.005 C 
ATOM     20  C   UNL     1      -4.568 -14.167  13.778  0.00  0.00    +0.017 C 
ATOM     21  C   UNL     1      -2.189 -14.919  14.114  0.00  0.00    +0.017 C 
ATOM     22  C   UNL     1      -2.813 -13.573  12.119  0.00  0.00    +0.017 C 
ENDBRANCH  17  16
ENDBRANCH  10   4
BRANCH  11   5
ATOM      3  O   UNL     1     -11.135  -9.980  19.237  0.00  0.00    -0.270 OA
ATOM      5  N   UNL     1      -9.142  -9.649  18.098  0.00  0.00    -0.304 N 
ATOM     15  C   UNL     1     -10.489  -9.430  18.350  0.00  0.00    +0.244 C 
ATOM     30  H   UNL     1      -8.704  -9.247  17.276  0.00  0.00    +0.149 HD
BRANCH  15  18
ATOM     18  C   UNL     1     -11.172  -8.473  17.442  0.00  0.00    +0.037 A 
ATOM     24  C   UNL     1     -10.486  -7.358  17.008  0.00  0.00    +0.013 A 
ATOM     25  C   UNL     1     -12.473  -8.730  17.061  0.00  0.00    +0.013 A 
ATOM     26  C   UNL     1     -11.127  -6.461  16.153  0.00  0.00    +0.001 A 
ATOM     27  C   UNL     1     -13.115  -7.833  16.206  0.00  0.00    +0.001 A 
ATOM     28  C   UNL     1     -12.442  -6.699  15.753  0.00  0.00    +0.000 A 
ENDBRANCH  15  18
ENDBRANCH  11   5
TORSDOF 4
ENDMDL
MODEL 4
REMARK VINA RESULT:      -6.6      6.642     11.688
REMARK  Name = 11912918
REMARK  7 active torsions:
REMARK  status: ('A' for Active; 'I' for Inactive)
REMARK    1  A    between atoms: N_4  and  C_10
REMARK    2  A    between atoms: N_5  and  C_11
REMARK    3  A    between atoms: C_15  and  C_18
REMARK    4  A    between atoms: C_16  and  C_17
REMARK    5  A    between atoms: C_16  and  C_20
REMARK    6  A    between atoms: C_16  and  C_21
REMARK    7  A    between atoms: C_16  and  C_22
REMARK                            x       y       z     vdW  Elec       q    Type
REMARK                         _______ _______ _______ _____ _____    ______ ____
ROOT
ATOM      1  O   UNL     1      -3.619  -9.142  10.415  0.00  0.00    -0.370 OA
ATOM      2  O   UNL     1      -5.387 -11.663  10.923  0.00  0.00    -0.370 OA
ATOM      8  C   UNL     1      -5.667 -10.252  10.895  0.00  0.00    +0.171 C 
ATOM      9  C   UNL     1      -4.471  -9.544  11.500  0.00  0.00    +0.171 C 
ATOM     10  C   UNL     1      -5.710  -9.755   9.470  0.00  0.00    +0.130 C 
ATOM     11  C   UNL     1      -3.796 -10.609  12.333  0.00  0.00    +0.130 C 
ATOM     12  C   UNL     1      -4.248  -9.479   9.170  0.00  0.00    +0.185 C 
ATOM     13  C   UNL     1      -4.122 -11.878  11.567  0.00  0.00    +0.185 C 
ENDROOT
BRANCH  10   4
ATOM      4  N   UNL     1      -6.476  -8.531   9.396  0.00  0.00    -0.306 N 
ATOM      6  N   UNL     1      -7.192  -8.981   7.207  0.00  0.00    -0.219 NA
ATOM      7  N   UNL     1      -7.883  -6.973   8.347  0.00  0.00    -0.223 NA
ATOM     14  C   UNL     1      -7.205  -8.150   8.284  0.00  0.00    +0.216 A 
ATOM     17  C   UNL     1      -7.913  -8.579   6.140  0.00  0.00    +0.052 A 
ATOM     19  C   UNL     1      -8.636  -7.404   6.102  0.00  0.00    +0.043 A 
ATOM     23  C   UNL     1      -8.583  -6.633   7.244  0.00  0.00    +0.116 A 
ATOM     29  H   UNL     1      -6.536  -7.930  10.211  0.00  0.00    +0.149 HD
BRANCH  17  16
ATOM     16  C   UNL     1      -7.910  -9.479   4.950  0.00  0.00    +0.005 C 
ATOM     20  C   UNL     1      -6.709 -10.474   4.998  0.00  0.00    +0.017 C 
ATOM     21  C   UNL     1      -7.793  -8.663   3.625  0.00  0.00    +0.017 C 
ATOM     22  C   UNL     1      -9.184 -10.370   4.779  0.00  0.00    +0.017 C 
ENDBRANCH  17  16
ENDBRANCH  10   4
BRANCH  11   5
ATOM      3  O   UNL     1      -2.312 -10.547  14.791  0.00  0.00    -0.270 OA
ATOM      5  N   UNL     1      -4.340 -10.650  13.669  0.00  0.00    -0.304 N 
ATOM     15  C   UNL     1      -3.538 -10.615  14.802  0.00  0.00    +0.244 C 
ATOM     30  H   UNL     1      -5.335 -10.824  13.753  0.00  0.00    +0.149 HD
BRANCH  15  18
ATOM     18  C   UNL     1      -4.250 -10.693  16.103  0.00  0.00    +0.037 A 
ATOM     24  C   UNL     1      -5.502 -10.125  16.215  0.00  0.00    +0.013 A 
ATOM     25  C   UNL     1      -3.635 -11.333  17.160  0.00  0.00    +0.013 A 
ATOM     26  C   UNL     1      -6.170 -10.202  17.438  0.00  0.00    +0.001 A 
ATOM     27  C   UNL     1      -4.303 -11.409  18.383  0.00  0.00    +0.001 A 
ATOM     28  C   UNL     1      -5.570 -10.843  18.521  0.00  0.00    +0.000 A 
ENDBRANCH  15  18
ENDBRANCH  11   5
TORSDOF 4
ENDMDL
MODEL 5
REMARK VINA RESULT:      -6.5     31.458     34.885
REMARK  Name = 11912918
REMARK  7 active torsions:
REMARK  status: ('A' for Active; 'I' for Inactive)
REMARK    1  A    between atoms: N_4  and  C_10
REMARK    2  A    between atoms: N_5  and  C_11
REMARK    3  A    between atoms: C_15  and  C_18
REMARK    4  A    between atoms: C_16  and  C_17
REMARK    5  A    between atoms: C_16  and  C_20
REMARK    6  A    between atoms: C_16  and  C_21
REMARK    7  A    between atoms: C_16  and  C_22
REMARK                            x       y       z     vdW  Elec       q    Type
REMARK                         _______ _______ _______ _____ _____    ______ ____
ROOT
ATOM      1  O   UNL     1      19.588   7.381  23.041  0.00  0.00    -0.370 OA
ATOM      2  O   UNL     1      21.030   7.363  20.273  0.00  0.00    -0.370 OA
ATOM      8  C   UNL     1      19.921   6.622  20.811  0.00  0.00    +0.171 C 
ATOM      9  C   UNL     1      20.228   6.350  22.271  0.00  0.00    +0.171 C 
ATOM     10  C   UNL     1      18.682   7.484  20.847  0.00  0.00    +0.130 C 
ATOM     11  C   UNL     1      21.731   6.481  22.361  0.00  0.00    +0.130 C 
ATOM     12  C   UNL     1      18.833   8.228  22.162  0.00  0.00    +0.185 C 
ATOM     13  C   UNL     1      22.033   7.512  21.289  0.00  0.00    +0.185 C 
ENDROOT
BRANCH  10   4
ATOM      4  N   UNL     1      17.500   6.651  20.876  0.00  0.00    -0.306 N 
ATOM      6  N   UNL     1      16.127   8.380  20.084  0.00  0.00    -0.219 NA
ATOM      7  N   UNL     1      15.217   6.203  20.574  0.00  0.00    -0.223 NA
ATOM     14  C   UNL     1      16.244   7.091  20.500  0.00  0.00    +0.216 A 
ATOM     17  C   UNL     1      14.888   8.777  19.724  0.00  0.00    +0.052 A 
ATOM     19  C   UNL     1      13.780   7.955  19.761  0.00  0.00    +0.043 A 
ATOM     23  C   UNL     1      14.006   6.667  20.199  0.00  0.00    +0.116 A 
ATOM     29  H   UNL     1      17.585   5.674  21.134  0.00  0.00    +0.149 HD
BRANCH  17  16
ATOM     16  C   UNL     1      14.742  10.189  19.264  0.00  0.00    +0.005 C 
ATOM     20  C   UNL     1      15.932  11.069  19.756  0.00  0.00    +0.017 C 
ATOM     21  C   UNL     1      13.427  10.827  19.810  0.00  0.00    +0.017 C 
ATOM     22  C   UNL     1      14.689  10.387  17.714  0.00  0.00    +0.017 C 
ENDBRANCH  17  16
ENDBRANCH  10   4
BRANCH  11   5
ATOM      3  O   UNL     1      22.172   4.326  24.207  0.00  0.00    -0.270 OA
ATOM      5  N   UNL     1      22.382   5.225  22.079  0.00  0.00    -0.304 N 
ATOM     15  C   UNL     1      22.550   4.240  23.042  0.00  0.00    +0.244 C 
ATOM     30  H   UNL     1      22.823   5.132  21.170  0.00  0.00    +0.149 HD
BRANCH  15  18
ATOM     18  C   UNL     1      23.266   3.015  22.600  0.00  0.00    +0.037 A 
ATOM     24  C   UNL     1      23.671   2.099  23.549  0.00  0.00    +0.013 A 
ATOM     25  C   UNL     1      23.502   2.832  21.253  0.00  0.00    +0.013 A 
ATOM     26  C   UNL     1      24.340   0.948  23.132  0.00  0.00    +0.001 A 
ATOM     27  C   UNL     1      24.172   1.681  20.836  0.00  0.00    +0.001 A 
ATOM     28  C   UNL     1      24.592   0.740  21.776  0.00  0.00    +0.000 A 
ENDBRANCH  15  18
ENDBRANCH  11   5
TORSDOF 4
ENDMDL
MODEL 6
REMARK VINA RESULT:      -6.5      2.292      9.340
REMARK  Name = 11912918
REMARK  7 active torsions:
REMARK  status: ('A' for Active; 'I' for Inactive)
REMARK    1  A    between atoms: N_4  and  C_10
REMARK    2  A    between atoms: N_5  and  C_11
REMARK    3  A    between atoms: C_15  and  C_18
REMARK    4  A    between atoms: C_16  and  C_17
REMARK    5  A    between atoms: C_16  and  C_20
REMARK    6  A    between atoms: C_16  and  C_21
REMARK    7  A    between atoms: C_16  and  C_22
REMARK                            x       y       z     vdW  Elec       q    Type
REMARK                         _______ _______ _______ _____ _____    ______ ____
ROOT
ATOM      1  O   UNL     1     -12.102  -9.489  16.069  0.00  0.00    -0.370 OA
ATOM      2  O   UNL     1     -10.188  -7.025  16.000  0.00  0.00    -0.370 OA
ATOM      8  C   UNL     1     -10.537  -8.029  15.031  0.00  0.00    +0.171 C 
ATOM      9  C   UNL     1     -10.703  -9.337  15.779  0.00  0.00    +0.171 C 
ATOM     10  C   UNL     1     -11.907  -7.752  14.460  0.00  0.00    +0.130 C 
ATOM     11  C   UNL     1      -9.919  -9.133  17.055  0.00  0.00    +0.130 C 
ATOM     12  C   UNL     1     -12.828  -8.402  15.477  0.00  0.00    +0.185 C 
ATOM     13  C   UNL     1     -10.063  -7.641  17.291  0.00  0.00    +0.185 C 
ENDROOT
BRANCH  10   4
ATOM      4  N   UNL     1     -12.046  -8.398  13.174  0.00  0.00    -0.306 N 
ATOM      6  N   UNL     1     -12.286  -6.353  12.049  0.00  0.00    -0.219 NA
ATOM      7  N   UNL     1     -12.347  -8.441  10.847  0.00  0.00    -0.223 NA
ATOM     14  C   UNL     1     -12.232  -7.711  11.988  0.00  0.00    +0.216 A 
ATOM     17  C   UNL     1     -12.468  -5.714  10.875  0.00  0.00    +0.052 A 
ATOM     19  C   UNL     1     -12.596  -6.360   9.662  0.00  0.00    +0.043 A 
ATOM     23  C   UNL     1     -12.527  -7.737   9.709  0.00  0.00    +0.116 A 
ATOM     29  H   UNL     1     -11.955  -9.406  13.109  0.00  0.00    +0.149 HD
BRANCH  17  16
ATOM     16  C   UNL     1     -12.530  -4.224  10.924  0.00  0.00    +0.005 C 
ATOM     20  C   UNL     1     -13.945  -3.704  10.524  0.00  0.00    +0.017 C 
ATOM     21  C   UNL     1     -11.498  -3.583   9.945  0.00  0.00    +0.017 C 
ATOM     22  C   UNL     1     -12.230  -3.586  12.321  0.00  0.00    +0.017 C 
ENDBRANCH  17  16
ENDBRANCH  10   4
BRANCH  11   5
ATOM      3  O   UNL     1      -8.287 -10.577  18.926  0.00  0.00    -0.270 OA
ATOM      5  N   UNL     1      -8.536  -9.505  16.884  0.00  0.00    -0.304 N 
ATOM     15  C   UNL     1      -7.827 -10.206  17.849  0.00  0.00    +0.244 C 
ATOM     30  H   UNL     1      -8.058  -9.131  16.071  0.00  0.00    +0.149 HD
BRANCH  15  18
ATOM     18  C   UNL     1      -6.403 -10.488  17.533  0.00  0.00    +0.037 A 
ATOM     24  C   UNL     1      -5.640 -11.182  18.449  0.00  0.00    +0.013 A 
ATOM     25  C   UNL     1      -5.889 -10.048  16.331  0.00  0.00    +0.013 A 
ATOM     26  C   UNL     1      -4.304 -11.449  18.150  0.00  0.00    +0.001 A 
ATOM     27  C   UNL     1      -4.552 -10.314  16.031  0.00  0.00    +0.001 A 
ATOM     28  C   UNL     1      -3.760 -11.014  16.942  0.00  0.00    +0.000 A 
ENDBRANCH  15  18
ENDBRANCH  11   5
TORSDOF 4
ENDMDL
MODEL 7
REMARK VINA RESULT:      -6.4     29.178     31.807
REMARK  Name = 11912918
REMARK  7 active torsions:
REMARK  status: ('A' for Active; 'I' for Inactive)
REMARK    1  A    between atoms: N_4  and  C_10
REMARK    2  A    between atoms: N_5  and  C_11
REMARK    3  A    between atoms: C_15  and  C_18
REMARK    4  A    between atoms: C_16  and  C_17
REMARK    5  A    between atoms: C_16  and  C_20
REMARK    6  A    between atoms: C_16  and  C_21
REMARK    7  A    between atoms: C_16  and  C_22
REMARK                            x       y       z     vdW  Elec       q    Type
REMARK                         _______ _______ _______ _____ _____    ______ ____
ROOT
ATOM      1  O   UNL     1      18.879  -2.020  29.361  0.00  0.00    -0.370 OA
ATOM      2  O   UNL     1      19.001  -4.986  28.398  0.00  0.00    -0.370 OA
ATOM      8  C   UNL     1      18.307  -3.821  27.917  0.00  0.00    +0.171 C 
ATOM      9  C   UNL     1      17.875  -3.022  29.130  0.00  0.00    +0.171 C 
ATOM     10  C   UNL     1      19.262  -2.905  27.190  0.00  0.00    +0.130 C 
ATOM     11  C   UNL     1      17.871  -4.032  30.254  0.00  0.00    +0.130 C 
ATOM     12  C   UNL     1      19.864  -2.089  28.320  0.00  0.00    +0.185 C 
ATOM     13  C   UNL     1      18.969  -4.992  29.833  0.00  0.00    +0.185 C 
ENDROOT
BRANCH  10   4
ATOM      4  N   UNL     1      18.532  -2.045  26.286  0.00  0.00    -0.306 N 
ATOM      6  N   UNL     1      18.815  -3.516  24.481  0.00  0.00    -0.219 NA
ATOM      7  N   UNL     1      17.606  -1.449  24.214  0.00  0.00    -0.223 NA
ATOM     14  C   UNL     1      18.311  -2.345  24.954  0.00  0.00    +0.216 A 
ATOM     17  C   UNL     1      18.581  -3.779  23.178  0.00  0.00    +0.052 A 
ATOM     19  C   UNL     1      17.878  -2.936  22.341  0.00  0.00    +0.043 A 
ATOM     23  C   UNL     1      17.410  -1.775  22.919  0.00  0.00    +0.116 A 
ATOM     29  H   UNL     1      18.106  -1.195  26.641  0.00  0.00    +0.149 HD
BRANCH  17  16
ATOM     16  C   UNL     1      19.128  -5.060  22.642  0.00  0.00    +0.005 C 
ATOM     20  C   UNL     1      18.085  -6.213  22.766  0.00  0.00    +0.017 C 
ATOM     21  C   UNL     1      20.408  -5.497  23.420  0.00  0.00    +0.017 C 
ATOM     22  C   UNL     1      19.545  -5.032  21.135  0.00  0.00    +0.017 C 
ENDBRANCH  17  16
ENDBRANCH  10   4
BRANCH  11   5
ATOM      3  O   UNL     1      15.564  -3.132  31.707  0.00  0.00    -0.270 OA
ATOM      5  N   UNL     1      16.598  -4.703  30.349  0.00  0.00    -0.304 N 
ATOM     15  C   UNL     1      15.536  -4.187  31.080  0.00  0.00    +0.244 C 
ATOM     30  H   UNL     1      16.540  -5.635  29.953  0.00  0.00    +0.149 HD
BRANCH  15  18
ATOM     18  C   UNL     1      14.301  -5.012  31.101  0.00  0.00    +0.037 A 
ATOM     24  C   UNL     1      14.176  -6.052  30.204  0.00  0.00    +0.013 A 
ATOM     25  C   UNL     1      13.317  -4.711  32.021  0.00  0.00    +0.013 A 
ATOM     26  C   UNL     1      13.017  -6.827  30.227  0.00  0.00    +0.001 A 
ATOM     27  C   UNL     1      12.156  -5.487  32.044  0.00  0.00    +0.001 A 
ATOM     28  C   UNL     1      12.007  -6.544  31.146  0.00  0.00    +0.000 A 
ENDBRANCH  15  18
ENDBRANCH  11   5
TORSDOF 4
ENDMDL
MODEL 8
REMARK VINA RESULT:      -6.3     32.806     35.491
REMARK  Name = 11912918
REMARK  7 active torsions:
REMARK  status: ('A' for Active; 'I' for Inactive)
REMARK    1  A    between atoms: N_4  and  C_10
REMARK    2  A    between atoms: N_5  and  C_11
REMARK    3  A    between atoms: C_15  and  C_18
REMARK    4  A    between atoms: C_16  and  C_17
REMARK    5  A    between atoms: C_16  and  C_20
REMARK    6  A    between atoms: C_16  and  C_21
REMARK    7  A    between atoms: C_16  and  C_22
REMARK                            x       y       z     vdW  Elec       q    Type
REMARK                         _______ _______ _______ _____ _____    ______ ____
ROOT
ATOM      1  O   UNL     1      22.342   8.522  22.346  0.00  0.00    -0.370 OA
ATOM      2  O   UNL     1      21.053   6.195  23.978  0.00  0.00    -0.370 OA
ATOM      8  C   UNL     1      21.544   6.299  22.630  0.00  0.00    +0.171 C 
ATOM      9  C   UNL     1      21.193   7.686  22.129  0.00  0.00    +0.171 C 
ATOM     10  C   UNL     1      23.054   6.272  22.619  0.00  0.00    +0.130 C 
ATOM     11  C   UNL     1      20.051   8.120  23.019  0.00  0.00    +0.130 C 
ATOM     12  C   UNL     1      23.414   7.725  22.871  0.00  0.00    +0.185 C 
ATOM     13  C   UNL     1      20.363   7.406  24.321  0.00  0.00    +0.185 C 
ENDROOT
BRANCH  10   4
ATOM      4  N   UNL     1      23.532   5.855  21.319  0.00  0.00    -0.306 N 
ATOM      6  N   UNL     1      24.231   3.766  22.123  0.00  0.00    -0.219 NA
ATOM      7  N   UNL     1      24.515   4.358  19.804  0.00  0.00    -0.223 NA
ATOM     14  C   UNL     1      24.110   4.623  21.074  0.00  0.00    +0.216 A 
ATOM     17  C   UNL     1      24.799   2.572  21.849  0.00  0.00    +0.052 A 
ATOM     19  C   UNL     1      25.244   2.204  20.596  0.00  0.00    +0.043 A 
ATOM     23  C   UNL     1      25.075   3.146  19.602  0.00  0.00    +0.116 A 
ATOM     29  H   UNL     1      23.398   6.466  20.520  0.00  0.00    +0.149 HD
BRANCH  17  16
ATOM     16  C   UNL     1      24.940   1.619  22.989  0.00  0.00    +0.005 C 
ATOM     20  C   UNL     1      25.946   2.156  24.053  0.00  0.00    +0.017 C 
ATOM     21  C   UNL     1      25.464   0.232  22.503  0.00  0.00    +0.017 C 
ATOM     22  C   UNL     1      23.622   1.314  23.775  0.00  0.00    +0.017 C 
ENDBRANCH  17  16
ENDBRANCH  10   4
BRANCH  11   5
ATOM      3  O   UNL     1      18.347   9.624  21.264  0.00  0.00    -0.270 OA
ATOM      5  N   UNL     1      18.781   7.698  22.481  0.00  0.00    -0.304 N 
ATOM     15  C   UNL     1      18.025   8.499  21.637  0.00  0.00    +0.244 C 
ATOM     30  H   UNL     1      18.398   6.830  22.838  0.00  0.00    +0.149 HD
BRANCH  15  18
ATOM     18  C   UNL     1      16.727   7.931  21.191  0.00  0.00    +0.037 A 
ATOM     24  C   UNL     1      16.723   6.971  20.201  0.00  0.00    +0.013 A 
ATOM     25  C   UNL     1      15.566   8.382  21.784  0.00  0.00    +0.013 A 
ATOM     26  C   UNL     1      15.504   6.436  19.786  0.00  0.00    +0.001 A 
ATOM     27  C   UNL     1      14.345   7.847  21.368  0.00  0.00    +0.001 A 
ATOM     28  C   UNL     1      14.315   6.875  20.368  0.00  0.00    +0.000 A 
ENDBRANCH  15  18
ENDBRANCH  11   5
TORSDOF 4
ENDMDL
MODEL 9
REMARK VINA RESULT:      -6.3      7.332     11.623
REMARK  Name = 11912918
REMARK  7 active torsions:
REMARK  status: ('A' for Active; 'I' for Inactive)
REMARK    1  A    between atoms: N_4  and  C_10
REMARK    2  A    between atoms: N_5  and  C_11
REMARK    3  A    between atoms: C_15  and  C_18
REMARK    4  A    between atoms: C_16  and  C_17
REMARK    5  A    between atoms: C_16  and  C_20
REMARK    6  A    between atoms: C_16  and  C_21
REMARK    7  A    between atoms: C_16  and  C_22
REMARK                            x       y       z     vdW  Elec       q    Type
REMARK                         _______ _______ _______ _____ _____    ______ ____
ROOT
ATOM      1  O   UNL     1      -3.015 -10.172  11.797  0.00  0.00    -0.370 OA
ATOM      2  O   UNL     1      -4.685 -12.739  12.396  0.00  0.00    -0.370 OA
ATOM      8  C   UNL     1      -5.042 -11.397  12.021  0.00  0.00    +0.171 C 
ATOM      9  C   UNL     1      -4.075 -10.463  12.723  0.00  0.00    +0.171 C 
ATOM     10  C   UNL     1      -4.772 -11.173  10.552  0.00  0.00    +0.130 C 
ATOM     11  C   UNL     1      -3.553 -11.278  13.883  0.00  0.00    +0.130 C 
ATOM     12  C   UNL     1      -3.302 -10.796  10.538  0.00  0.00    +0.185 C 
ATOM     13  C   UNL     1      -3.601 -12.693  13.335  0.00  0.00    +0.185 C 
ENDROOT
BRANCH  10   4
ATOM      4  N   UNL     1      -5.576 -10.075  10.063  0.00  0.00    -0.306 N 
ATOM      6  N   UNL     1      -5.622 -10.935   7.881  0.00  0.00    -0.219 NA
ATOM      7  N   UNL     1      -6.749  -8.874   8.423  0.00  0.00    -0.223 NA
ATOM     14  C   UNL     1      -5.995  -9.958   8.751  0.00  0.00    +0.216 A 
ATOM     17  C   UNL     1      -6.047 -10.789   6.608  0.00  0.00    +0.052 A 
ATOM     19  C   UNL     1      -6.816  -9.729   6.174  0.00  0.00    +0.043 A 
ATOM     23  C   UNL     1      -7.139  -8.793   7.133  0.00  0.00    +0.116 A 
ATOM     29  H   UNL     1      -5.904  -9.369  10.714  0.00  0.00    +0.149 HD
BRANCH  17  16
ATOM     16  C   UNL     1      -5.647 -11.853   5.641  0.00  0.00    +0.005 C 
ATOM     20  C   UNL     1      -4.099 -11.893   5.455  0.00  0.00    +0.017 C 
ATOM     21  C   UNL     1      -6.285 -11.610   4.238  0.00  0.00    +0.017 C 
ATOM     22  C   UNL     1      -6.058 -13.309   6.038  0.00  0.00    +0.017 C 
ENDBRANCH  17  16
ENDBRANCH  10   4
BRANCH  11   5
ATOM      3  O   UNL     1      -2.692 -10.962  16.604  0.00  0.00    -0.270 OA
ATOM      5  N   UNL     1      -4.398 -11.136  15.043  0.00  0.00    -0.304 N 
ATOM     15  C   UNL     1      -3.887 -10.989  16.325  0.00  0.00    +0.244 C 
ATOM     30  H   UNL     1      -5.394 -11.266  14.903  0.00  0.00    +0.149 HD
BRANCH  15  18
ATOM     18  C   UNL     1      -4.889 -10.883  17.416  0.00  0.00    +0.037 A 
ATOM     24  C   UNL     1      -4.595 -11.427  18.649  0.00  0.00    +0.013 A 
ATOM     25  C   UNL     1      -6.084 -10.241  17.162  0.00  0.00    +0.013 A 
ATOM     26  C   UNL     1      -5.536 -11.324  19.674  0.00  0.00    +0.001 A 
ATOM     27  C   UNL     1      -7.026 -10.139  18.187  0.00  0.00    +0.001 A 
ATOM     28  C   UNL     1      -6.751 -10.681  19.442  0.00  0.00    +0.000 A 
ENDBRANCH  15  18
ENDBRANCH  11   5
TORSDOF 4
ENDMDL
MODEL 10
REMARK VINA RESULT:      -6.3     26.995     29.485
REMARK  Name = 11912918
REMARK  7 active torsions:
REMARK  status: ('A' for Active; 'I' for Inactive)
REMARK    1  A    between atoms: N_4  and  C_10
REMARK    2  A    between atoms: N_5  and  C_11
REMARK    3  A    between atoms: C_15  and  C_18
REMARK    4  A    between atoms: C_16  and  C_17
REMARK    5  A    between atoms: C_16  and  C_20
REMARK    6  A    between atoms: C_16  and  C_21
REMARK    7  A    between atoms: C_16  and  C_22
REMARK                            x       y       z     vdW  Elec       q    Type
REMARK                         _______ _______ _______ _____ _____    ______ ____
ROOT
ATOM      1  O   UNL     1      10.543   4.624   4.807  0.00  0.00    -0.370 OA
ATOM      2  O   UNL     1       9.840   7.300   3.363  0.00  0.00    -0.370 OA
ATOM      8  C   UNL     1      11.083   6.657   3.695  0.00  0.00    +0.171 C 
ATOM      9  C   UNL     1      10.900   5.995   5.047  0.00  0.00    +0.171 C 
ATOM     10  C   UNL     1      11.346   5.507   2.753  0.00  0.00    +0.130 C 
ATOM     11  C   UNL     1       9.740   6.741   5.667  0.00  0.00    +0.130 C 
ATOM     12  C   UNL     1      10.576   4.368   3.395  0.00  0.00    +0.185 C 
ATOM     13  C   UNL     1       8.920   7.135   4.452  0.00  0.00    +0.185 C 
ENDROOT
BRANCH  10   4
ATOM      4  N   UNL     1      12.760   5.202   2.726  0.00  0.00    -0.306 N 
ATOM      6  N   UNL     1      12.697   4.587   0.463  0.00  0.00    -0.219 NA
ATOM      7  N   UNL     1      14.757   4.504   1.711  0.00  0.00    -0.223 NA
ATOM     14  C   UNL     1      13.424   4.751   1.600  0.00  0.00    +0.216 A 
ATOM     17  C   UNL     1      13.376   4.146  -0.617  0.00  0.00    +0.052 A 
ATOM     19  C   UNL     1      14.727   3.866  -0.610  0.00  0.00    +0.043 A 
ATOM     23  C   UNL     1      15.372   4.064   0.593  0.00  0.00    +0.116 A 
ATOM     29  H   UNL     1      13.322   5.371   3.553  0.00  0.00    +0.149 HD
BRANCH  17  16
ATOM     16  C   UNL     1      12.593   3.960  -1.873  0.00  0.00    +0.005 C 
ATOM     20  C   UNL     1      12.206   2.463  -2.082  0.00  0.00    +0.017 C 
ATOM     21  C   UNL     1      13.412   4.414  -3.122  0.00  0.00    +0.017 C 
ATOM     22  C   UNL     1      11.247   4.754  -1.947  0.00  0.00    +0.017 C 
ENDBRANCH  17  16
ENDBRANCH  10   4
BRANCH  11   5
ATOM      3  O   UNL     1       8.596   7.816   8.071  0.00  0.00    -0.270 OA
ATOM      5  N   UNL     1      10.194   7.902   6.392  0.00  0.00    -0.304 N 
ATOM     15  C   UNL     1       9.572   8.348   7.550  0.00  0.00    +0.244 C 
ATOM     30  H   UNL     1      10.922   8.458   5.957  0.00  0.00    +0.149 HD
BRANCH  15  18
ATOM     18  C   UNL     1      10.143   9.575   8.163  0.00  0.00    +0.037 A 
ATOM     24  C   UNL     1      11.432   9.944   7.841  0.00  0.00    +0.013 A 
ATOM     25  C   UNL     1       9.363  10.308   9.034  0.00  0.00    +0.013 A 
ATOM     26  C   UNL     1      11.966  11.099   8.415  0.00  0.00    +0.001 A 
ATOM     27  C   UNL     1       9.897  11.462   9.608  0.00  0.00    +0.001 A 
ATOM     28  C   UNL     1      11.198  11.857   9.299  0.00  0.00    +0.000 A 
ENDBRANCH  15  18
ENDBRANCH  11   5
TORSDOF 4
ENDMDL
