MODEL 1
REMARK VINA RESULT:      -8.2      0.000      0.000
REMARK  Name = 40777684
REMARK  7 active torsions:
REMARK  status: ('A' for Active; 'I' for Inactive)
REMARK    1  A    between atoms: N_5  and  C_11
REMARK    2  A    between atoms: N_6  and  C_19
REMARK    3  A    between atoms: C_9  and  C_12
REMARK    4  A    between atoms: C_15  and  C_17
REMARK    5  A    between atoms: C_16  and  C_18
REMARK    6  A    between atoms: C_20  and  C_23
REMARK    7  A    between atoms: C_26  and  C_29
REMARK                            x       y       z     vdW  Elec       q    Type
REMARK                         _______ _______ _______ _____ _____    ______ ____
ROOT
ATOM      6  N   UNL     1      20.707   6.002  21.333  0.00  0.00    -0.236 N 
ATOM      7  N   UNL     1      20.807   7.102  22.099  0.00  0.00    -0.171 NA
ATOM     12  C   UNL     1      18.851   7.076  20.921  0.00  0.00    +0.003 A 
ATOM     15  C   UNL     1      19.553   5.938  20.608  0.00  0.00    +0.046 A 
ATOM     16  C   UNL     1      19.670   7.754  21.842  0.00  0.00    +0.064 A 
ATOM     17  C   UNL     1      19.230   4.821  19.697  0.00  0.00    +0.066 C 
ATOM     18  C   UNL     1      19.407   9.041  22.509  0.00  0.00    +0.068 C 
ENDROOT
BRANCH   6  19
ATOM     19  C   UNL     1      21.735   5.058  21.339  0.00  0.00    +0.066 A 
ATOM     21  C   UNL     1      22.763   5.138  20.399  0.00  0.00    +0.028 A 
ATOM     22  C   UNL     1      21.732   4.031  22.283  0.00  0.00    +0.028 A 
ATOM     24  C   UNL     1      23.787   4.192  20.404  0.00  0.00    +0.014 A 
ATOM     25  C   UNL     1      22.756   3.084  22.287  0.00  0.00    +0.014 A 
ATOM     26  C   UNL     1      23.785   3.165  21.348  0.00  0.00    +0.055 A 
BRANCH  26  29
ATOM      1  F   UNL     1      24.452   0.881  21.101  0.00  0.00    -0.166 F 
ATOM      2  F   UNL     1      25.534   2.091  22.548  0.00  0.00    -0.166 F 
ATOM      3  F   UNL     1      25.849   2.393  20.418  0.00  0.00    -0.166 F 
ATOM     29  C   UNL     1      24.880   2.154  21.352  0.00  0.00    +0.417 C 
ENDBRANCH  26  29
ENDBRANCH   6  19
BRANCH  12   9
ATOM      9  C   UNL     1      17.501   7.502  20.391  0.00  0.00    +0.047 C 
ATOM     10  C   UNL     1      16.713   6.350  19.734  0.00  0.00    +0.039 C 
ATOM     11  C   UNL     1      15.236   6.619  20.049  0.00  0.00    +0.097 C 
ATOM     13  C   UNL     1      16.542   7.992  21.437  0.00  0.00    -0.021 C 
ATOM     14  C   UNL     1      15.309   7.512  21.245  0.00  0.00    -0.009 C 
BRANCH  11   5
ATOM      4  O   UNL     1      12.421   6.554  19.484  0.00  0.00    -0.270 OA
ATOM      5  N   UNL     1      14.556   7.310  18.985  0.00  0.00    -0.305 N 
ATOM     20  C   UNL     1      13.184   7.218  18.787  0.00  0.00    +0.246 C 
ATOM     32  H   UNL     1      15.131   7.809  18.313  0.00  0.00    +0.150 HD
BRANCH  20  23
ATOM      8  N   UNL     1      13.036   9.097  15.526  0.00  0.00    -0.263 NA
ATOM     23  C   UNL     1      12.639   7.970  17.628  0.00  0.00    +0.055 A 
ATOM     27  C   UNL     1      11.282   8.257  17.533  0.00  0.00    +0.016 A 
ATOM     28  C   UNL     1      13.468   8.408  16.607  0.00  0.00    +0.123 A 
ATOM     30  C   UNL     1      10.802   8.963  16.437  0.00  0.00    +0.020 A 
ATOM     31  C   UNL     1      11.712   9.357  15.469  0.00  0.00    +0.111 A 
ENDBRANCH  20  23
ENDBRANCH  11   5
ENDBRANCH  12   9
TORSDOF 5
ENDMDL
MODEL 2
REMARK VINA RESULT:      -7.8     30.373     33.990
REMARK  Name = 40777684
REMARK  7 active torsions:
REMARK  status: ('A' for Active; 'I' for Inactive)
REMARK    1  A    between atoms: N_5  and  C_11
REMARK    2  A    between atoms: N_6  and  C_19
REMARK    3  A    between atoms: C_9  and  C_12
REMARK    4  A    between atoms: C_15  and  C_17
REMARK    5  A    between atoms: C_16  and  C_18
REMARK    6  A    between atoms: C_20  and  C_23
REMARK    7  A    between atoms: C_26  and  C_29
REMARK                            x       y       z     vdW  Elec       q    Type
REMARK                         _______ _______ _______ _____ _____    ______ ____
ROOT
ATOM      6  N   UNL     1     -14.386   6.511  21.272  0.00  0.00    -0.236 N 
ATOM      7  N   UNL     1     -15.683   6.862  21.237  0.00  0.00    -0.171 NA
ATOM     12  C   UNL     1     -15.307   5.187  22.744  0.00  0.00    +0.003 A 
ATOM     15  C   UNL     1     -14.108   5.513  22.159  0.00  0.00    +0.046 A 
ATOM     16  C   UNL     1     -16.241   6.049  22.139  0.00  0.00    +0.064 A 
ATOM     17  C   UNL     1     -12.751   4.966  22.364  0.00  0.00    +0.066 C 
ATOM     18  C   UNL     1     -17.690   6.132  22.391  0.00  0.00    +0.068 C 
ENDROOT
BRANCH   6  19
ATOM     19  C   UNL     1     -13.471   7.162  20.443  0.00  0.00    +0.066 A 
ATOM     21  C   UNL     1     -13.875   7.644  19.198  0.00  0.00    +0.028 A 
ATOM     22  C   UNL     1     -12.149   7.327  20.859  0.00  0.00    +0.028 A 
ATOM     24  C   UNL     1     -12.959   8.291  18.370  0.00  0.00    +0.014 A 
ATOM     25  C   UNL     1     -11.233   7.972  20.030  0.00  0.00    +0.014 A 
ATOM     26  C   UNL     1     -11.637   8.455  18.785  0.00  0.00    +0.055 A 
BRANCH  26  29
ATOM      1  F   UNL     1     -10.012   8.307  17.035  0.00  0.00    -0.166 F 
ATOM      2  F   UNL     1      -9.672   9.781  18.598  0.00  0.00    -0.166 F 
ATOM      3  F   UNL     1     -11.220  10.107  17.106  0.00  0.00    -0.166 F 
ATOM     29  C   UNL     1     -10.658   9.146  17.898  0.00  0.00    +0.417 C 
ENDBRANCH  26  29
ENDBRANCH   6  19
BRANCH  12   9
ATOM      9  C   UNL     1     -15.563   4.137  23.800  0.00  0.00    +0.047 C 
ATOM     10  C   UNL     1     -16.203   4.706  25.084  0.00  0.00    +0.039 C 
ATOM     11  C   UNL     1     -17.142   3.611  25.605  0.00  0.00    +0.097 C 
ATOM     13  C   UNL     1     -16.540   3.069  23.400  0.00  0.00    -0.021 C 
ATOM     14  C   UNL     1     -17.395   2.784  24.387  0.00  0.00    -0.009 C 
BRANCH  11   5
ATOM      4  O   UNL     1     -16.499   4.392  28.292  0.00  0.00    -0.270 OA
ATOM      5  N   UNL     1     -16.532   2.789  26.616  0.00  0.00    -0.305 N 
ATOM     20  C   UNL     1     -16.256   3.255  27.896  0.00  0.00    +0.246 C 
ATOM     32  H   UNL     1     -16.221   1.863  26.339  0.00  0.00    +0.150 HD
BRANCH  20  23
ATOM      8  N   UNL     1     -15.380   0.018  29.611  0.00  0.00    -0.263 NA
ATOM     23  C   UNL     1     -15.600   2.291  28.815  0.00  0.00    +0.055 A 
ATOM     27  C   UNL     1     -14.628   2.708  29.718  0.00  0.00    +0.016 A 
ATOM     28  C   UNL     1     -15.938   0.947  28.801  0.00  0.00    +0.123 A 
ATOM     30  C   UNL     1     -14.032   1.782  30.566  0.00  0.00    +0.020 A 
ATOM     31  C   UNL     1     -14.440   0.461  30.474  0.00  0.00    +0.111 A 
ENDBRANCH  20  23
ENDBRANCH  11   5
ENDBRANCH  12   9
TORSDOF 5
ENDMDL
MODEL 3
REMARK VINA RESULT:      -7.6     29.247     30.959
REMARK  Name = 40777684
REMARK  7 active torsions:
REMARK  status: ('A' for Active; 'I' for Inactive)
REMARK    1  A    between atoms: N_5  and  C_11
REMARK    2  A    between atoms: N_6  and  C_19
REMARK    3  A    between atoms: C_9  and  C_12
REMARK    4  A    between atoms: C_15  and  C_17
REMARK    5  A    between atoms: C_16  and  C_18
REMARK    6  A    between atoms: C_20  and  C_23
REMARK    7  A    between atoms: C_26  and  C_29
REMARK                            x       y       z     vdW  Elec       q    Type
REMARK                         _______ _______ _______ _____ _____    ______ ____
ROOT
ATOM      6  N   UNL     1      -4.163 -12.115  14.585  0.00  0.00    -0.236 N 
ATOM      7  N   UNL     1      -3.365 -13.185  14.431  0.00  0.00    -0.171 NA
ATOM     12  C   UNL     1      -3.665 -12.072  12.459  0.00  0.00    +0.003 A 
ATOM     15  C   UNL     1      -4.374 -11.414  13.434  0.00  0.00    +0.046 A 
ATOM     16  C   UNL     1      -3.065 -13.154  13.130  0.00  0.00    +0.064 A 
ATOM     17  C   UNL     1      -5.217 -10.203  13.365  0.00  0.00    +0.066 C 
ATOM     18  C   UNL     1      -2.188 -14.194  12.564  0.00  0.00    +0.068 C 
ENDROOT
BRANCH   6  19
ATOM     19  C   UNL     1      -4.686 -11.816  15.845  0.00  0.00    +0.066 A 
ATOM     21  C   UNL     1      -5.910 -12.357  16.238  0.00  0.00    +0.028 A 
ATOM     22  C   UNL     1      -3.986 -10.973  16.707  0.00  0.00    +0.028 A 
ATOM     24  C   UNL     1      -6.433 -12.055  17.495  0.00  0.00    +0.014 A 
ATOM     25  C   UNL     1      -4.510 -10.671  17.964  0.00  0.00    +0.014 A 
ATOM     26  C   UNL     1      -5.734 -11.212  18.359  0.00  0.00    +0.055 A 
BRANCH  26  29
ATOM      1  F   UNL     1      -7.574 -11.331  19.882  0.00  0.00    -0.166 F 
ATOM      2  F   UNL     1      -6.332  -9.547  19.947  0.00  0.00    -0.166 F 
ATOM      3  F   UNL     1      -5.582 -11.429  20.736  0.00  0.00    -0.166 F 
ATOM     29  C   UNL     1      -6.294 -10.889  19.702  0.00  0.00    +0.417 C 
ENDBRANCH  26  29
ENDBRANCH   6  19
BRANCH  12   9
ATOM      9  C   UNL     1      -3.557 -11.714  10.995  0.00  0.00    +0.047 C 
ATOM     10  C   UNL     1      -4.918 -11.701  10.268  0.00  0.00    +0.039 C 
ATOM     11  C   UNL     1      -4.826 -10.582   9.223  0.00  0.00    +0.097 C 
ATOM     13  C   UNL     1      -3.035 -10.332  10.723  0.00  0.00    -0.021 C 
ATOM     14  C   UNL     1      -3.727  -9.722   9.756  0.00  0.00    -0.009 C 
BRANCH  11   5
ATOM      4  O   UNL     1      -6.520 -10.742   6.911  0.00  0.00    -0.270 OA
ATOM      5  N   UNL     1      -4.457 -11.067   7.920  0.00  0.00    -0.305 N 
ATOM     20  C   UNL     1      -5.349 -11.108   6.854  0.00  0.00    +0.246 C 
ATOM     32  H   UNL     1      -3.531 -11.469   7.818  0.00  0.00    +0.150 HD
BRANCH  20  23
ATOM      8  N   UNL     1      -5.179 -12.172   3.246  0.00  0.00    -0.263 NA
ATOM     23  C   UNL     1      -4.821 -11.660   5.581  0.00  0.00    +0.055 A 
ATOM     27  C   UNL     1      -3.530 -12.172   5.502  0.00  0.00    +0.016 A 
ATOM     28  C   UNL     1      -5.599 -11.683   4.435  0.00  0.00    +0.123 A 
ATOM     30  C   UNL     1      -3.064 -12.682   4.297  0.00  0.00    +0.020 A 
ATOM     31  C   UNL     1      -3.920 -12.660   3.208  0.00  0.00    +0.111 A 
ENDBRANCH  20  23
ENDBRANCH  11   5
ENDBRANCH  12   9
TORSDOF 5
ENDMDL
MODEL 4
REMARK VINA RESULT:      -7.4      5.884     10.681
REMARK  Name = 40777684
REMARK  7 active torsions:
REMARK  status: ('A' for Active; 'I' for Inactive)
REMARK    1  A    between atoms: N_5  and  C_11
REMARK    2  A    between atoms: N_6  and  C_19
REMARK    3  A    between atoms: C_9  and  C_12
REMARK    4  A    between atoms: C_15  and  C_17
REMARK    5  A    between atoms: C_16  and  C_18
REMARK    6  A    between atoms: C_20  and  C_23
REMARK    7  A    between atoms: C_26  and  C_29
REMARK                            x       y       z     vdW  Elec       q    Type
REMARK                         _______ _______ _______ _____ _____    ______ ____
ROOT
ATOM      6  N   UNL     1      16.672   8.019  21.069  0.00  0.00    -0.236 N 
ATOM      7  N   UNL     1      17.360   8.882  21.835  0.00  0.00    -0.171 NA
ATOM     12  C   UNL     1      18.739   7.347  20.855  0.00  0.00    +0.003 A 
ATOM     15  C   UNL     1      17.451   7.080  20.459  0.00  0.00    +0.046 A 
ATOM     16  C   UNL     1      18.622   8.466  21.701  0.00  0.00    +0.064 A 
ATOM     17  C   UNL     1      16.910   6.030  19.571  0.00  0.00    +0.066 C 
ATOM     18  C   UNL     1      19.699   9.178  22.411  0.00  0.00    +0.068 C 
ENDROOT
BRANCH   6  19
ATOM     19  C   UNL     1      15.286   8.143  20.960  0.00  0.00    +0.066 A 
ATOM     21  C   UNL     1      14.456   7.579  21.928  0.00  0.00    +0.028 A 
ATOM     22  C   UNL     1      14.731   8.828  19.878  0.00  0.00    +0.028 A 
ATOM     24  C   UNL     1      13.071   7.701  21.816  0.00  0.00    +0.014 A 
ATOM     25  C   UNL     1      13.347   8.948  19.765  0.00  0.00    +0.014 A 
ATOM     26  C   UNL     1      12.516   8.386  20.734  0.00  0.00    +0.055 A 
BRANCH  26  29
ATOM      1  F   UNL     1      10.522   9.588  21.285  0.00  0.00    -0.166 F 
ATOM      2  F   UNL     1      10.372   7.427  21.103  0.00  0.00    -0.166 F 
ATOM      3  F   UNL     1      10.601   8.659  19.326  0.00  0.00    -0.166 F 
ATOM     29  C   UNL     1      11.035   8.515  20.614  0.00  0.00    +0.417 C 
ENDBRANCH  26  29
ENDBRANCH   6  19
BRANCH  12   9
ATOM      9  C   UNL     1      19.996   6.604  20.469  0.00  0.00    +0.047 C 
ATOM     10  C   UNL     1      21.030   6.519  21.610  0.00  0.00    +0.039 C 
ATOM     11  C   UNL     1      21.721   5.158  21.451  0.00  0.00    +0.097 C 
ATOM     13  C   UNL     1      19.789   5.159  20.115  0.00  0.00    -0.021 C 
ATOM     14  C   UNL     1      20.732   4.377  20.649  0.00  0.00    -0.009 C 
BRANCH  11   5
ATOM      4  O   UNL     1      23.680   3.081  21.149  0.00  0.00    -0.270 OA
ATOM      5  N   UNL     1      22.958   5.243  20.722  0.00  0.00    -0.305 N 
ATOM     20  C   UNL     1      23.850   4.181  20.631  0.00  0.00    +0.246 C 
ATOM     32  H   UNL     1      23.211   6.149  20.339  0.00  0.00    +0.150 HD
BRANCH  20  23
ATOM      8  N   UNL     1      26.737   6.022  19.060  0.00  0.00    -0.263 NA
ATOM     23  C   UNL     1      25.095   4.439  19.864  0.00  0.00    +0.055 A 
ATOM     27  C   UNL     1      25.782   3.401  19.242  0.00  0.00    +0.016 A 
ATOM     28  C   UNL     1      25.609   5.720  19.744  0.00  0.00    +0.123 A 
ATOM     30  C   UNL     1      26.945   3.673  18.531  0.00  0.00    +0.020 A 
ATOM     31  C   UNL     1      27.376   4.988  18.471  0.00  0.00    +0.111 A 
ENDBRANCH  20  23
ENDBRANCH  11   5
ENDBRANCH  12   9
TORSDOF 5
ENDMDL
MODEL 5
REMARK VINA RESULT:      -7.4     29.174     32.648
REMARK  Name = 40777684
REMARK  7 active torsions:
REMARK  status: ('A' for Active; 'I' for Inactive)
REMARK    1  A    between atoms: N_5  and  C_11
REMARK    2  A    between atoms: N_6  and  C_19
REMARK    3  A    between atoms: C_9  and  C_12
REMARK    4  A    between atoms: C_15  and  C_17
REMARK    5  A    between atoms: C_16  and  C_18
REMARK    6  A    between atoms: C_20  and  C_23
REMARK    7  A    between atoms: C_26  and  C_29
REMARK                            x       y       z     vdW  Elec       q    Type
REMARK                         _______ _______ _______ _____ _____    ______ ____
ROOT
ATOM      6  N   UNL     1      -6.891 -10.344  17.014  0.00  0.00    -0.236 N 
ATOM      7  N   UNL     1      -7.625  -9.240  16.792  0.00  0.00    -0.171 NA
ATOM     12  C   UNL     1      -8.731 -10.727  18.128  0.00  0.00    +0.003 A 
ATOM     15  C   UNL     1      -7.508 -11.266  17.808  0.00  0.00    +0.046 A 
ATOM     16  C   UNL     1      -8.748  -9.481  17.475  0.00  0.00    +0.064 A 
ATOM     17  C   UNL     1      -6.890 -12.554  18.184  0.00  0.00    +0.066 C 
ATOM     18  C   UNL     1      -9.826  -8.476  17.474  0.00  0.00    +0.068 C 
ENDROOT
BRANCH   6  19
ATOM     19  C   UNL     1      -5.621 -10.457  16.446  0.00  0.00    +0.066 A 
ATOM     21  C   UNL     1      -4.490 -10.466  17.262  0.00  0.00    +0.028 A 
ATOM     22  C   UNL     1      -5.484 -10.555  15.062  0.00  0.00    +0.028 A 
ATOM     24  C   UNL     1      -3.222 -10.575  16.693  0.00  0.00    +0.014 A 
ATOM     25  C   UNL     1      -4.215 -10.662  14.493  0.00  0.00    +0.014 A 
ATOM     26  C   UNL     1      -3.083 -10.673  15.309  0.00  0.00    +0.055 A 
BRANCH  26  29
ATOM      1  F   UNL     1      -0.710 -10.542  15.580  0.00  0.00    -0.166 F 
ATOM      2  F   UNL     1      -1.537  -9.916  13.669  0.00  0.00    -0.166 F 
ATOM      3  F   UNL     1      -1.461 -12.026  14.187  0.00  0.00    -0.166 F 
ATOM     29  C   UNL     1      -1.726 -10.788  14.702  0.00  0.00    +0.417 C 
ENDBRANCH  26  29
ENDBRANCH   6  19
BRANCH  12   9
ATOM      9  C   UNL     1      -9.813 -11.340  18.986  0.00  0.00    +0.047 C 
ATOM     10  C   UNL     1     -10.428 -10.346  19.994  0.00  0.00    +0.039 C 
ATOM     11  C   UNL     1     -11.908 -10.733  20.114  0.00  0.00    +0.097 C 
ATOM     13  C   UNL     1     -11.019 -11.819  18.230  0.00  0.00    -0.021 C 
ATOM     14  C   UNL     1     -12.156 -11.489  18.850  0.00  0.00    -0.009 C 
BRANCH  11   5
ATOM      4  O   UNL     1     -14.410 -11.049  21.485  0.00  0.00    -0.270 OA
ATOM      5  N   UNL     1     -12.169 -11.591  21.238  0.00  0.00    -0.305 N 
ATOM     20  C   UNL     1     -13.418 -11.680  21.841  0.00  0.00    +0.246 C 
ATOM     32  H   UNL     1     -11.377 -12.079  21.646  0.00  0.00    +0.150 HD
BRANCH  20  23
ATOM      8  N   UNL     1     -12.716 -14.556  24.168  0.00  0.00    -0.263 NA
ATOM     23  C   UNL     1     -13.518 -12.592  23.008  0.00  0.00    +0.055 A 
ATOM     27  C   UNL     1     -14.457 -12.376  24.010  0.00  0.00    +0.016 A 
ATOM     28  C   UNL     1     -12.678 -13.687  23.133  0.00  0.00    +0.123 A 
ATOM     30  C   UNL     1     -14.527 -13.248  25.090  0.00  0.00    +0.020 A 
ATOM     31  C   UNL     1     -13.642 -14.313  25.122  0.00  0.00    +0.111 A 
ENDBRANCH  20  23
ENDBRANCH  11   5
ENDBRANCH  12   9
TORSDOF 5
ENDMDL
MODEL 6
REMARK VINA RESULT:      -7.3      1.416      2.068
REMARK  Name = 40777684
REMARK  7 active torsions:
REMARK  status: ('A' for Active; 'I' for Inactive)
REMARK    1  A    between atoms: N_5  and  C_11
REMARK    2  A    between atoms: N_6  and  C_19
REMARK    3  A    between atoms: C_9  and  C_12
REMARK    4  A    between atoms: C_15  and  C_17
REMARK    5  A    between atoms: C_16  and  C_18
REMARK    6  A    between atoms: C_20  and  C_23
REMARK    7  A    between atoms: C_26  and  C_29
REMARK                            x       y       z     vdW  Elec       q    Type
REMARK                         _______ _______ _______ _____ _____    ______ ____
ROOT
ATOM      6  N   UNL     1      21.160   5.730  21.873  0.00  0.00    -0.236 N 
ATOM      7  N   UNL     1      21.322   6.711  22.777  0.00  0.00    -0.171 NA
ATOM     12  C   UNL     1      19.479   7.067  21.476  0.00  0.00    +0.003 A 
ATOM     15  C   UNL     1      20.070   5.895  21.069  0.00  0.00    +0.046 A 
ATOM     16  C   UNL     1      20.292   7.525  22.529  0.00  0.00    +0.064 A 
ATOM     17  C   UNL     1      19.696   4.942  20.004  0.00  0.00    +0.066 C 
ATOM     18  C   UNL     1      20.124   8.747  23.335  0.00  0.00    +0.068 C 
ENDROOT
BRANCH   6  19
ATOM     19  C   UNL     1      22.069   4.672  21.829  0.00  0.00    +0.066 A 
ATOM     21  C   UNL     1      22.072   3.711  22.840  0.00  0.00    +0.028 A 
ATOM     22  C   UNL     1      22.978   4.578  20.775  0.00  0.00    +0.028 A 
ATOM     24  C   UNL     1      22.984   2.657  22.797  0.00  0.00    +0.014 A 
ATOM     25  C   UNL     1      23.890   3.525  20.733  0.00  0.00    +0.014 A 
ATOM     26  C   UNL     1      23.893   2.563  21.743  0.00  0.00    +0.055 A 
BRANCH  26  29
ATOM      1  F   UNL     1      26.035   1.745  21.059  0.00  0.00    -0.166 F 
ATOM      2  F   UNL     1      24.375   0.340  21.051  0.00  0.00    -0.166 F 
ATOM      3  F   UNL     1      25.247   0.990  22.934  0.00  0.00    -0.166 F 
ATOM     29  C   UNL     1      24.868   1.436  21.698  0.00  0.00    +0.417 C 
ENDBRANCH  26  29
ENDBRANCH   6  19
BRANCH  12   9
ATOM      9  C   UNL     1      18.235   7.716  20.914  0.00  0.00    +0.047 C 
ATOM     10  C   UNL     1      16.929   7.149  21.510  0.00  0.00    +0.039 C 
ATOM     11  C   UNL     1      15.953   8.330  21.580  0.00  0.00    +0.097 C 
ATOM     13  C   UNL     1      18.108   9.184  21.202  0.00  0.00    -0.021 C 
ATOM     14  C   UNL     1      16.864   9.514  21.560  0.00  0.00    -0.009 C 
BRANCH  11   5
ATOM      4  O   UNL     1      13.220   9.212  21.578  0.00  0.00    -0.270 OA
ATOM      5  N   UNL     1      15.071   8.393  20.445  0.00  0.00    -0.305 N 
ATOM     20  C   UNL     1      13.757   8.835  20.539  0.00  0.00    +0.246 C 
ATOM     32  H   UNL     1      15.415   8.015  19.568  0.00  0.00    +0.150 HD
BRANCH  20  23
ATOM      8  N   UNL     1      10.876   8.354  18.161  0.00  0.00    -0.263 NA
ATOM     23  C   UNL     1      12.969   8.814  19.281  0.00  0.00    +0.055 A 
ATOM     27  C   UNL     1      13.535   9.210  18.074  0.00  0.00    +0.016 A 
ATOM     28  C   UNL     1      11.648   8.398  19.271  0.00  0.00    +0.123 A 
ATOM     30  C   UNL     1      12.773   9.180  16.912  0.00  0.00    +0.020 A 
ATOM     31  C   UNL     1      11.460   8.747  17.008  0.00  0.00    +0.111 A 
ENDBRANCH  20  23
ENDBRANCH  11   5
ENDBRANCH  12   9
TORSDOF 5
ENDMDL
MODEL 7
REMARK VINA RESULT:      -7.3     28.662     30.916
REMARK  Name = 40777684
REMARK  7 active torsions:
REMARK  status: ('A' for Active; 'I' for Inactive)
REMARK    1  A    between atoms: N_5  and  C_11
REMARK    2  A    between atoms: N_6  and  C_19
REMARK    3  A    between atoms: C_9  and  C_12
REMARK    4  A    between atoms: C_15  and  C_17
REMARK    5  A    between atoms: C_16  and  C_18
REMARK    6  A    between atoms: C_20  and  C_23
REMARK    7  A    between atoms: C_26  and  C_29
REMARK                            x       y       z     vdW  Elec       q    Type
REMARK                         _______ _______ _______ _____ _____    ______ ____
ROOT
ATOM      6  N   UNL     1      -4.709 -10.636  13.950  0.00  0.00    -0.236 N 
ATOM      7  N   UNL     1      -3.446 -10.499  13.510  0.00  0.00    -0.171 NA
ATOM     12  C   UNL     1      -4.949 -10.389  11.793  0.00  0.00    +0.003 A 
ATOM     15  C   UNL     1      -5.647 -10.576  12.961  0.00  0.00    +0.046 A 
ATOM     16  C   UNL     1      -3.600 -10.349  12.191  0.00  0.00    +0.064 A 
ATOM     17  C   UNL     1      -7.098 -10.703  13.211  0.00  0.00    +0.066 C 
ATOM     18  C   UNL     1      -2.411 -10.169  11.340  0.00  0.00    +0.068 C 
ENDROOT
BRANCH   6  19
ATOM     19  C   UNL     1      -4.952 -10.816  15.312  0.00  0.00    +0.066 A 
ATOM     21  C   UNL     1      -4.655 -12.037  15.918  0.00  0.00    +0.028 A 
ATOM     22  C   UNL     1      -5.497  -9.777  16.066  0.00  0.00    +0.028 A 
ATOM     24  C   UNL     1      -4.901 -12.217  17.279  0.00  0.00    +0.014 A 
ATOM     25  C   UNL     1      -5.744  -9.958  17.426  0.00  0.00    +0.014 A 
ATOM     26  C   UNL     1      -5.446 -11.178  18.034  0.00  0.00    +0.055 A 
BRANCH  26  29
ATOM      1  F   UNL     1      -4.617 -11.788  20.193  0.00  0.00    -0.166 F 
ATOM      2  F   UNL     1      -6.676 -12.307  19.727  0.00  0.00    -0.166 F 
ATOM      3  F   UNL     1      -6.134 -10.239  20.123  0.00  0.00    -0.166 F 
ATOM     29  C   UNL     1      -5.710 -11.373  19.488  0.00  0.00    +0.417 C 
ENDBRANCH  26  29
ENDBRANCH   6  19
BRANCH  12   9
ATOM      9  C   UNL     1      -5.507 -10.256  10.395  0.00  0.00    +0.047 C 
ATOM     10  C   UNL     1      -4.754  -9.223   9.532  0.00  0.00    +0.039 C 
ATOM     11  C   UNL     1      -4.777  -9.774   8.101  0.00  0.00    +0.097 C 
ATOM     13  C   UNL     1      -5.413 -11.501   9.560  0.00  0.00    -0.021 C 
ATOM     14  C   UNL     1      -5.019 -11.233   8.311  0.00  0.00    -0.009 C 
BRANCH  11   5
ATOM      4  O   UNL     1      -5.559 -10.598   5.464  0.00  0.00    -0.270 OA
ATOM      5  N   UNL     1      -5.848  -9.227   7.311  0.00  0.00    -0.305 N 
ATOM     20  C   UNL     1      -6.155  -9.691   6.037  0.00  0.00    +0.246 C 
ATOM     32  H   UNL     1      -6.332  -8.414   7.682  0.00  0.00    +0.150 HD
BRANCH  20  23
ATOM      8  N   UNL     1      -8.937  -7.249   5.342  0.00  0.00    -0.263 NA
ATOM     23  C   UNL     1      -7.272  -9.003   5.343  0.00  0.00    +0.055 A 
ATOM     27  C   UNL     1      -7.709  -9.426   4.092  0.00  0.00    +0.016 A 
ATOM     28  C   UNL     1      -7.914  -7.919   5.921  0.00  0.00    +0.123 A 
ATOM     30  C   UNL     1      -8.757  -8.762   3.467  0.00  0.00    +0.020 A 
ATOM     31  C   UNL     1      -9.333  -7.689   4.128  0.00  0.00    +0.111 A 
ENDBRANCH  20  23
ENDBRANCH  11   5
ENDBRANCH  12   9
TORSDOF 5
ENDMDL
MODEL 8
REMARK VINA RESULT:      -7.2     15.264     18.749
REMARK  Name = 40777684
REMARK  7 active torsions:
REMARK  status: ('A' for Active; 'I' for Inactive)
REMARK    1  A    between atoms: N_5  and  C_11
REMARK    2  A    between atoms: N_6  and  C_19
REMARK    3  A    between atoms: C_9  and  C_12
REMARK    4  A    between atoms: C_15  and  C_17
REMARK    5  A    between atoms: C_16  and  C_18
REMARK    6  A    between atoms: C_20  and  C_23
REMARK    7  A    between atoms: C_26  and  C_29
REMARK                            x       y       z     vdW  Elec       q    Type
REMARK                         _______ _______ _______ _____ _____    ______ ____
ROOT
ATOM      6  N   UNL     1      12.557   5.894   2.473  0.00  0.00    -0.236 N 
ATOM      7  N   UNL     1      13.627   6.698   2.599  0.00  0.00    -0.171 NA
ATOM     12  C   UNL     1      12.241   6.857   4.407  0.00  0.00    +0.003 A 
ATOM     15  C   UNL     1      11.696   5.952   3.530  0.00  0.00    +0.046 A 
ATOM     16  C   UNL     1      13.428   7.284   3.783  0.00  0.00    +0.064 A 
ATOM     17  C   UNL     1      10.454   5.157   3.608  0.00  0.00    +0.066 C 
ATOM     18  C   UNL     1      14.412   8.259   4.282  0.00  0.00    +0.068 C 
ENDROOT
BRANCH   6  19
ATOM     19  C   UNL     1      12.416   5.103   1.332  0.00  0.00    +0.066 A 
ATOM     21  C   UNL     1      11.579   5.515   0.295  0.00  0.00    +0.028 A 
ATOM     22  C   UNL     1      13.109   3.897   1.231  0.00  0.00    +0.028 A 
ATOM     24  C   UNL     1      11.436   4.721  -0.843  0.00  0.00    +0.014 A 
ATOM     25  C   UNL     1      12.965   3.103   0.094  0.00  0.00    +0.014 A 
ATOM     26  C   UNL     1      12.129   3.515  -0.944  0.00  0.00    +0.055 A 
BRANCH  26  29
ATOM      1  F   UNL     1      10.727   2.720  -2.711  0.00  0.00    -0.166 F 
ATOM      2  F   UNL     1      12.209   1.345  -1.912  0.00  0.00    -0.166 F 
ATOM      3  F   UNL     1      12.827   3.005  -3.174  0.00  0.00    -0.166 F 
ATOM     29  C   UNL     1      11.975   2.666  -2.160  0.00  0.00    +0.417 C 
ENDBRANCH  26  29
ENDBRANCH   6  19
BRANCH  12   9
ATOM      9  C   UNL     1      11.687   7.296   5.743  0.00  0.00    +0.047 C 
ATOM     10  C   UNL     1      10.555   8.337   5.622  0.00  0.00    +0.039 C 
ATOM     11  C   UNL     1       9.584   8.036   6.771  0.00  0.00    +0.097 C 
ATOM     13  C   UNL     1      11.035   6.204   6.542  0.00  0.00    -0.021 C 
ATOM     14  C   UNL     1       9.893   6.613   7.103  0.00  0.00    -0.009 C 
BRANCH  11   5
ATOM      4  O   UNL     1       9.100  10.856   7.011  0.00  0.00    -0.270 OA
ATOM      5  N   UNL     1       9.823   8.854   7.930  0.00  0.00    -0.305 N 
ATOM     20  C   UNL     1       9.558  10.218   7.955  0.00  0.00    +0.246 C 
ATOM     32  H   UNL     1      10.284   8.416   8.722  0.00  0.00    +0.150 HD
BRANCH  20  23
ATOM      8  N   UNL     1      11.560  11.880  10.678  0.00  0.00    -0.263 NA
ATOM     23  C   UNL     1       9.885  10.925   9.219  0.00  0.00    +0.055 A 
ATOM     27  C   UNL     1       8.886  11.292  10.114  0.00  0.00    +0.016 A 
ATOM     28  C   UNL     1      11.195  11.239   9.544  0.00  0.00    +0.123 A 
ATOM     30  C   UNL     1       9.223  11.953  11.290  0.00  0.00    +0.020 A 
ATOM     31  C   UNL     1      10.563  12.221  11.523  0.00  0.00    +0.111 A 
ENDBRANCH  20  23
ENDBRANCH  11   5
ENDBRANCH  12   9
TORSDOF 5
ENDMDL
MODEL 9
REMARK VINA RESULT:      -7.0     15.845     18.894
REMARK  Name = 40777684
REMARK  7 active torsions:
REMARK  status: ('A' for Active; 'I' for Inactive)
REMARK    1  A    between atoms: N_5  and  C_11
REMARK    2  A    between atoms: N_6  and  C_19
REMARK    3  A    between atoms: C_9  and  C_12
REMARK    4  A    between atoms: C_15  and  C_17
REMARK    5  A    between atoms: C_16  and  C_18
REMARK    6  A    between atoms: C_20  and  C_23
REMARK    7  A    between atoms: C_26  and  C_29
REMARK                            x       y       z     vdW  Elec       q    Type
REMARK                         _______ _______ _______ _____ _____    ______ ____
ROOT
ATOM      6  N   UNL     1      10.583   5.122   3.404  0.00  0.00    -0.236 N 
ATOM      7  N   UNL     1      10.431   4.263   4.427  0.00  0.00    -0.171 NA
ATOM     12  C   UNL     1       9.858   6.391   5.027  0.00  0.00    +0.003 A 
ATOM     15  C   UNL     1      10.252   6.409   3.712  0.00  0.00    +0.046 A 
ATOM     16  C   UNL     1       9.989   5.045   5.416  0.00  0.00    +0.064 A 
ATOM     17  C   UNL     1      10.342   7.522   2.744  0.00  0.00    +0.066 C 
ATOM     18  C   UNL     1       9.700   4.452   6.734  0.00  0.00    +0.068 C 
ENDROOT
BRANCH   6  19
ATOM     19  C   UNL     1      11.042   4.655   2.171  0.00  0.00    +0.066 A 
ATOM     21  C   UNL     1      10.259   4.820   1.028  0.00  0.00    +0.028 A 
ATOM     22  C   UNL     1      12.280   4.020   2.084  0.00  0.00    +0.028 A 
ATOM     24  C   UNL     1      10.717   4.350  -0.203  0.00  0.00    +0.014 A 
ATOM     25  C   UNL     1      12.737   3.550   0.853  0.00  0.00    +0.014 A 
ATOM     26  C   UNL     1      11.956   3.715  -0.291  0.00  0.00    +0.055 A 
BRANCH  26  29
ATOM      1  F   UNL     1      11.730   3.683  -2.673  0.00  0.00    -0.166 F 
ATOM      2  F   UNL     1      12.390   1.852  -1.703  0.00  0.00    -0.166 F 
ATOM      3  F   UNL     1      13.742   3.547  -1.873  0.00  0.00    -0.166 F 
ATOM     29  C   UNL     1      12.444   3.213  -1.607  0.00  0.00    +0.417 C 
ENDBRANCH  26  29
ENDBRANCH   6  19
BRANCH  12   9
ATOM      9  C   UNL     1       9.390   7.557   5.866  0.00  0.00    +0.047 C 
ATOM     10  C   UNL     1      10.463   8.652   6.042  0.00  0.00    +0.039 C 
ATOM     11  C   UNL     1       9.702   9.983   6.080  0.00  0.00    +0.097 C 
ATOM     13  C   UNL     1       8.238   8.327   5.286  0.00  0.00    -0.021 C 
ATOM     14  C   UNL     1       8.411   9.647   5.408  0.00  0.00    -0.009 C 
BRANCH  11   5
ATOM      4  O   UNL     1       9.274  12.693   6.926  0.00  0.00    -0.270 OA
ATOM      5  N   UNL     1       9.435  10.433   7.420  0.00  0.00    -0.305 N 
ATOM     20  C   UNL     1       9.240  11.772   7.738  0.00  0.00    +0.246 C 
ATOM     32  H   UNL     1       9.478   9.740   8.161  0.00  0.00    +0.150 HD
BRANCH  20  23
ATOM      8  N   UNL     1       9.626  11.751  11.484  0.00  0.00    -0.263 NA
ATOM     23  C   UNL     1       9.000  12.075   9.171  0.00  0.00    +0.055 A 
ATOM     27  C   UNL     1       7.973  12.928   9.562  0.00  0.00    +0.016 A 
ATOM     28  C   UNL     1       9.792  11.517  10.163  0.00  0.00    +0.123 A 
ATOM     30  C   UNL     1       7.772  13.192  10.912  0.00  0.00    +0.020 A 
ATOM     31  C   UNL     1       8.618  12.584  11.825  0.00  0.00    +0.111 A 
ENDBRANCH  20  23
ENDBRANCH  11   5
ENDBRANCH  12   9
TORSDOF 5
ENDMDL
MODEL 10
REMARK VINA RESULT:      -7.0     33.895     35.280
REMARK  Name = 40777684
REMARK  7 active torsions:
REMARK  status: ('A' for Active; 'I' for Inactive)
REMARK    1  A    between atoms: N_5  and  C_11
REMARK    2  A    between atoms: N_6  and  C_19
REMARK    3  A    between atoms: C_9  and  C_12
REMARK    4  A    between atoms: C_15  and  C_17
REMARK    5  A    between atoms: C_16  and  C_18
REMARK    6  A    between atoms: C_20  and  C_23
REMARK    7  A    between atoms: C_26  and  C_29
REMARK                            x       y       z     vdW  Elec       q    Type
REMARK                         _______ _______ _______ _____ _____    ______ ____
ROOT
ATOM      6  N   UNL     1     -12.352   8.171  35.366  0.00  0.00    -0.236 N 
ATOM      7  N   UNL     1     -12.179   9.033  34.350  0.00  0.00    -0.171 NA
ATOM     12  C   UNL     1     -13.522   7.287  33.748  0.00  0.00    +0.003 A 
ATOM     15  C   UNL     1     -13.149   7.108  35.058  0.00  0.00    +0.046 A 
ATOM     16  C   UNL     1     -12.896   8.487  33.364  0.00  0.00    +0.064 A 
ATOM     17  C   UNL     1     -13.477   6.035  36.019  0.00  0.00    +0.066 C 
ATOM     18  C   UNL     1     -12.953   9.157  32.053  0.00  0.00    +0.068 C 
ENDROOT
BRANCH   6  19
ATOM     19  C   UNL     1     -11.738   8.417  36.595  0.00  0.00    +0.066 A 
ATOM     21  C   UNL     1     -10.536   7.785  36.914  0.00  0.00    +0.028 A 
ATOM     22  C   UNL     1     -12.329   9.292  37.506  0.00  0.00    +0.028 A 
ATOM     24  C   UNL     1      -9.925   8.029  38.143  0.00  0.00    +0.014 A 
ATOM     25  C   UNL     1     -11.719   9.535  38.736  0.00  0.00    +0.014 A 
ATOM     26  C   UNL     1     -10.516   8.904  39.055  0.00  0.00    +0.055 A 
BRANCH  26  29
ATOM      1  F   UNL     1     -10.621   8.789  41.443  0.00  0.00    -0.166 F 
ATOM      2  F   UNL     1      -9.579  10.484  40.565  0.00  0.00    -0.166 F 
ATOM      3  F   UNL     1      -8.673   8.508  40.529  0.00  0.00    -0.166 F 
ATOM     29  C   UNL     1      -9.862   9.163  40.370  0.00  0.00    +0.417 C 
ENDBRANCH  26  29
ENDBRANCH   6  19
BRANCH  12   9
ATOM      9  C   UNL     1     -14.406   6.392  32.910  0.00  0.00    +0.047 C 
ATOM     10  C   UNL     1     -13.896   4.939  32.823  0.00  0.00    +0.039 C 
ATOM     11  C   UNL     1     -15.149   4.056  32.771  0.00  0.00    +0.097 C 
ATOM     13  C   UNL     1     -15.800   6.212  33.440  0.00  0.00    -0.021 C 
ATOM     14  C   UNL     1     -16.201   4.939  33.359  0.00  0.00    -0.009 C 
BRANCH  11   5
ATOM      4  O   UNL     1     -15.020   1.444  31.585  0.00  0.00    -0.270 OA
ATOM      5  N   UNL     1     -15.526   3.702  31.428  0.00  0.00    -0.305 N 
ATOM     20  C   UNL     1     -15.428   2.405  30.938  0.00  0.00    +0.246 C 
ATOM     32  H   UNL     1     -15.790   4.458  30.804  0.00  0.00    +0.150 HD
BRANCH  20  23
ATOM      8  N   UNL     1     -16.720   0.751  27.811  0.00  0.00    -0.263 NA
ATOM     23  C   UNL     1     -15.831   2.209  29.523  0.00  0.00    +0.055 A 
ATOM     27  C   UNL     1     -15.715   3.238  28.595  0.00  0.00    +0.016 A 
ATOM     28  C   UNL     1     -16.335   0.995  29.085  0.00  0.00    +0.123 A 
ATOM     30  C   UNL     1     -16.101   3.025  27.277  0.00  0.00    +0.020 A 
ATOM     31  C   UNL     1     -16.592   1.775  26.939  0.00  0.00    +0.111 A 
ENDBRANCH  20  23
ENDBRANCH  11   5
ENDBRANCH  12   9
TORSDOF 5
ENDMDL
