MODEL 1
REMARK VINA RESULT:      -6.3      0.000      0.000
REMARK  Name = 11943194
REMARK  10 active torsions:
REMARK  status: ('A' for Active; 'I' for Inactive)
REMARK    1  A    between atoms: O_1  and  C_15
REMARK    2  A    between atoms: O_1  and  C_17
REMARK    3  A    between atoms: O_3  and  C_21
REMARK    4  A    between atoms: O_3  and  C_24
REMARK    5  A    between atoms: O_4  and  C_22
REMARK    6  A    between atoms: O_4  and  C_25
REMARK    7  A    between atoms: N_6  and  C_18
REMARK    8  A    between atoms: C_8  and  C_14
REMARK    9  A    between atoms: C_10  and  C_15
REMARK   10  A    between atoms: C_14  and  C_16
REMARK                            x       y       z     vdW  Elec       q    Type
REMARK                         _______ _______ _______ _____ _____    ______ ____
ROOT
ATOM      2  O   UNL     1      17.011   5.433  18.815  0.00  0.00    -0.226 OA
ATOM      6  N   UNL     1      16.063   7.218  19.997  0.00  0.00    -0.251 N 
ATOM     17  C   UNL     1      17.051   6.309  19.670  0.00  0.00    +0.405 C 
ATOM     26  H   UNL     1      16.286   7.873  20.742  0.00  0.00    +0.158 HD
ENDROOT
BRANCH   6  18
ATOM     18  C   UNL     1      14.779   7.351  19.421  0.00  0.00    +0.043 A 
ATOM     19  C   UNL     1      14.667   7.708  18.087  0.00  0.00    +0.069 A 
ATOM     20  C   UNL     1      13.657   7.123  20.202  0.00  0.00    +0.069 A 
ATOM     21  C   UNL     1      12.391   7.254  19.634  0.00  0.00    +0.125 A 
ATOM     22  C   UNL     1      13.400   7.839  17.518  0.00  0.00    +0.125 A 
ATOM     23  C   UNL     1      12.262   7.612  18.291  0.00  0.00    +0.091 A 
BRANCH  21   3
ATOM      3  O   UNL     1      11.279   7.033  20.388  0.00  0.00    -0.495 OA
ATOM     24  C   UNL     1      11.396   6.096  21.459  0.00  0.00    +0.277 C 
ENDBRANCH  21   3
BRANCH  22   4
ATOM      4  O   UNL     1      13.274   8.189  16.209  0.00  0.00    -0.495 OA
ATOM     25  C   UNL     1      12.606   9.417  15.927  0.00  0.00    +0.277 C 
ENDBRANCH  22   4
ENDBRANCH   6  18
BRANCH  17   1
ATOM      1  O   UNL     1      18.150   6.521  20.473  0.00  0.00    -0.449 OA
BRANCH   1  15
ATOM     15  C   UNL     1      18.362   7.846  20.924  0.00  0.00    +0.252 C 
BRANCH  15  10
ATOM      5  N   UNL     1      20.780   8.321  21.395  0.00  0.00    -0.296 NA
ATOM      7  C   UNL     1      21.162   6.094  22.683  0.00  0.00    -0.004 C 
ATOM      8  C   UNL     1      21.752   6.014  21.257  0.00  0.00    +0.006 C 
ATOM      9  C   UNL     1      19.663   6.433  22.597  0.00  0.00    +0.026 C 
ATOM     10  C   UNL     1      19.492   7.829  21.956  0.00  0.00    +0.094 C 
ATOM     11  C   UNL     1      21.370   7.303  20.494  0.00  0.00    +0.088 C 
ATOM     12  C   UNL     1      21.857   7.273  23.391  0.00  0.00    +0.019 C 
ATOM     13  C   UNL     1      21.716   8.538  22.526  0.00  0.00    +0.085 C 
BRANCH   8  14
ATOM     14  C   UNL     1      21.324   4.762  20.496  0.00  0.00    +0.002 C 
ATOM     16  C   UNL     1      21.670   3.502  21.265  0.00  0.00    +0.004 C 
ENDBRANCH   8  14
ENDBRANCH  15  10
ENDBRANCH   1  15
ENDBRANCH  17   1
TORSDOF 7
ENDMDL
MODEL 2
REMARK VINA RESULT:      -6.1     15.223     18.999
REMARK  Name = 11943194
REMARK  10 active torsions:
REMARK  status: ('A' for Active; 'I' for Inactive)
REMARK    1  A    between atoms: O_1  and  C_15
REMARK    2  A    between atoms: O_1  and  C_17
REMARK    3  A    between atoms: O_3  and  C_21
REMARK    4  A    between atoms: O_3  and  C_24
REMARK    5  A    between atoms: O_4  and  C_22
REMARK    6  A    between atoms: O_4  and  C_25
REMARK    7  A    between atoms: N_6  and  C_18
REMARK    8  A    between atoms: C_8  and  C_14
REMARK    9  A    between atoms: C_10  and  C_15
REMARK   10  A    between atoms: C_14  and  C_16
REMARK                            x       y       z     vdW  Elec       q    Type
REMARK                         _______ _______ _______ _____ _____    ______ ____
ROOT
ATOM      2  O   UNL     1      10.532   7.936   1.351  0.00  0.00    -0.226 OA
ATOM      6  N   UNL     1      10.048   5.776   2.113  0.00  0.00    -0.251 N 
ATOM     17  C   UNL     1       9.929   7.151   2.073  0.00  0.00    +0.405 C 
ATOM     26  H   UNL     1       9.457   5.294   2.787  0.00  0.00    +0.158 HD
ENDROOT
BRANCH   6  18
ATOM     18  C   UNL     1      10.889   4.952   1.330  0.00  0.00    +0.043 A 
ATOM     19  C   UNL     1      11.976   4.333   1.925  0.00  0.00    +0.069 A 
ATOM     20  C   UNL     1      10.610   4.780  -0.016  0.00  0.00    +0.069 A 
ATOM     21  C   UNL     1      11.440   3.968  -0.788  0.00  0.00    +0.125 A 
ATOM     22  C   UNL     1      12.806   3.520   1.153  0.00  0.00    +0.125 A 
ATOM     23  C   UNL     1      12.539   3.337  -0.203  0.00  0.00    +0.091 A 
BRANCH  21   3
ATOM      3  O   UNL     1      11.180   3.791  -2.112  0.00  0.00    -0.495 OA
ATOM     24  C   UNL     1      11.093   2.446  -2.582  0.00  0.00    +0.277 C 
ENDBRANCH  21   3
BRANCH  22   4
ATOM      4  O   UNL     1      13.879   2.904   1.724  0.00  0.00    -0.495 OA
ATOM     25  C   UNL     1      15.141   3.558   1.604  0.00  0.00    +0.277 C 
ENDBRANCH  22   4
ENDBRANCH   6  18
BRANCH  17   1
ATOM      1  O   UNL     1       8.995   7.556   3.002  0.00  0.00    -0.449 OA
BRANCH   1  15
ATOM     15  C   UNL     1       8.899   6.785   4.184  0.00  0.00    +0.252 C 
BRANCH  15  10
ATOM      5  N   UNL     1      10.422   7.915   5.827  0.00  0.00    -0.296 NA
ATOM      7  C   UNL     1       8.907   7.396   7.876  0.00  0.00    -0.004 C 
ATOM      8  C   UNL     1      10.125   6.446   7.837  0.00  0.00    +0.006 C 
ATOM      9  C   UNL     1       8.119   7.271   6.560  0.00  0.00    +0.026 C 
ATOM     10  C   UNL     1       9.013   7.727   5.385  0.00  0.00    +0.094 C 
ATOM     11  C   UNL     1      10.907   6.702   6.528  0.00  0.00    +0.088 C 
ATOM     12  C   UNL     1       9.461   8.833   7.942  0.00  0.00    +0.019 C 
ATOM     13  C   UNL     1      10.452   9.047   6.785  0.00  0.00    +0.085 C 
BRANCH   8  14
ATOM     14  C   UNL     1       9.747   4.974   7.988  0.00  0.00    +0.002 C 
ATOM     16  C   UNL     1       9.342   4.651   9.413  0.00  0.00    +0.004 C 
ENDBRANCH   8  14
ENDBRANCH  15  10
ENDBRANCH   1  15
ENDBRANCH  17   1
TORSDOF 7
ENDMDL
MODEL 3
REMARK VINA RESULT:      -6.1      0.587      2.414
REMARK  Name = 11943194
REMARK  10 active torsions:
REMARK  status: ('A' for Active; 'I' for Inactive)
REMARK    1  A    between atoms: O_1  and  C_15
REMARK    2  A    between atoms: O_1  and  C_17
REMARK    3  A    between atoms: O_3  and  C_21
REMARK    4  A    between atoms: O_3  and  C_24
REMARK    5  A    between atoms: O_4  and  C_22
REMARK    6  A    between atoms: O_4  and  C_25
REMARK    7  A    between atoms: N_6  and  C_18
REMARK    8  A    between atoms: C_8  and  C_14
REMARK    9  A    between atoms: C_10  and  C_15
REMARK   10  A    between atoms: C_14  and  C_16
REMARK                            x       y       z     vdW  Elec       q    Type
REMARK                         _______ _______ _______ _____ _____    ______ ____
ROOT
ATOM      2  O   UNL     1      16.860   5.533  18.967  0.00  0.00    -0.226 OA
ATOM      6  N   UNL     1      16.190   7.524  20.000  0.00  0.00    -0.251 N 
ATOM     17  C   UNL     1      17.069   6.509  19.678  0.00  0.00    +0.405 C 
ATOM     26  H   UNL     1      16.552   8.253  20.610  0.00  0.00    +0.158 HD
ENDROOT
BRANCH   6  18
ATOM     18  C   UNL     1      14.847   7.676  19.586  0.00  0.00    +0.043 A 
ATOM     19  C   UNL     1      13.864   6.894  20.169  0.00  0.00    +0.069 A 
ATOM     20  C   UNL     1      14.540   8.605  18.604  0.00  0.00    +0.069 A 
ATOM     21  C   UNL     1      13.216   8.755  18.195  0.00  0.00    +0.125 A 
ATOM     22  C   UNL     1      12.539   7.044  19.761  0.00  0.00    +0.125 A 
ATOM     23  C   UNL     1      12.214   7.975  18.774  0.00  0.00    +0.091 A 
BRANCH  21   3
ATOM      3  O   UNL     1      12.899   9.663  17.231  0.00  0.00    -0.495 OA
ATOM     24  C   UNL     1      12.000   9.236  16.208  0.00  0.00    +0.277 C 
ENDBRANCH  21   3
BRANCH  22   4
ATOM      4  O   UNL     1      11.561   6.282  20.324  0.00  0.00    -0.495 OA
ATOM     25  C   UNL     1      11.008   6.743  21.555  0.00  0.00    +0.277 C 
ENDBRANCH  22   4
ENDBRANCH   6  18
BRANCH  17   1
ATOM      1  O   UNL     1      18.281   6.741  20.291  0.00  0.00    -0.449 OA
BRANCH   1  15
ATOM     15  C   UNL     1      18.468   8.022  20.862  0.00  0.00    +0.252 C 
BRANCH  15  10
ATOM      5  N   UNL     1      20.894   8.338  21.419  0.00  0.00    -0.296 NA
ATOM      7  C   UNL     1      21.094   6.072  22.680  0.00  0.00    -0.004 C 
ATOM      8  C   UNL     1      21.726   5.978  21.272  0.00  0.00    +0.006 C 
ATOM      9  C   UNL     1      19.623   6.506  22.552  0.00  0.00    +0.026 C 
ATOM     10  C   UNL     1      19.560   7.919  21.929  0.00  0.00    +0.094 C 
ATOM     11  C   UNL     1      21.450   7.299  20.520  0.00  0.00    +0.088 C 
ATOM     12  C   UNL     1      21.837   7.195  23.430  0.00  0.00    +0.019 C 
ATOM     13  C   UNL     1      21.803   8.479  22.582  0.00  0.00    +0.085 C 
BRANCH   8  14
ATOM     14  C   UNL     1      21.246   4.766  20.476  0.00  0.00    +0.002 C 
ATOM     16  C   UNL     1      21.580   3.470  21.188  0.00  0.00    +0.004 C 
ENDBRANCH   8  14
ENDBRANCH  15  10
ENDBRANCH   1  15
ENDBRANCH  17   1
TORSDOF 7
ENDMDL
MODEL 4
REMARK VINA RESULT:      -6.1     28.009     29.387
REMARK  Name = 11943194
REMARK  10 active torsions:
REMARK  status: ('A' for Active; 'I' for Inactive)
REMARK    1  A    between atoms: O_1  and  C_15
REMARK    2  A    between atoms: O_1  and  C_17
REMARK    3  A    between atoms: O_3  and  C_21
REMARK    4  A    between atoms: O_3  and  C_24
REMARK    5  A    between atoms: O_4  and  C_22
REMARK    6  A    between atoms: O_4  and  C_25
REMARK    7  A    between atoms: N_6  and  C_18
REMARK    8  A    between atoms: C_8  and  C_14
REMARK    9  A    between atoms: C_10  and  C_15
REMARK   10  A    between atoms: C_14  and  C_16
REMARK                            x       y       z     vdW  Elec       q    Type
REMARK                         _______ _______ _______ _____ _____    ______ ____
ROOT
ATOM      2  O   UNL     1      -3.380 -12.620  14.362  0.00  0.00    -0.226 OA
ATOM      6  N   UNL     1      -3.557 -10.361  14.953  0.00  0.00    -0.251 N 
ATOM     17  C   UNL     1      -3.080 -11.439  14.233  0.00  0.00    +0.405 C 
ATOM     26  H   UNL     1      -3.185  -9.450  14.698  0.00  0.00    +0.158 HD
ENDROOT
BRANCH   6  18
ATOM     18  C   UNL     1      -4.504 -10.368  16.004  0.00  0.00    +0.043 A 
ATOM     19  C   UNL     1      -5.722  -9.733  15.823  0.00  0.00    +0.069 A 
ATOM     20  C   UNL     1      -4.194 -11.008  17.193  0.00  0.00    +0.069 A 
ATOM     21  C   UNL     1      -5.128 -11.015  18.229  0.00  0.00    +0.125 A 
ATOM     22  C   UNL     1      -6.656  -9.740  16.860  0.00  0.00    +0.125 A 
ATOM     23  C   UNL     1      -6.360 -10.380  18.062  0.00  0.00    +0.091 A 
BRANCH  21   3
ATOM      3  O   UNL     1      -4.838 -11.639  19.403  0.00  0.00    -0.495 OA
ATOM     24  C   UNL     1      -3.560 -12.266  19.507  0.00  0.00    +0.277 C 
ENDBRANCH  21   3
BRANCH  22   4
ATOM      4  O   UNL     1      -7.858  -9.121  16.698  0.00  0.00    -0.495 OA
ATOM     25  C   UNL     1      -8.880  -9.853  16.025  0.00  0.00    +0.277 C 
ENDBRANCH  22   4
ENDBRANCH   6  18
BRANCH  17   1
ATOM      1  O   UNL     1      -2.169 -10.996  13.299  0.00  0.00    -0.449 OA
BRANCH   1  15
ATOM     15  C   UNL     1      -2.534 -11.139  11.939  0.00  0.00    +0.252 C 
BRANCH  15  10
ATOM      5  N   UNL     1      -4.857 -10.225  11.688  0.00  0.00    -0.296 NA
ATOM      7  C   UNL     1      -4.383  -9.141   9.371  0.00  0.00    -0.004 C 
ATOM      8  C   UNL     1      -5.190 -10.451   9.213  0.00  0.00    +0.006 C 
ATOM      9  C   UNL     1      -3.073  -9.437  10.122  0.00  0.00    +0.026 C 
ATOM     10  C   UNL     1      -3.403  -9.942  11.545  0.00  0.00    +0.094 C 
ATOM     11  C   UNL     1      -5.316 -11.121  10.600  0.00  0.00    +0.088 C 
ATOM     12  C   UNL     1      -5.220  -8.205  10.264  0.00  0.00    +0.019 C 
ATOM     13  C   UNL     1      -5.585  -8.938  11.566  0.00  0.00    +0.085 C 
BRANCH   8  14
ATOM     14  C   UNL     1      -4.597 -11.404   8.178  0.00  0.00    +0.002 C 
ATOM     16  C   UNL     1      -4.986 -11.002   6.770  0.00  0.00    +0.004 C 
ENDBRANCH   8  14
ENDBRANCH  15  10
ENDBRANCH   1  15
ENDBRANCH  17   1
TORSDOF 7
ENDMDL
MODEL 5
REMARK VINA RESULT:      -6.0     26.872     29.669
REMARK  Name = 11943194
REMARK  10 active torsions:
REMARK  status: ('A' for Active; 'I' for Inactive)
REMARK    1  A    between atoms: O_1  and  C_15
REMARK    2  A    between atoms: O_1  and  C_17
REMARK    3  A    between atoms: O_3  and  C_21
REMARK    4  A    between atoms: O_3  and  C_24
REMARK    5  A    between atoms: O_4  and  C_22
REMARK    6  A    between atoms: O_4  and  C_25
REMARK    7  A    between atoms: N_6  and  C_18
REMARK    8  A    between atoms: C_8  and  C_14
REMARK    9  A    between atoms: C_10  and  C_15
REMARK   10  A    between atoms: C_14  and  C_16
REMARK                            x       y       z     vdW  Elec       q    Type
REMARK                         _______ _______ _______ _____ _____    ______ ____
ROOT
ATOM      2  O   UNL     1      -8.005 -11.250  13.844  0.00  0.00    -0.226 OA
ATOM      6  N   UNL     1      -6.355  -9.639  14.247  0.00  0.00    -0.251 N 
ATOM     17  C   UNL     1      -7.375 -10.245  13.539  0.00  0.00    +0.405 C 
ATOM     26  H   UNL     1      -5.952  -8.805  13.827  0.00  0.00    +0.158 HD
ENDROOT
BRANCH   6  18
ATOM     18  C   UNL     1      -5.803 -10.034  15.487  0.00  0.00    +0.043 A 
ATOM     19  C   UNL     1      -4.465 -10.388  15.551  0.00  0.00    +0.069 A 
ATOM     20  C   UNL     1      -6.609 -10.060  16.614  0.00  0.00    +0.069 A 
ATOM     21  C   UNL     1      -6.064 -10.450  17.836  0.00  0.00    +0.125 A 
ATOM     22  C   UNL     1      -3.919 -10.778  16.775  0.00  0.00    +0.125 A 
ATOM     23  C   UNL     1      -4.718 -10.809  17.917  0.00  0.00    +0.091 A 
BRANCH  21   3
ATOM      3  O   UNL     1      -6.844 -10.481  18.951  0.00  0.00    -0.495 OA
ATOM     24  C   UNL     1      -6.843 -11.690  19.710  0.00  0.00    +0.277 C 
ENDBRANCH  21   3
BRANCH  22   4
ATOM      4  O   UNL     1      -2.606 -11.129  16.854  0.00  0.00    -0.495 OA
ATOM     25  C   UNL     1      -1.719 -10.546  15.901  0.00  0.00    +0.277 C 
ENDBRANCH  22   4
ENDBRANCH   6  18
BRANCH  17   1
ATOM      1  O   UNL     1      -7.608  -9.538  12.379  0.00  0.00    -0.449 OA
BRANCH   1  15
ATOM     15  C   UNL     1      -6.552  -8.722  11.910  0.00  0.00    +0.252 C 
BRANCH  15  10
ATOM      5  N   UNL     1      -6.018 -10.532  10.257  0.00  0.00    -0.296 NA
ATOM      7  C   UNL     1      -4.208  -9.130   9.022  0.00  0.00    -0.004 C 
ATOM      8  C   UNL     1      -3.555 -10.180   9.949  0.00  0.00    +0.006 C 
ATOM      9  C   UNL     1      -5.139  -8.227   9.850  0.00  0.00    +0.026 C 
ATOM     10  C   UNL     1      -6.280  -9.079  10.447  0.00  0.00    +0.094 C 
ATOM     11  C   UNL     1      -4.668 -10.880  10.761  0.00  0.00    +0.088 C 
ATOM     12  C   UNL     1      -5.093  -9.903   8.024  0.00  0.00    +0.019 C 
ATOM     13  C   UNL     1      -6.056 -10.816   8.802  0.00  0.00    +0.085 C 
BRANCH   8  14
ATOM     14  C   UNL     1      -2.478  -9.594  10.859  0.00  0.00    +0.002 C 
ATOM     16  C   UNL     1      -2.110 -10.556  11.972  0.00  0.00    +0.004 C 
ENDBRANCH   8  14
ENDBRANCH  15  10
ENDBRANCH   1  15
ENDBRANCH  17   1
TORSDOF 7
ENDMDL
MODEL 6
REMARK VINA RESULT:      -6.0     26.261     29.566
REMARK  Name = 11943194
REMARK  10 active torsions:
REMARK  status: ('A' for Active; 'I' for Inactive)
REMARK    1  A    between atoms: O_1  and  C_15
REMARK    2  A    between atoms: O_1  and  C_17
REMARK    3  A    between atoms: O_3  and  C_21
REMARK    4  A    between atoms: O_3  and  C_24
REMARK    5  A    between atoms: O_4  and  C_22
REMARK    6  A    between atoms: O_4  and  C_25
REMARK    7  A    between atoms: N_6  and  C_18
REMARK    8  A    between atoms: C_8  and  C_14
REMARK    9  A    between atoms: C_10  and  C_15
REMARK   10  A    between atoms: C_14  and  C_16
REMARK                            x       y       z     vdW  Elec       q    Type
REMARK                         _______ _______ _______ _____ _____    ______ ____
ROOT
ATOM      2  O   UNL     1      -7.363 -11.654  13.823  0.00  0.00    -0.226 OA
ATOM      6  N   UNL     1      -5.974  -9.853  14.380  0.00  0.00    -0.251 N 
ATOM     17  C   UNL     1      -6.941 -10.517  13.650  0.00  0.00    +0.405 C 
ATOM     26  H   UNL     1      -5.757  -8.906  14.080  0.00  0.00    +0.158 HD
ENDROOT
BRANCH   6  18
ATOM     18  C   UNL     1      -5.248 -10.328  15.496  0.00  0.00    +0.043 A 
ATOM     19  C   UNL     1      -5.930 -10.675  16.651  0.00  0.00    +0.069 A 
ATOM     20  C   UNL     1      -3.869 -10.438  15.414  0.00  0.00    +0.069 A 
ATOM     21  C   UNL     1      -3.154 -10.907  16.515  0.00  0.00    +0.125 A 
ATOM     22  C   UNL     1      -5.214 -11.144  17.753  0.00  0.00    +0.125 A 
ATOM     23  C   UNL     1      -3.826 -11.260  17.685  0.00  0.00    +0.091 A 
BRANCH  21   3
ATOM      3  O   UNL     1      -1.799 -11.019  16.449  0.00  0.00    -0.495 OA
ATOM     24  C   UNL     1      -1.113 -10.107  15.591  0.00  0.00    +0.277 C 
ENDBRANCH  21   3
BRANCH  22   4
ATOM      4  O   UNL     1      -5.870 -11.488  18.896  0.00  0.00    -0.495 OA
ATOM     25  C   UNL     1      -6.715 -10.500  19.481  0.00  0.00    +0.277 C 
ENDBRANCH  22   4
ENDBRANCH   6  18
BRANCH  17   1
ATOM      1  O   UNL     1      -7.397  -9.695  12.643  0.00  0.00    -0.449 OA
BRANCH   1  15
ATOM     15  C   UNL     1      -6.468  -8.774  12.104  0.00  0.00    +0.252 C 
BRANCH  15  10
ATOM      5  N   UNL     1      -5.975 -10.529  10.380  0.00  0.00    -0.296 NA
ATOM      7  C   UNL     1      -4.309  -9.032   9.059  0.00  0.00    -0.004 C 
ATOM      8  C   UNL     1      -3.554 -10.073   9.918  0.00  0.00    +0.006 C 
ATOM      9  C   UNL     1      -5.216  -8.183   9.967  0.00  0.00    +0.026 C 
ATOM     10  C   UNL     1      -6.281  -9.092  10.619  0.00  0.00    +0.094 C 
ATOM     11  C   UNL     1      -4.582 -10.832  10.786  0.00  0.00    +0.088 C 
ATOM     12  C   UNL     1      -5.227  -9.820   8.105  0.00  0.00    +0.019 C 
ATOM     13  C   UNL     1      -6.100 -10.786   8.925  0.00  0.00    +0.085 C 
BRANCH   8  14
ATOM     14  C   UNL     1      -2.442  -9.461  10.767  0.00  0.00    +0.002 C 
ATOM     16  C   UNL     1      -2.030 -10.390  11.892  0.00  0.00    +0.004 C 
ENDBRANCH   8  14
ENDBRANCH  15  10
ENDBRANCH   1  15
ENDBRANCH  17   1
TORSDOF 7
ENDMDL
MODEL 7
REMARK VINA RESULT:      -5.9     15.145     18.625
REMARK  Name = 11943194
REMARK  10 active torsions:
REMARK  status: ('A' for Active; 'I' for Inactive)
REMARK    1  A    between atoms: O_1  and  C_15
REMARK    2  A    between atoms: O_1  and  C_17
REMARK    3  A    between atoms: O_3  and  C_21
REMARK    4  A    between atoms: O_3  and  C_24
REMARK    5  A    between atoms: O_4  and  C_22
REMARK    6  A    between atoms: O_4  and  C_25
REMARK    7  A    between atoms: N_6  and  C_18
REMARK    8  A    between atoms: C_8  and  C_14
REMARK    9  A    between atoms: C_10  and  C_15
REMARK   10  A    between atoms: C_14  and  C_16
REMARK                            x       y       z     vdW  Elec       q    Type
REMARK                         _______ _______ _______ _____ _____    ______ ____
ROOT
ATOM      2  O   UNL     1      12.456   8.378   2.866  0.00  0.00    -0.226 OA
ATOM      6  N   UNL     1      12.122   6.165   3.556  0.00  0.00    -0.251 N 
ATOM     17  C   UNL     1      12.316   7.521   3.732  0.00  0.00    +0.405 C 
ATOM     26  H   UNL     1      12.027   5.613   4.405  0.00  0.00    +0.158 HD
ENDROOT
BRANCH   6  18
ATOM     18  C   UNL     1      12.036   5.449   2.341  0.00  0.00    +0.043 A 
ATOM     19  C   UNL     1      10.831   5.410   1.659  0.00  0.00    +0.069 A 
ATOM     20  C   UNL     1      13.160   4.799   1.854  0.00  0.00    +0.069 A 
ATOM     21  C   UNL     1      13.076   4.093   0.655  0.00  0.00    +0.125 A 
ATOM     22  C   UNL     1      10.746   4.703   0.460  0.00  0.00    +0.125 A 
ATOM     23  C   UNL     1      11.868   4.044  -0.043  0.00  0.00    +0.091 A 
BRANCH  21   3
ATOM      3  O   UNL     1      14.170   3.449   0.165  0.00  0.00    -0.495 OA
ATOM     24  C   UNL     1      15.437   3.811   0.716  0.00  0.00    +0.277 C 
ENDBRANCH  21   3
BRANCH  22   4
ATOM      4  O   UNL     1       9.568   4.655  -0.221  0.00  0.00    -0.495 OA
ATOM     25  C   UNL     1       9.521   5.317  -1.483  0.00  0.00    +0.277 C 
ENDBRANCH  22   4
ENDBRANCH   6  18
BRANCH  17   1
ATOM      1  O   UNL     1      12.336   7.810   5.079  0.00  0.00    -0.449 OA
BRANCH   1  15
ATOM     15  C   UNL     1      12.395   6.707   5.963  0.00  0.00    +0.252 C 
BRANCH  15  10
ATOM      5  N   UNL     1      10.414   5.638   7.070  0.00  0.00    -0.296 NA
ATOM      7  C   UNL     1       8.927   7.765   6.891  0.00  0.00    -0.004 C 
ATOM      8  C   UNL     1       8.530   6.722   5.821  0.00  0.00    +0.006 C 
ATOM      9  C   UNL     1      10.417   8.116   6.733  0.00  0.00    +0.026 C 
ATOM     10  C   UNL     1      11.270   6.853   6.990  0.00  0.00    +0.094 C 
ATOM     11  C   UNL     1       9.535   5.549   5.880  0.00  0.00    +0.088 C 
ATOM     12  C   UNL     1       8.762   7.083   8.263  0.00  0.00    +0.019 C 
ATOM     13  C   UNL     1       9.554   5.764   8.272  0.00  0.00    +0.085 C 
BRANCH   8  14
ATOM     14  C   UNL     1       8.432   7.309   4.414  0.00  0.00    +0.002 C 
ATOM     16  C   UNL     1       7.691   8.631   4.418  0.00  0.00    +0.004 C 
ENDBRANCH   8  14
ENDBRANCH  15  10
ENDBRANCH   1  15
ENDBRANCH  17   1
TORSDOF 7
ENDMDL
MODEL 8
REMARK VINA RESULT:      -5.8      1.328      3.405
REMARK  Name = 11943194
REMARK  10 active torsions:
REMARK  status: ('A' for Active; 'I' for Inactive)
REMARK    1  A    between atoms: O_1  and  C_15
REMARK    2  A    between atoms: O_1  and  C_17
REMARK    3  A    between atoms: O_3  and  C_21
REMARK    4  A    between atoms: O_3  and  C_24
REMARK    5  A    between atoms: O_4  and  C_22
REMARK    6  A    between atoms: O_4  and  C_25
REMARK    7  A    between atoms: N_6  and  C_18
REMARK    8  A    between atoms: C_8  and  C_14
REMARK    9  A    between atoms: C_10  and  C_15
REMARK   10  A    between atoms: C_14  and  C_16
REMARK                            x       y       z     vdW  Elec       q    Type
REMARK                         _______ _______ _______ _____ _____    ______ ____
ROOT
ATOM      2  O   UNL     1      16.521   8.192  21.562  0.00  0.00    -0.226 OA
ATOM      6  N   UNL     1      16.033   6.424  20.106  0.00  0.00    -0.251 N 
ATOM     17  C   UNL     1      16.760   7.095  21.069  0.00  0.00    +0.405 C 
ATOM     26  H   UNL     1      16.394   5.517  19.822  0.00  0.00    +0.158 HD
ENDROOT
BRANCH   6  18
ATOM     18  C   UNL     1      14.844   6.842  19.465  0.00  0.00    +0.043 A 
ATOM     19  C   UNL     1      13.650   6.821  20.168  0.00  0.00    +0.069 A 
ATOM     20  C   UNL     1      14.896   7.266  18.146  0.00  0.00    +0.069 A 
ATOM     21  C   UNL     1      13.723   7.679  17.514  0.00  0.00    +0.125 A 
ATOM     22  C   UNL     1      12.477   7.234  19.536  0.00  0.00    +0.125 A 
ATOM     23  C   UNL     1      12.513   7.662  18.209  0.00  0.00    +0.091 A 
BRANCH  21   3
ATOM      3  O   UNL     1      13.758   8.096  16.219  0.00  0.00    -0.495 OA
ATOM     24  C   UNL     1      13.914   9.497  15.993  0.00  0.00    +0.277 C 
ENDBRANCH  21   3
BRANCH  22   4
ATOM      4  O   UNL     1      11.296   7.218  20.213  0.00  0.00    -0.495 OA
ATOM     25  C   UNL     1      10.852   8.452  20.772  0.00  0.00    +0.277 C 
ENDBRANCH  22   4
ENDBRANCH   6  18
BRANCH  17   1
ATOM      1  O   UNL     1      17.852   6.336  21.428  0.00  0.00    -0.449 OA
BRANCH   1  15
ATOM     15  C   UNL     1      19.032   7.040  21.765  0.00  0.00    +0.252 C 
BRANCH  15  10
ATOM      5  N   UNL     1      20.903   5.677  22.732  0.00  0.00    -0.296 NA
ATOM      7  C   UNL     1      22.671   6.556  21.040  0.00  0.00    -0.004 C 
ATOM      8  C   UNL     1      22.839   7.237  22.417  0.00  0.00    +0.006 C 
ATOM      9  C   UNL     1      21.242   6.797  20.523  0.00  0.00    +0.026 C 
ATOM     10  C   UNL     1      20.232   6.133  21.485  0.00  0.00    +0.094 C 
ATOM     11  C   UNL     1      21.679   6.787  23.334  0.00  0.00    +0.088 C 
ATOM     12  C   UNL     1      22.824   5.040  21.269  0.00  0.00    +0.019 C 
ATOM     13  C   UNL     1      21.849   4.593  22.371  0.00  0.00    +0.085 C 
BRANCH   8  14
ATOM     14  C   UNL     1      22.930   8.759  22.330  0.00  0.00    +0.002 C 
ATOM     16  C   UNL     1      21.826   9.425  23.127  0.00  0.00    +0.004 C 
ENDBRANCH   8  14
ENDBRANCH  15  10
ENDBRANCH   1  15
ENDBRANCH  17   1
TORSDOF 7
ENDMDL
MODEL 9
REMARK VINA RESULT:      -5.8      1.290      3.334
REMARK  Name = 11943194
REMARK  10 active torsions:
REMARK  status: ('A' for Active; 'I' for Inactive)
REMARK    1  A    between atoms: O_1  and  C_15
REMARK    2  A    between atoms: O_1  and  C_17
REMARK    3  A    between atoms: O_3  and  C_21
REMARK    4  A    between atoms: O_3  and  C_24
REMARK    5  A    between atoms: O_4  and  C_22
REMARK    6  A    between atoms: O_4  and  C_25
REMARK    7  A    between atoms: N_6  and  C_18
REMARK    8  A    between atoms: C_8  and  C_14
REMARK    9  A    between atoms: C_10  and  C_15
REMARK   10  A    between atoms: C_14  and  C_16
REMARK                            x       y       z     vdW  Elec       q    Type
REMARK                         _______ _______ _______ _____ _____    ______ ____
ROOT
ATOM      2  O   UNL     1      17.182   5.304  18.643  0.00  0.00    -0.226 OA
ATOM      6  N   UNL     1      16.446   7.085  19.974  0.00  0.00    -0.251 N 
ATOM     17  C   UNL     1      17.374   6.207  19.449  0.00  0.00    +0.405 C 
ATOM     26  H   UNL     1      16.802   7.771  20.635  0.00  0.00    +0.158 HD
ENDROOT
BRANCH   6  18
ATOM     18  C   UNL     1      15.060   7.149  19.705  0.00  0.00    +0.043 A 
ATOM     19  C   UNL     1      14.159   6.841  20.711  0.00  0.00    +0.069 A 
ATOM     20  C   UNL     1      14.630   7.518  18.440  0.00  0.00    +0.069 A 
ATOM     21  C   UNL     1      13.263   7.582  18.175  0.00  0.00    +0.125 A 
ATOM     22  C   UNL     1      12.790   6.905  20.445  0.00  0.00    +0.125 A 
ATOM     23  C   UNL     1      12.342   7.275  19.178  0.00  0.00    +0.091 A 
BRANCH  21   3
ATOM      3  O   UNL     1      12.825   7.942  16.937  0.00  0.00    -0.495 OA
ATOM     24  C   UNL     1      11.861   8.993  16.870  0.00  0.00    +0.277 C 
ENDBRANCH  21   3
BRANCH  22   4
ATOM      4  O   UNL     1      11.892   6.605  21.424  0.00  0.00    -0.495 OA
ATOM     25  C   UNL     1      10.693   7.377  21.462  0.00  0.00    +0.277 C 
ENDBRANCH  22   4
ENDBRANCH   6  18
BRANCH  17   1
ATOM      1  O   UNL     1      18.617   6.487  19.975  0.00  0.00    -0.449 OA
BRANCH   1  15
ATOM     15  C   UNL     1      18.899   5.955  21.255  0.00  0.00    +0.252 C 
BRANCH  15  10
ATOM      5  N   UNL     1      20.385   6.994  22.989  0.00  0.00    -0.296 NA
ATOM      7  C   UNL     1      21.707   8.428  21.268  0.00  0.00    -0.004 C 
ATOM      8  C   UNL     1      20.685   9.295  22.039  0.00  0.00    +0.006 C 
ATOM      9  C   UNL     1      20.972   7.268  20.574  0.00  0.00    +0.026 C 
ATOM     10  C   UNL     1      20.322   6.362  21.643  0.00  0.00    +0.094 C 
ATOM     11  C   UNL     1      19.833   8.369  22.937  0.00  0.00    +0.088 C 
ATOM     12  C   UNL     1      22.649   7.808  22.318  0.00  0.00    +0.019 C 
ATOM     13  C   UNL     1      21.811   7.082  23.385  0.00  0.00    +0.085 C 
BRANCH   8  14
ATOM     14  C   UNL     1      19.811  10.152  21.125  0.00  0.00    +0.002 C 
ATOM     16  C   UNL     1      18.338   9.880  21.354  0.00  0.00    +0.004 C 
ENDBRANCH   8  14
ENDBRANCH  15  10
ENDBRANCH   1  15
ENDBRANCH  17   1
TORSDOF 7
ENDMDL
MODEL 10
REMARK VINA RESULT:      -5.7     15.166     18.681
REMARK  Name = 11943194
REMARK  10 active torsions:
REMARK  status: ('A' for Active; 'I' for Inactive)
REMARK    1  A    between atoms: O_1  and  C_15
REMARK    2  A    between atoms: O_1  and  C_17
REMARK    3  A    between atoms: O_3  and  C_21
REMARK    4  A    between atoms: O_3  and  C_24
REMARK    5  A    between atoms: O_4  and  C_22
REMARK    6  A    between atoms: O_4  and  C_25
REMARK    7  A    between atoms: N_6  and  C_18
REMARK    8  A    between atoms: C_8  and  C_14
REMARK    9  A    between atoms: C_10  and  C_15
REMARK   10  A    between atoms: C_14  and  C_16
REMARK                            x       y       z     vdW  Elec       q    Type
REMARK                         _______ _______ _______ _____ _____    ______ ____
ROOT
ATOM      2  O   UNL     1      13.004   8.291   2.872  0.00  0.00    -0.226 OA
ATOM      6  N   UNL     1      12.124   6.220   3.518  0.00  0.00    -0.251 N 
ATOM     17  C   UNL     1      12.580   7.509   3.714  0.00  0.00    +0.405 C 
ATOM     26  H   UNL     1      11.810   5.724   4.349  0.00  0.00    +0.158 HD
ENDROOT
BRANCH   6  18
ATOM     18  C   UNL     1      12.040   5.503   2.303  0.00  0.00    +0.043 A 
ATOM     19  C   UNL     1      13.152   4.820   1.839  0.00  0.00    +0.069 A 
ATOM     20  C   UNL     1      10.846   5.496   1.599  0.00  0.00    +0.069 A 
ATOM     21  C   UNL     1      10.762   4.788   0.401  0.00  0.00    +0.125 A 
ATOM     22  C   UNL     1      13.069   4.112   0.640  0.00  0.00    +0.125 A 
ATOM     23  C   UNL     1      11.875   4.096  -0.080  0.00  0.00    +0.091 A 
BRANCH  21   3
ATOM      3  O   UNL     1       9.597   4.774  -0.302  0.00  0.00    -0.495 OA
ATOM     24  C   UNL     1       9.667   5.124  -1.684  0.00  0.00    +0.277 C 
ENDBRANCH  21   3
BRANCH  22   4
ATOM      4  O   UNL     1      14.154   3.436   0.171  0.00  0.00    -0.495 OA
ATOM     25  C   UNL     1      15.369   4.171   0.040  0.00  0.00    +0.277 C 
ENDBRANCH  22   4
ENDBRANCH   6  18
BRANCH  17   1
ATOM      1  O   UNL     1      12.494   7.825   5.052  0.00  0.00    -0.449 OA
BRANCH   1  15
ATOM     15  C   UNL     1      12.473   6.741   5.961  0.00  0.00    +0.252 C 
BRANCH  15  10
ATOM      5  N   UNL     1      10.441   5.758   7.055  0.00  0.00    -0.296 NA
ATOM      7  C   UNL     1       8.993   7.891   6.715  0.00  0.00    -0.004 C 
ATOM      8  C   UNL     1       8.616   6.798   5.688  0.00  0.00    +0.006 C 
ATOM      9  C   UNL     1      10.492   8.214   6.589  0.00  0.00    +0.026 C 
ATOM     10  C   UNL     1      11.317   6.956   6.940  0.00  0.00    +0.094 C 
ATOM     11  C   UNL     1       9.601   5.617   5.843  0.00  0.00    +0.088 C 
ATOM     12  C   UNL     1       8.773   7.286   8.114  0.00  0.00    +0.019 C 
ATOM     13  C   UNL     1       9.545   5.959   8.220  0.00  0.00    +0.085 C 
BRANCH   8  14
ATOM     14  C   UNL     1       8.572   7.311   4.250  0.00  0.00    +0.002 C 
ATOM     16  C   UNL     1       7.710   8.552   4.132  0.00  0.00    +0.004 C 
ENDBRANCH   8  14
ENDBRANCH  15  10
ENDBRANCH   1  15
ENDBRANCH  17   1
TORSDOF 7
ENDMDL
