MODEL 1
REMARK VINA RESULT:      -7.8      0.000      0.000
REMARK  Name = 75537043
REMARK  4 active torsions:
REMARK  status: ('A' for Active; 'I' for Inactive)
REMARK    1  A    between atoms: O_5  and  C_23
REMARK    2  A    between atoms: O_5  and  C_28
REMARK    3  A    between atoms: N_7  and  C_16
REMARK    4  A    between atoms: C_16  and  C_18
REMARK                            x       y       z     vdW  Elec       q    Type
REMARK                         _______ _______ _______ _____ _____    ______ ____
ROOT
ATOM      4  O   UNL     1      20.035   6.621  23.732  0.00  0.00    -0.252 OA
ATOM      6  N   UNL     1      19.066   6.693  21.613  0.00  0.00    -0.278 N 
ATOM      7  N   UNL     1      17.059   6.836  19.647  0.00  0.00    -0.295 NA
ATOM      8  N   UNL     1      20.832   5.305  21.898  0.00  0.00    -0.238 N 
ATOM      9  N   UNL     1      22.246   4.792  23.750  0.00  0.00    -0.240 NA
ATOM     10  C   UNL     1      19.344   6.192  20.290  0.00  0.00    +0.109 C 
ATOM     11  C   UNL     1      18.055   5.746  19.601  0.00  0.00    +0.109 C 
ATOM     12  C   UNL     1      20.358   5.081  20.536  0.00  0.00    +0.140 C 
ATOM     13  C   UNL     1      18.001   7.657  21.794  0.00  0.00    +0.125 C 
ATOM     14  C   UNL     1      16.746   7.204  21.042  0.00  0.00    +0.104 C 
ATOM     15  C   UNL     1      19.999   6.251  22.566  0.00  0.00    +0.311 C 
ATOM     17  C   UNL     1      21.929   4.584  22.453  0.00  0.00    +0.129 A 
ATOM     19  C   UNL     1      22.605   3.709  21.619  0.00  0.00    +0.044 A 
ATOM     22  C   UNL     1      23.678   3.001  22.152  0.00  0.00    +0.005 A 
ATOM     25  C   UNL     1      23.294   4.086  24.232  0.00  0.00    +0.113 A 
ATOM     27  C   UNL     1      24.035   3.187  23.483  0.00  0.00    +0.020 A 
ENDROOT
BRANCH   7  16
ATOM     16  C   UNL     1      15.841   6.442  18.938  0.00  0.00    +0.119 C 
BRANCH  16  18
ATOM     18  C   UNL     1      14.723   7.426  19.153  0.00  0.00    -0.030 A 
ATOM     20  C   UNL     1      13.486   6.985  19.623  0.00  0.00    +0.051 A 
ATOM     21  C   UNL     1      14.924   8.780  18.881  0.00  0.00    +0.005 A 
ATOM     23  C   UNL     1      12.449   7.897  19.820  0.00  0.00    +0.130 A 
ATOM     24  C   UNL     1      13.887   9.692  19.079  0.00  0.00    +0.004 A 
ATOM     26  C   UNL     1      12.650   9.251  19.548  0.00  0.00    +0.046 A 
BRANCH  23   5
ATOM      5  O   UNL     1      11.242   7.466  20.277  0.00  0.00    -0.406 OA
BRANCH   5  28
ATOM      1  F   UNL     1      11.534   5.807  21.779  0.00  0.00    -0.133 F 
ATOM      2  F   UNL     1       9.857   7.177  22.075  0.00  0.00    -0.133 F 
ATOM      3  F   UNL     1      11.931   7.857  22.423  0.00  0.00    -0.133 F 
ATOM     28  C   UNL     1      11.134   7.092  21.646  0.00  0.00    +0.575 C 
ENDBRANCH   5  28
ENDBRANCH  23   5
ENDBRANCH  16  18
ENDBRANCH   7  16
TORSDOF 4
ENDMDL
MODEL 2
REMARK VINA RESULT:      -7.4      3.495      4.059
REMARK  Name = 75537043
REMARK  4 active torsions:
REMARK  status: ('A' for Active; 'I' for Inactive)
REMARK    1  A    between atoms: O_5  and  C_23
REMARK    2  A    between atoms: O_5  and  C_28
REMARK    3  A    between atoms: N_7  and  C_16
REMARK    4  A    between atoms: C_16  and  C_18
REMARK                            x       y       z     vdW  Elec       q    Type
REMARK                         _______ _______ _______ _____ _____    ______ ____
ROOT
ATOM      4  O   UNL     1      19.559   7.838  22.638  0.00  0.00    -0.252 OA
ATOM      6  N   UNL     1      18.000   7.490  20.941  0.00  0.00    -0.278 N 
ATOM      7  N   UNL     1      15.504   7.398  19.646  0.00  0.00    -0.295 NA
ATOM      8  N   UNL     1      19.684   5.988  21.125  0.00  0.00    -0.238 N 
ATOM      9  N   UNL     1      21.560   5.783  22.585  0.00  0.00    -0.240 NA
ATOM     10  C   UNL     1      17.835   6.626  19.798  0.00  0.00    +0.109 C 
ATOM     11  C   UNL     1      16.374   6.204  19.651  0.00  0.00    +0.109 C 
ATOM     12  C   UNL     1      18.808   5.485  20.071  0.00  0.00    +0.140 C 
ATOM     13  C   UNL     1      17.099   8.610  21.116  0.00  0.00    +0.125 C 
ATOM     14  C   UNL     1      15.651   8.159  20.903  0.00  0.00    +0.104 C 
ATOM     15  C   UNL     1      19.150   7.185  21.688  0.00  0.00    +0.311 C 
ATOM     17  C   UNL     1      20.854   5.290  21.544  0.00  0.00    +0.129 A 
ATOM     19  C   UNL     1      21.193   4.139  20.851  0.00  0.00    +0.044 A 
ATOM     22  C   UNL     1      22.332   3.450  21.253  0.00  0.00    +0.005 A 
ATOM     25  C   UNL     1      22.662   5.086  22.947  0.00  0.00    +0.113 A 
ATOM     27  C   UNL     1      23.086   3.925  22.320  0.00  0.00    +0.020 A 
ENDROOT
BRANCH   7  16
ATOM     16  C   UNL     1      14.108   7.010  19.445  0.00  0.00    +0.119 C 
BRANCH  16  18
ATOM     18  C   UNL     1      13.472   7.768  18.311  0.00  0.00    -0.030 A 
ATOM     20  C   UNL     1      14.245   8.171  17.222  0.00  0.00    +0.051 A 
ATOM     21  C   UNL     1      12.111   8.069  18.351  0.00  0.00    +0.005 A 
ATOM     23  C   UNL     1      13.656   8.875  16.171  0.00  0.00    +0.130 A 
ATOM     24  C   UNL     1      11.522   8.773  17.300  0.00  0.00    +0.004 A 
ATOM     26  C   UNL     1      12.294   9.176  16.211  0.00  0.00    +0.046 A 
BRANCH  23   5
ATOM      5  O   UNL     1      14.410   9.269  15.109  0.00  0.00    -0.406 OA
BRANCH   5  28
ATOM      1  F   UNL     1      15.115  11.013  16.357  0.00  0.00    -0.133 F 
ATOM      2  F   UNL     1      13.989  11.443  14.533  0.00  0.00    -0.133 F 
ATOM      3  F   UNL     1      16.063  10.687  14.415  0.00  0.00    -0.133 F 
ATOM     28  C   UNL     1      14.894  10.607  15.085  0.00  0.00    +0.575 C 
ENDBRANCH   5  28
ENDBRANCH  23   5
ENDBRANCH  16  18
ENDBRANCH   7  16
TORSDOF 4
ENDMDL
MODEL 3
REMARK VINA RESULT:      -7.2     27.937     29.493
REMARK  Name = 75537043
REMARK  4 active torsions:
REMARK  status: ('A' for Active; 'I' for Inactive)
REMARK    1  A    between atoms: O_5  and  C_23
REMARK    2  A    between atoms: O_5  and  C_28
REMARK    3  A    between atoms: N_7  and  C_16
REMARK    4  A    between atoms: C_16  and  C_18
REMARK                            x       y       z     vdW  Elec       q    Type
REMARK                         _______ _______ _______ _____ _____    ______ ____
ROOT
ATOM      4  O   UNL     1      -1.980 -11.565  15.285  0.00  0.00    -0.252 OA
ATOM      6  N   UNL     1      -3.102 -11.070  13.303  0.00  0.00    -0.278 N 
ATOM      7  N   UNL     1      -3.573  -9.971  10.757  0.00  0.00    -0.295 NA
ATOM      8  N   UNL     1      -4.327 -11.100  15.207  0.00  0.00    -0.238 N 
ATOM      9  N   UNL     1      -3.810 -11.541  17.495  0.00  0.00    -0.240 NA
ATOM     10  C   UNL     1      -4.461 -10.895  12.856  0.00  0.00    +0.109 C 
ATOM     11  C   UNL     1      -4.552  -9.755  11.842  0.00  0.00    +0.109 C 
ATOM     12  C   UNL     1      -5.234 -10.666  14.150  0.00  0.00    +0.140 C 
ATOM     13  C   UNL     1      -2.039 -11.141  12.321  0.00  0.00    +0.125 C 
ATOM     14  C   UNL     1      -2.198 -10.019  11.291  0.00  0.00    +0.104 C 
ATOM     15  C   UNL     1      -3.011 -11.289  14.688  0.00  0.00    +0.311 C 
ATOM     17  C   UNL     1      -4.738 -11.217  16.566  0.00  0.00    +0.129 A 
ATOM     19  C   UNL     1      -6.074 -10.989  16.851  0.00  0.00    +0.044 A 
ATOM     22  C   UNL     1      -6.486 -11.101  18.175  0.00  0.00    +0.005 A 
ATOM     25  C   UNL     1      -4.248 -11.641  18.770  0.00  0.00    +0.113 A 
ATOM     27  C   UNL     1      -5.561 -11.433  19.159  0.00  0.00    +0.020 A 
ENDROOT
BRANCH   7  16
ATOM     16  C   UNL     1      -3.692  -8.917   9.749  0.00  0.00    +0.119 C 
BRANCH  16  18
ATOM     18  C   UNL     1      -4.966  -9.039   8.957  0.00  0.00    -0.030 A 
ATOM     20  C   UNL     1      -6.052  -8.215   9.253  0.00  0.00    +0.051 A 
ATOM     21  C   UNL     1      -5.061  -9.976   7.928  0.00  0.00    +0.005 A 
ATOM     23  C   UNL     1      -7.234  -8.328   8.521  0.00  0.00    +0.130 A 
ATOM     24  C   UNL     1      -6.243 -10.089   7.195  0.00  0.00    +0.004 A 
ATOM     26  C   UNL     1      -7.329  -9.265   7.491  0.00  0.00    +0.046 A 
BRANCH  23   5
ATOM      5  O   UNL     1      -8.294  -7.526   8.810  0.00  0.00    -0.406 OA
BRANCH   5  28
ATOM      1  F   UNL     1      -9.317  -5.514   8.781  0.00  0.00    -0.133 F 
ATOM      2  F   UNL     1      -8.774  -6.419   6.867  0.00  0.00    -0.133 F 
ATOM      3  F   UNL     1      -7.212  -5.605   8.202  0.00  0.00    -0.133 F 
ATOM     28  C   UNL     1      -8.387  -6.268   8.151  0.00  0.00    +0.575 C 
ENDBRANCH   5  28
ENDBRANCH  23   5
ENDBRANCH  16  18
ENDBRANCH   7  16
TORSDOF 4
ENDMDL
MODEL 4
REMARK VINA RESULT:      -7.0     18.215     20.877
REMARK  Name = 75537043
REMARK  4 active torsions:
REMARK  status: ('A' for Active; 'I' for Inactive)
REMARK    1  A    between atoms: O_5  and  C_23
REMARK    2  A    between atoms: O_5  and  C_28
REMARK    3  A    between atoms: N_7  and  C_16
REMARK    4  A    between atoms: C_16  and  C_18
REMARK                            x       y       z     vdW  Elec       q    Type
REMARK                         _______ _______ _______ _____ _____    ______ ____
ROOT
ATOM      4  O   UNL     1      13.780   6.161  -0.986  0.00  0.00    -0.252 OA
ATOM      6  N   UNL     1      12.026   5.652   0.462  0.00  0.00    -0.278 N 
ATOM      7  N   UNL     1      10.698   5.046   2.867  0.00  0.00    -0.295 NA
ATOM      8  N   UNL     1      11.987   4.695  -1.590  0.00  0.00    -0.238 N 
ATOM      9  N   UNL     1      13.421   4.813  -3.493  0.00  0.00    -0.240 NA
ATOM     10  C   UNL     1      10.756   4.972   0.409  0.00  0.00    +0.109 C 
ATOM     11  C   UNL     1      10.520   4.172   1.690  0.00  0.00    +0.109 C 
ATOM     12  C   UNL     1      10.853   4.135  -0.861  0.00  0.00    +0.140 C 
ATOM     13  C   UNL     1      12.369   6.418   1.643  0.00  0.00    +0.125 C 
ATOM     14  C   UNL     1      12.064   5.605   2.904  0.00  0.00    +0.104 C 
ATOM     15  C   UNL     1      12.730   5.579  -0.751  0.00  0.00    +0.311 C 
ATOM     17  C   UNL     1      12.303   4.309  -2.925  0.00  0.00    +0.129 A 
ATOM     19  C   UNL     1      11.436   3.434  -3.559  0.00  0.00    +0.044 A 
ATOM     22  C   UNL     1      11.737   3.051  -4.862  0.00  0.00    +0.005 A 
ATOM     25  C   UNL     1      13.680   4.418  -4.761  0.00  0.00    +0.113 A 
ATOM     27  C   UNL     1      12.878   3.547  -5.481  0.00  0.00    +0.020 A 
ENDROOT
BRANCH   7  16
ATOM     16  C   UNL     1      10.416   4.306   4.097  0.00  0.00    +0.119 C 
BRANCH  16  18
ATOM     18  C   UNL     1       9.830   5.192   5.163  0.00  0.00    -0.030 A 
ATOM     20  C   UNL     1      10.264   5.074   6.484  0.00  0.00    +0.051 A 
ATOM     21  C   UNL     1       8.852   6.130   4.831  0.00  0.00    +0.005 A 
ATOM     23  C   UNL     1       9.720   5.895   7.473  0.00  0.00    +0.130 A 
ATOM     24  C   UNL     1       8.308   6.950   5.820  0.00  0.00    +0.004 A 
ATOM     26  C   UNL     1       8.742   6.833   7.140  0.00  0.00    +0.046 A 
BRANCH  23   5
ATOM      5  O   UNL     1      10.142   5.779   8.761  0.00  0.00    -0.406 OA
BRANCH   5  28
ATOM      1  F   UNL     1       9.206   3.734   8.957  0.00  0.00    -0.133 F 
ATOM      2  F   UNL     1       8.253   5.404   9.995  0.00  0.00    -0.133 F 
ATOM      3  F   UNL     1      10.179   4.592  10.715  0.00  0.00    -0.133 F 
ATOM     28  C   UNL     1       9.443   4.888   9.622  0.00  0.00    +0.575 C 
ENDBRANCH   5  28
ENDBRANCH  23   5
ENDBRANCH  16  18
ENDBRANCH   7  16
TORSDOF 4
ENDMDL
MODEL 5
REMARK VINA RESULT:      -7.0     17.366     20.240
REMARK  Name = 75537043
REMARK  4 active torsions:
REMARK  status: ('A' for Active; 'I' for Inactive)
REMARK    1  A    between atoms: O_5  and  C_23
REMARK    2  A    between atoms: O_5  and  C_28
REMARK    3  A    between atoms: N_7  and  C_16
REMARK    4  A    between atoms: C_16  and  C_18
REMARK                            x       y       z     vdW  Elec       q    Type
REMARK                         _______ _______ _______ _____ _____    ______ ____
ROOT
ATOM      4  O   UNL     1       9.579   6.436  -0.914  0.00  0.00    -0.252 OA
ATOM      6  N   UNL     1      10.196   5.867   1.261  0.00  0.00    -0.278 N 
ATOM      7  N   UNL     1      10.990   6.204   3.938  0.00  0.00    -0.295 NA
ATOM      8  N   UNL     1      10.979   4.560  -0.414  0.00  0.00    -0.238 N 
ATOM      9  N   UNL     1      10.713   4.580  -2.786  0.00  0.00    -0.240 NA
ATOM     10  C   UNL     1      10.861   4.781   1.936  0.00  0.00    +0.109 C 
ATOM     11  C   UNL     1      11.763   5.312   3.050  0.00  0.00    +0.109 C 
ATOM     12  C   UNL     1      11.591   4.055   0.811  0.00  0.00    +0.140 C 
ATOM     13  C   UNL     1       9.532   6.886   2.046  0.00  0.00    +0.125 C 
ATOM     14  C   UNL     1      10.444   7.351   3.185  0.00  0.00    +0.104 C 
ATOM     15  C   UNL     1      10.173   5.703  -0.134  0.00  0.00    +0.311 C 
ATOM     17  C   UNL     1      11.256   3.996  -1.694  0.00  0.00    +0.129 A 
ATOM     19  C   UNL     1      12.071   2.877  -1.736  0.00  0.00    +0.044 A 
ATOM     22  C   UNL     1      12.346   2.320  -2.980  0.00  0.00    +0.005 A 
ATOM     25  C   UNL     1      11.004   4.010  -3.977  0.00  0.00    +0.113 A 
ATOM     27  C   UNL     1      11.807   2.891  -4.127  0.00  0.00    +0.020 A 
ENDROOT
BRANCH   7  16
ATOM     16  C   UNL     1      11.827   6.672   5.043  0.00  0.00    +0.119 C 
BRANCH  16  18
ATOM     18  C   UNL     1      11.004   7.159   6.204  0.00  0.00    -0.030 A 
ATOM     20  C   UNL     1      10.193   6.267   6.907  0.00  0.00    +0.051 A 
ATOM     21  C   UNL     1      11.050   8.502   6.578  0.00  0.00    +0.005 A 
ATOM     23  C   UNL     1       9.428   6.719   7.983  0.00  0.00    +0.130 A 
ATOM     24  C   UNL     1      10.286   8.954   7.653  0.00  0.00    +0.004 A 
ATOM     26  C   UNL     1       9.475   8.062   8.356  0.00  0.00    +0.046 A 
BRANCH  23   5
ATOM      5  O   UNL     1       8.636   5.850   8.667  0.00  0.00    -0.406 OA
BRANCH   5  28
ATOM      1  F   UNL     1       9.511   3.771   8.762  0.00  0.00    -0.133 F 
ATOM      2  F   UNL     1       8.460   4.524  10.524  0.00  0.00    -0.133 F 
ATOM      3  F   UNL     1      10.442   5.333   9.973  0.00  0.00    -0.133 F 
ATOM     28  C   UNL     1       9.263   4.878   9.498  0.00  0.00    +0.575 C 
ENDBRANCH   5  28
ENDBRANCH  23   5
ENDBRANCH  16  18
ENDBRANCH   7  16
TORSDOF 4
ENDMDL
MODEL 6
REMARK VINA RESULT:      -6.8     17.969     20.707
REMARK  Name = 75537043
REMARK  4 active torsions:
REMARK  status: ('A' for Active; 'I' for Inactive)
REMARK    1  A    between atoms: O_5  and  C_23
REMARK    2  A    between atoms: O_5  and  C_28
REMARK    3  A    between atoms: N_7  and  C_16
REMARK    4  A    between atoms: C_16  and  C_18
REMARK                            x       y       z     vdW  Elec       q    Type
REMARK                         _______ _______ _______ _____ _____    ______ ____
ROOT
ATOM      4  O   UNL     1       9.584   8.196   5.503  0.00  0.00    -0.252 OA
ATOM      6  N   UNL     1      10.335   6.931   3.694  0.00  0.00    -0.278 N 
ATOM      7  N   UNL     1      10.570   6.023   1.042  0.00  0.00    -0.295 NA
ATOM      8  N   UNL     1      10.031   5.850   5.660  0.00  0.00    -0.238 N 
ATOM      9  N   UNL     1       9.324   6.541   7.832  0.00  0.00    -0.240 NA
ATOM     10  C   UNL     1      10.833   5.600   3.451  0.00  0.00    +0.109 C 
ATOM     11  C   UNL     1      10.296   5.058   2.127  0.00  0.00    +0.109 C 
ATOM     12  C   UNL     1      10.394   4.824   4.687  0.00  0.00    +0.140 C 
ATOM     13  C   UNL     1      10.416   7.920   2.639  0.00  0.00    +0.125 C 
ATOM     14  C   UNL     1       9.924   7.321   1.318  0.00  0.00    +0.104 C 
ATOM     15  C   UNL     1       9.942   7.126   5.029  0.00  0.00    +0.311 C 
ATOM     17  C   UNL     1       9.736   5.542   7.020  0.00  0.00    +0.129 A 
ATOM     19  C   UNL     1       9.892   4.226   7.425  0.00  0.00    +0.044 A 
ATOM     22  C   UNL     1       9.606   3.916   8.751  0.00  0.00    +0.005 A 
ATOM     25  C   UNL     1       9.056   6.201   9.114  0.00  0.00    +0.113 A 
ATOM     27  C   UNL     1       9.179   4.916   9.617  0.00  0.00    +0.020 A 
ENDROOT
BRANCH   7  16
ATOM     16  C   UNL     1      10.113   5.488  -0.241  0.00  0.00    +0.119 C 
BRANCH  16  18
ATOM     18  C   UNL     1      11.192   4.704  -0.938  0.00  0.00    -0.030 A 
ATOM     20  C   UNL     1      12.534   4.972  -0.668  0.00  0.00    +0.051 A 
ATOM     21  C   UNL     1      10.849   3.711  -1.856  0.00  0.00    +0.005 A 
ATOM     23  C   UNL     1      13.534   4.246  -1.315  0.00  0.00    +0.130 A 
ATOM     24  C   UNL     1      11.849   2.986  -2.504  0.00  0.00    +0.004 A 
ATOM     26  C   UNL     1      13.191   3.253  -2.233  0.00  0.00    +0.046 A 
BRANCH  23   5
ATOM      5  O   UNL     1      14.843   4.507  -1.052  0.00  0.00    -0.406 OA
BRANCH   5  28
ATOM      1  F   UNL     1      15.451   5.210   1.005  0.00  0.00    -0.133 F 
ATOM      2  F   UNL     1      16.608   3.599   0.086  0.00  0.00    -0.133 F 
ATOM      3  F   UNL     1      14.556   3.226   0.820  0.00  0.00    -0.133 F 
ATOM     28  C   UNL     1      15.368   4.118   0.212  0.00  0.00    +0.575 C 
ENDBRANCH   5  28
ENDBRANCH  23   5
ENDBRANCH  16  18
ENDBRANCH   7  16
TORSDOF 4
ENDMDL
MODEL 7
REMARK VINA RESULT:      -6.7     14.288     16.083
REMARK  Name = 75537043
REMARK  4 active torsions:
REMARK  status: ('A' for Active; 'I' for Inactive)
REMARK    1  A    between atoms: O_5  and  C_23
REMARK    2  A    between atoms: O_5  and  C_28
REMARK    3  A    between atoms: N_7  and  C_16
REMARK    4  A    between atoms: C_16  and  C_18
REMARK                            x       y       z     vdW  Elec       q    Type
REMARK                         _______ _______ _______ _____ _____    ______ ____
ROOT
ATOM      4  O   UNL     1      17.134  10.105   3.041  0.00  0.00    -0.252 OA
ATOM      6  N   UNL     1      15.383   8.893   3.988  0.00  0.00    -0.278 N 
ATOM      7  N   UNL     1      12.759   8.243   4.767  0.00  0.00    -0.295 NA
ATOM      8  N   UNL     1      17.349   8.924   5.112  0.00  0.00    -0.238 N 
ATOM      9  N   UNL     1      19.474   9.925   4.692  0.00  0.00    -0.240 NA
ATOM     10  C   UNL     1      15.184   7.976   5.082  0.00  0.00    +0.109 C 
ATOM     11  C   UNL     1      13.844   8.240   5.769  0.00  0.00    +0.109 C 
ATOM     12  C   UNL     1      16.410   8.197   5.960  0.00  0.00    +0.140 C 
ATOM     13  C   UNL     1      14.318   9.088   3.027  0.00  0.00    +0.125 C 
ATOM     14  C   UNL     1      12.984   9.291   3.752  0.00  0.00    +0.104 C 
ATOM     15  C   UNL     1      16.694   9.394   3.934  0.00  0.00    +0.311 C 
ATOM     17  C   UNL     1      18.698   9.169   5.500  0.00  0.00    +0.129 A 
ATOM     19  C   UNL     1      19.130   8.612   6.693  0.00  0.00    +0.044 A 
ATOM     22  C   UNL     1      20.445   8.846   7.080  0.00  0.00    +0.005 A 
ATOM     25  C   UNL     1      20.746  10.130   5.102  0.00  0.00    +0.113 A 
ATOM     27  C   UNL     1      21.275   9.619   6.276  0.00  0.00    +0.020 A 
ENDROOT
BRANCH   7  16
ATOM     16  C   UNL     1      11.464   8.435   5.420  0.00  0.00    +0.119 C 
BRANCH  16  18
ATOM     18  C   UNL     1      10.824   7.126   5.794  0.00  0.00    -0.030 A 
ATOM     20  C   UNL     1      11.022   6.591   7.067  0.00  0.00    +0.051 A 
ATOM     21  C   UNL     1      10.033   6.446   4.867  0.00  0.00    +0.005 A 
ATOM     23  C   UNL     1      10.430   5.376   7.414  0.00  0.00    +0.130 A 
ATOM     24  C   UNL     1       9.441   5.232   5.214  0.00  0.00    +0.004 A 
ATOM     26  C   UNL     1       9.639   4.697   6.486  0.00  0.00    +0.046 A 
BRANCH  23   5
ATOM      5  O   UNL     1      10.624   4.854   8.655  0.00  0.00    -0.406 OA
BRANCH   5  28
ATOM      1  F   UNL     1       8.821   3.735   9.424  0.00  0.00    -0.133 F 
ATOM      2  F   UNL     1       8.714   5.916   9.331  0.00  0.00    -0.133 F 
ATOM      3  F   UNL     1       9.978   4.922  10.847  0.00  0.00    -0.133 F 
ATOM     28  C   UNL     1       9.536   4.873   9.572  0.00  0.00    +0.575 C 
ENDBRANCH   5  28
ENDBRANCH  23   5
ENDBRANCH  16  18
ENDBRANCH   7  16
TORSDOF 4
ENDMDL
MODEL 8
REMARK VINA RESULT:      -6.7      2.893      3.904
REMARK  Name = 75537043
REMARK  4 active torsions:
REMARK  status: ('A' for Active; 'I' for Inactive)
REMARK    1  A    between atoms: O_5  and  C_23
REMARK    2  A    between atoms: O_5  and  C_28
REMARK    3  A    between atoms: N_7  and  C_16
REMARK    4  A    between atoms: C_16  and  C_18
REMARK                            x       y       z     vdW  Elec       q    Type
REMARK                         _______ _______ _______ _____ _____    ______ ____
ROOT
ATOM      4  O   UNL     1      19.031   5.041  19.740  0.00  0.00    -0.252 OA
ATOM      6  N   UNL     1      17.530   6.648  20.512  0.00  0.00    -0.278 N 
ATOM      7  N   UNL     1      15.288   8.347  20.544  0.00  0.00    -0.295 NA
ATOM      8  N   UNL     1      19.730   7.012  20.905  0.00  0.00    -0.238 N 
ATOM      9  N   UNL     1      21.719   5.787  20.413  0.00  0.00    -0.240 NA
ATOM     10  C   UNL     1      17.555   7.826  21.343  0.00  0.00    +0.109 C 
ATOM     11  C   UNL     1      16.635   8.906  20.774  0.00  0.00    +0.109 C 
ATOM     12  C   UNL     1      19.032   8.199  21.388  0.00  0.00    +0.140 C 
ATOM     13  C   UNL     1      16.254   6.101  20.099  0.00  0.00    +0.125 C 
ATOM     14  C   UNL     1      15.342   7.221  19.590  0.00  0.00    +0.104 C 
ATOM     15  C   UNL     1      18.807   6.095  20.319  0.00  0.00    +0.311 C 
ATOM     17  C   UNL     1      21.148   6.883  20.962  0.00  0.00    +0.129 A 
ATOM     19  C   UNL     1      21.857   7.899  21.582  0.00  0.00    +0.044 A 
ATOM     22  C   UNL     1      23.241   7.783  21.643  0.00  0.00    +0.005 A 
ATOM     25  C   UNL     1      23.067   5.710  20.492  0.00  0.00    +0.113 A 
ATOM     27  C   UNL     1      23.866   6.671  21.090  0.00  0.00    +0.020 A 
ENDROOT
BRANCH   7  16
ATOM     16  C   UNL     1      14.382   9.386  20.054  0.00  0.00    +0.119 C 
BRANCH  16  18
ATOM     18  C   UNL     1      13.036   9.319  20.723  0.00  0.00    -0.030 A 
ATOM     20  C   UNL     1      12.783  10.085  21.861  0.00  0.00    +0.051 A 
ATOM     21  C   UNL     1      12.041   8.489  20.206  0.00  0.00    +0.005 A 
ATOM     23  C   UNL     1      11.536  10.021  22.482  0.00  0.00    +0.130 A 
ATOM     24  C   UNL     1      10.794   8.425  20.827  0.00  0.00    +0.004 A 
ATOM     26  C   UNL     1      10.541   9.191  21.965  0.00  0.00    +0.046 A 
BRANCH  23   5
ATOM      5  O   UNL     1      11.290  10.768  23.593  0.00  0.00    -0.406 OA
BRANCH   5  28
ATOM      1  F   UNL     1      12.183  12.839  23.678  0.00  0.00    -0.133 F 
ATOM      2  F   UNL     1      10.101  12.592  24.295  0.00  0.00    -0.133 F 
ATOM      3  F   UNL     1      10.660  12.438  22.163  0.00  0.00    -0.133 F 
ATOM     28  C   UNL     1      11.040  12.160  23.428  0.00  0.00    +0.575 C 
ENDBRANCH   5  28
ENDBRANCH  23   5
ENDBRANCH  16  18
ENDBRANCH   7  16
TORSDOF 4
ENDMDL
MODEL 9
REMARK VINA RESULT:      -6.7     27.911     30.652
REMARK  Name = 75537043
REMARK  4 active torsions:
REMARK  status: ('A' for Active; 'I' for Inactive)
REMARK    1  A    between atoms: O_5  and  C_23
REMARK    2  A    between atoms: O_5  and  C_28
REMARK    3  A    between atoms: N_7  and  C_16
REMARK    4  A    between atoms: C_16  and  C_18
REMARK                            x       y       z     vdW  Elec       q    Type
REMARK                         _______ _______ _______ _____ _____    ______ ____
ROOT
ATOM      4  O   UNL     1      -7.899 -11.636  20.136  0.00  0.00    -0.252 OA
ATOM      6  N   UNL     1      -6.638 -11.658  18.176  0.00  0.00    -0.278 N 
ATOM      7  N   UNL     1      -4.391 -11.449  16.497  0.00  0.00    -0.295 NA
ATOM      8  N   UNL     1      -8.722 -10.781  18.057  0.00  0.00    -0.238 N 
ATOM      9  N   UNL     1     -10.481 -10.486  19.643  0.00  0.00    -0.240 NA
ATOM     10  C   UNL     1      -6.834 -11.390  16.773  0.00  0.00    +0.109 C 
ATOM     11  C   UNL     1      -5.614 -10.682  16.185  0.00  0.00    +0.109 C 
ATOM     12  C   UNL     1      -8.124 -10.577  16.742  0.00  0.00    +0.140 C 
ATOM     13  C   UNL     1      -5.401 -12.272  18.612  0.00  0.00    +0.125 C 
ATOM     14  C   UNL     1      -4.207 -11.574  17.956  0.00  0.00    +0.104 C 
ATOM     15  C   UNL     1      -7.785 -11.391  18.943  0.00  0.00    +0.311 C 
ATOM     17  C   UNL     1     -10.037 -10.333  18.376  0.00  0.00    +0.129 A 
ATOM     19  C   UNL     1     -10.783  -9.765  17.355  0.00  0.00    +0.044 A 
ATOM     22  C   UNL     1     -12.067  -9.325  17.656  0.00  0.00    +0.005 A 
ATOM     25  C   UNL     1     -11.735 -10.046  19.897  0.00  0.00    +0.113 A 
ATOM     27  C   UNL     1     -12.560  -9.464  18.949  0.00  0.00    +0.020 A 
ENDROOT
BRANCH   7  16
ATOM     16  C   UNL     1      -3.223 -10.813  15.887  0.00  0.00    +0.119 C 
BRANCH  16  18
ATOM     18  C   UNL     1      -2.986 -11.301  14.484  0.00  0.00    -0.030 A 
ATOM     20  C   UNL     1      -2.913 -10.389  13.431  0.00  0.00    +0.051 A 
ATOM     21  C   UNL     1      -2.841 -12.666  14.235  0.00  0.00    +0.005 A 
ATOM     23  C   UNL     1      -2.695 -10.841  12.130  0.00  0.00    +0.130 A 
ATOM     24  C   UNL     1      -2.623 -13.119  12.933  0.00  0.00    +0.004 A 
ATOM     26  C   UNL     1      -2.550 -12.206  11.881  0.00  0.00    +0.046 A 
BRANCH  23   5
ATOM      5  O   UNL     1      -2.625  -9.951  11.103  0.00  0.00    -0.406 OA
BRANCH   5  28
ATOM      1  F   UNL     1      -3.617  -9.562   9.113  0.00  0.00    -0.133 F 
ATOM      2  F   UNL     1      -4.231  -8.346  10.822  0.00  0.00    -0.133 F 
ATOM      3  F   UNL     1      -4.813 -10.474  10.697  0.00  0.00    -0.133 F 
ATOM     28  C   UNL     1      -3.833  -9.580  10.448  0.00  0.00    +0.575 C 
ENDBRANCH   5  28
ENDBRANCH  23   5
ENDBRANCH  16  18
ENDBRANCH   7  16
TORSDOF 4
ENDMDL
MODEL 10
REMARK VINA RESULT:      -6.6     16.660     19.043
REMARK  Name = 75537043
REMARK  4 active torsions:
REMARK  status: ('A' for Active; 'I' for Inactive)
REMARK    1  A    between atoms: O_5  and  C_23
REMARK    2  A    between atoms: O_5  and  C_28
REMARK    3  A    between atoms: N_7  and  C_16
REMARK    4  A    between atoms: C_16  and  C_18
REMARK                            x       y       z     vdW  Elec       q    Type
REMARK                         _______ _______ _______ _____ _____    ______ ____
ROOT
ATOM      4  O   UNL     1      13.682   3.200   0.394  0.00  0.00    -0.252 OA
ATOM      6  N   UNL     1      12.726   4.645   1.954  0.00  0.00    -0.278 N 
ATOM      7  N   UNL     1      10.729   5.977   3.420  0.00  0.00    -0.295 NA
ATOM      8  N   UNL     1      14.559   5.381   0.847  0.00  0.00    -0.238 N 
ATOM      9  N   UNL     1      15.984   4.420  -0.808  0.00  0.00    -0.240 NA
ATOM     10  C   UNL     1      13.039   5.905   2.580  0.00  0.00    +0.109 C 
ATOM     11  C   UNL     1      11.780   6.757   2.735  0.00  0.00    +0.109 C 
ATOM     12  C   UNL     1      14.107   6.499   1.669  0.00  0.00    +0.140 C 
ATOM     13  C   UNL     1      11.611   3.866   2.452  0.00  0.00    +0.125 C 
ATOM     14  C   UNL     1      10.387   4.765   2.649  0.00  0.00    +0.104 C 
ATOM     15  C   UNL     1      13.673   4.271   0.986  0.00  0.00    +0.311 C 
ATOM     17  C   UNL     1      15.688   5.475  -0.018  0.00  0.00    +0.129 A 
ATOM     19  C   UNL     1      16.414   6.655   0.008  0.00  0.00    +0.044 A 
ATOM     22  C   UNL     1      17.518   6.757  -0.833  0.00  0.00    +0.005 A 
ATOM     25  C   UNL     1      17.064   4.556  -1.611  0.00  0.00    +0.113 A 
ATOM     27  C   UNL     1      17.855   5.693  -1.661  0.00  0.00    +0.020 A 
ENDROOT
BRANCH   7  16
ATOM     16  C   UNL     1       9.538   6.801   3.628  0.00  0.00    +0.119 C 
BRANCH  16  18
ATOM     18  C   UNL     1       9.429   7.282   5.050  0.00  0.00    -0.030 A 
ATOM     20  C   UNL     1       9.153   6.376   6.073  0.00  0.00    +0.051 A 
ATOM     21  C   UNL     1       9.604   8.635   5.343  0.00  0.00    +0.005 A 
ATOM     23  C   UNL     1       9.051   6.822   7.391  0.00  0.00    +0.130 A 
ATOM     24  C   UNL     1       9.502   9.081   6.661  0.00  0.00    +0.004 A 
ATOM     26  C   UNL     1       9.226   8.174   7.685  0.00  0.00    +0.046 A 
BRANCH  23   5
ATOM      5  O   UNL     1       8.779   5.938   8.389  0.00  0.00    -0.406 OA
BRANCH   5  28
ATOM      1  F   UNL     1       9.706   4.916  10.176  0.00  0.00    -0.133 F 
ATOM      2  F   UNL     1      11.038   5.636   8.599  0.00  0.00    -0.133 F 
ATOM      3  F   UNL     1       9.750   3.872   8.257  0.00  0.00    -0.133 F 
ATOM     28  C   UNL     1       9.828   5.087   8.840  0.00  0.00    +0.575 C 
ENDBRANCH   5  28
ENDBRANCH  23   5
ENDBRANCH  16  18
ENDBRANCH   7  16
TORSDOF 4
ENDMDL
