MODEL 1
REMARK VINA RESULT:      -8.1      0.000      0.000
REMARK  Name = 25338610
REMARK  5 active torsions:
REMARK  status: ('A' for Active; 'I' for Inactive)
REMARK    1  A    between atoms: N_5  and  C_14
REMARK    2  A    between atoms: N_6  and  C_9
REMARK    3  A    between atoms: C_10  and  C_13
REMARK    4  A    between atoms: C_15  and  C_17
REMARK    5  A    between atoms: C_16  and  C_18
REMARK                            x       y       z     vdW  Elec       q    Type
REMARK                         _______ _______ _______ _____ _____    ______ ____
ROOT
ATOM      5  N   UNL     1      11.432   6.950  21.640  0.00  0.00    -0.293 NA
ATOM      9  C   UNL     1      10.645   9.139  21.802  0.00  0.00    +0.089 C 
ATOM     10  C   UNL     1      11.691   7.517  20.303  0.00  0.00    +0.147 C 
ATOM     11  C   UNL     1      11.318   9.007  20.435  0.00  0.00    +0.052 C 
ATOM     12  C   UNL     1      10.301   7.707  22.184  0.00  0.00    +0.107 C 
ATOM     14  C   UNL     1      11.166   5.517  21.614  0.00  0.00    +0.105 C 
ENDROOT
BRANCH  10  13
ATOM      3  O   UNL     1      13.353   7.563  18.512  0.00  0.00    -0.336 OA
ATOM      7  N   UNL     1      14.167   6.926  20.499  0.00  0.00    -0.190 NA
ATOM      8  N   UNL     1      14.716   7.307  18.311  0.00  0.00    -0.056 NA
ATOM     13  C   UNL     1      13.113   7.314  19.826  0.00  0.00    +0.245 A 
ATOM     16  C   UNL     1      15.125   6.937  19.528  0.00  0.00    +0.202 A 
BRANCH  16  18
ATOM      2  F   UNL     1      20.396   5.526  20.610  0.00  0.00    -0.205 F 
ATOM     18  C   UNL     1      16.485   6.573  19.807  0.00  0.00    +0.023 A 
ATOM     21  C   UNL     1      17.170   5.718  18.943  0.00  0.00    +0.014 A 
ATOM     22  C   UNL     1      17.122   7.075  20.942  0.00  0.00    +0.014 A 
ATOM     26  C   UNL     1      18.491   5.365  19.215  0.00  0.00    +0.039 A 
ATOM     27  C   UNL     1      18.443   6.721  21.213  0.00  0.00    +0.039 A 
ATOM     28  C   UNL     1      19.128   5.866  20.350  0.00  0.00    +0.123 A 
ENDBRANCH  16  18
ENDBRANCH  10  13
BRANCH   9   6
ATOM      4  O   UNL     1      11.043  11.948  22.235  0.00  0.00    -0.270 OA
ATOM      6  N   UNL     1      11.526   9.745  22.771  0.00  0.00    -0.307 N 
ATOM     15  C   UNL     1      11.650  11.119  22.906  0.00  0.00    +0.244 C 
ATOM     29  H   UNL     1      12.141   9.122  23.284  0.00  0.00    +0.149 HD
BRANCH  15  17
ATOM      1  F   UNL     1      15.312  12.880  26.782  0.00  0.00    -0.205 F 
ATOM     17  C   UNL     1      12.619  11.584  23.932  0.00  0.00    +0.037 A 
ATOM     19  C   UNL     1      13.971  11.264  23.811  0.00  0.00    +0.016 A 
ATOM     20  C   UNL     1      12.177  12.343  25.017  0.00  0.00    +0.016 A 
ATOM     23  C   UNL     1      14.880  11.700  24.774  0.00  0.00    +0.039 A 
ATOM     24  C   UNL     1      13.087  12.781  25.979  0.00  0.00    +0.039 A 
ATOM     25  C   UNL     1      14.438  12.460  25.858  0.00  0.00    +0.123 A 
ENDBRANCH  15  17
ENDBRANCH   9   6
TORSDOF 4
ENDMDL
MODEL 2
REMARK VINA RESULT:      -7.9      2.382      7.965
REMARK  Name = 25338610
REMARK  5 active torsions:
REMARK  status: ('A' for Active; 'I' for Inactive)
REMARK    1  A    between atoms: N_5  and  C_14
REMARK    2  A    between atoms: N_6  and  C_9
REMARK    3  A    between atoms: C_10  and  C_13
REMARK    4  A    between atoms: C_15  and  C_17
REMARK    5  A    between atoms: C_16  and  C_18
REMARK                            x       y       z     vdW  Elec       q    Type
REMARK                         _______ _______ _______ _____ _____    ______ ____
ROOT
ATOM      5  N   UNL     1      13.628   9.205  18.564  0.00  0.00    -0.293 NA
ATOM      9  C   UNL     1      14.462   7.029  18.622  0.00  0.00    +0.089 C 
ATOM     10  C   UNL     1      12.574   8.443  19.258  0.00  0.00    +0.147 C 
ATOM     11  C   UNL     1      13.171   7.034  19.441  0.00  0.00    +0.052 C 
ATOM     12  C   UNL     1      14.326   8.239  17.710  0.00  0.00    +0.107 C 
ATOM     14  C   UNL     1      13.111  10.334  17.798  0.00  0.00    +0.105 C 
ENDROOT
BRANCH  10  13
ATOM      3  O   UNL     1      11.997   8.222  21.622  0.00  0.00    -0.336 OA
ATOM      7  N   UNL     1      11.877  10.319  20.844  0.00  0.00    -0.190 NA
ATOM      8  N   UNL     1      11.594   9.017  22.703  0.00  0.00    -0.056 NA
ATOM     13  C   UNL     1      12.141   9.066  20.567  0.00  0.00    +0.245 A 
ATOM     16  C   UNL     1      11.546  10.238  22.165  0.00  0.00    +0.202 A 
BRANCH  16  18
ATOM      2  F   UNL     1      10.101  14.743  25.092  0.00  0.00    -0.205 F 
ATOM     18  C   UNL     1      11.174  11.400  22.920  0.00  0.00    +0.023 A 
ATOM     21  C   UNL     1      11.127  11.342  24.313  0.00  0.00    +0.014 A 
ATOM     22  C   UNL     1      10.857  12.588  22.261  0.00  0.00    +0.014 A 
ATOM     26  C   UNL     1      10.765  12.471  25.047  0.00  0.00    +0.039 A 
ATOM     27  C   UNL     1      10.495  13.717  22.995  0.00  0.00    +0.039 A 
ATOM     28  C   UNL     1      10.448  13.659  24.388  0.00  0.00    +0.123 A 
ENDBRANCH  16  18
ENDBRANCH  10  13
BRANCH   9   6
ATOM      4  O   UNL     1      16.887   5.510  18.393  0.00  0.00    -0.270 OA
ATOM      6  N   UNL     1      15.628   7.135  19.465  0.00  0.00    -0.307 N 
ATOM     15  C   UNL     1      16.757   6.354  19.275  0.00  0.00    +0.244 C 
ATOM     29  H   UNL     1      15.550   7.733  20.282  0.00  0.00    +0.149 HD
BRANCH  15  17
ATOM      1  F   UNL     1      20.936   7.154  22.940  0.00  0.00    -0.205 F 
ATOM     17  C   UNL     1      17.863   6.565  20.246  0.00  0.00    +0.037 A 
ATOM     19  C   UNL     1      18.975   5.725  20.229  0.00  0.00    +0.016 A 
ATOM     20  C   UNL     1      17.788   7.605  21.173  0.00  0.00    +0.016 A 
ATOM     23  C   UNL     1      20.013   5.923  21.140  0.00  0.00    +0.039 A 
ATOM     24  C   UNL     1      18.826   7.804  22.083  0.00  0.00    +0.039 A 
ATOM     25  C   UNL     1      19.939   6.963  22.067  0.00  0.00    +0.123 A 
ENDBRANCH  15  17
ENDBRANCH   9   6
TORSDOF 4
ENDMDL
MODEL 3
REMARK VINA RESULT:      -7.4      4.361      5.502
REMARK  Name = 25338610
REMARK  5 active torsions:
REMARK  status: ('A' for Active; 'I' for Inactive)
REMARK    1  A    between atoms: N_5  and  C_14
REMARK    2  A    between atoms: N_6  and  C_9
REMARK    3  A    between atoms: C_10  and  C_13
REMARK    4  A    between atoms: C_15  and  C_17
REMARK    5  A    between atoms: C_16  and  C_18
REMARK                            x       y       z     vdW  Elec       q    Type
REMARK                         _______ _______ _______ _____ _____    ______ ____
ROOT
ATOM      5  N   UNL     1      14.949   7.560  20.103  0.00  0.00    -0.293 NA
ATOM      9  C   UNL     1      12.906   7.332  21.203  0.00  0.00    +0.089 C 
ATOM     10  C   UNL     1      14.020   7.138  19.037  0.00  0.00    +0.147 C 
ATOM     11  C   UNL     1      12.635   7.129  19.712  0.00  0.00    +0.052 C 
ATOM     12  C   UNL     1      14.391   7.034  21.352  0.00  0.00    +0.107 C 
ATOM     14  C   UNL     1      16.317   7.106  19.884  0.00  0.00    +0.105 C 
ENDROOT
BRANCH  10  13
ATOM      3  O   UNL     1      13.576   7.494  16.661  0.00  0.00    -0.336 OA
ATOM      7  N   UNL     1      14.512   9.251  17.689  0.00  0.00    -0.190 NA
ATOM      8  N   UNL     1      13.723   8.486  15.682  0.00  0.00    -0.056 NA
ATOM     13  C   UNL     1      14.064   8.026  17.812  0.00  0.00    +0.245 A 
ATOM     16  C   UNL     1      14.281   9.489  16.365  0.00  0.00    +0.202 A 
BRANCH  16  18
ATOM      2  F   UNL     1      15.592  14.353  14.004  0.00  0.00    -0.205 F 
ATOM     18  C   UNL     1      14.620  10.744  15.756  0.00  0.00    +0.023 A 
ATOM     21  C   UNL     1      14.197  11.939  16.339  0.00  0.00    +0.014 A 
ATOM     22  C   UNL     1      15.371  10.768  14.581  0.00  0.00    +0.014 A 
ATOM     26  C   UNL     1      14.526  13.158  15.747  0.00  0.00    +0.039 A 
ATOM     27  C   UNL     1      15.699  11.987  13.989  0.00  0.00    +0.039 A 
ATOM     28  C   UNL     1      15.277  13.182  14.572  0.00  0.00    +0.123 A 
ENDBRANCH  16  18
ENDBRANCH  10  13
BRANCH   9   6
ATOM      4  O   UNL     1      10.542   8.193  22.584  0.00  0.00    -0.270 OA
ATOM      6  N   UNL     1      12.595   8.677  21.622  0.00  0.00    -0.307 N 
ATOM     15  C   UNL     1      11.421   8.996  22.287  0.00  0.00    +0.244 C 
ATOM     29  H   UNL     1      13.224   9.411  21.312  0.00  0.00    +0.149 HD
BRANCH  15  17
ATOM      1  F   UNL     1      10.732  14.419  23.570  0.00  0.00    -0.205 F 
ATOM     17  C   UNL     1      11.238  10.432  22.626  0.00  0.00    +0.037 A 
ATOM     19  C   UNL     1      10.932  10.805  23.935  0.00  0.00    +0.016 A 
ATOM     20  C   UNL     1      11.373  11.406  21.636  0.00  0.00    +0.016 A 
ATOM     23  C   UNL     1      10.760  12.152  24.253  0.00  0.00    +0.039 A 
ATOM     24  C   UNL     1      11.202  12.753  21.955  0.00  0.00    +0.039 A 
ATOM     25  C   UNL     1      10.896  13.126  23.264  0.00  0.00    +0.123 A 
ENDBRANCH  15  17
ENDBRANCH   9   6
TORSDOF 4
ENDMDL
MODEL 4
REMARK VINA RESULT:      -7.3      4.291      6.218
REMARK  Name = 25338610
REMARK  5 active torsions:
REMARK  status: ('A' for Active; 'I' for Inactive)
REMARK    1  A    between atoms: N_5  and  C_14
REMARK    2  A    between atoms: N_6  and  C_9
REMARK    3  A    between atoms: C_10  and  C_13
REMARK    4  A    between atoms: C_15  and  C_17
REMARK    5  A    between atoms: C_16  and  C_18
REMARK                            x       y       z     vdW  Elec       q    Type
REMARK                         _______ _______ _______ _____ _____    ______ ____
ROOT
ATOM      5  N   UNL     1      13.471   8.660  20.129  0.00  0.00    -0.293 NA
ATOM      9  C   UNL     1      12.346   8.827  18.094  0.00  0.00    +0.089 C 
ATOM     10  C   UNL     1      13.619   7.319  19.534  0.00  0.00    +0.147 C 
ATOM     11  C   UNL     1      13.014   7.452  18.123  0.00  0.00    +0.052 C 
ATOM     12  C   UNL     1      12.240   9.218  19.561  0.00  0.00    +0.107 C 
ATOM     14  C   UNL     1      13.437   8.641  21.586  0.00  0.00    +0.105 C 
ENDROOT
BRANCH  10  13
ATOM      3  O   UNL     1      15.450   6.185  18.379  0.00  0.00    -0.336 OA
ATOM      7  N   UNL     1      15.976   6.916  20.430  0.00  0.00    -0.190 NA
ATOM      8  N   UNL     1      16.787   5.824  18.590  0.00  0.00    -0.056 NA
ATOM     13  C   UNL     1      15.049   6.823  19.509  0.00  0.00    +0.245 A 
ATOM     16  C   UNL     1      17.023   6.289  19.820  0.00  0.00    +0.202 A 
BRANCH  16  18
ATOM      2  F   UNL     1      21.955   5.731  22.333  0.00  0.00    -0.205 F 
ATOM     18  C   UNL     1      18.295   6.145  20.468  0.00  0.00    +0.023 A 
ATOM     21  C   UNL     1      19.239   5.251  19.962  0.00  0.00    +0.014 A 
ATOM     22  C   UNL     1      18.588   6.899  21.604  0.00  0.00    +0.014 A 
ATOM     26  C   UNL     1      20.475   5.111  20.592  0.00  0.00    +0.039 A 
ATOM     27  C   UNL     1      19.825   6.760  22.234  0.00  0.00    +0.039 A 
ATOM     28  C   UNL     1      20.768   5.865  21.729  0.00  0.00    +0.123 A 
ENDBRANCH  16  18
ENDBRANCH  10  13
BRANCH   9   6
ATOM      4  O   UNL     1      12.479   9.083  15.238  0.00  0.00    -0.270 OA
ATOM      6  N   UNL     1      13.130   9.783  17.350  0.00  0.00    -0.307 N 
ATOM     15  C   UNL     1      13.129   9.829  15.965  0.00  0.00    +0.244 C 
ATOM     29  H   UNL     1      13.776  10.358  17.882  0.00  0.00    +0.149 HD
BRANCH  15  17
ATOM      1  F   UNL     1      16.463  13.702  13.638  0.00  0.00    -0.205 F 
ATOM     17  C   UNL     1      14.011  10.855  15.350  0.00  0.00    +0.037 A 
ATOM     19  C   UNL     1      15.339  10.968  15.759  0.00  0.00    +0.016 A 
ATOM     20  C   UNL     1      13.511  11.704  14.361  0.00  0.00    +0.016 A 
ATOM     23  C   UNL     1      16.167  11.930  15.182  0.00  0.00    +0.039 A 
ATOM     24  C   UNL     1      14.339  12.666  13.783  0.00  0.00    +0.039 A 
ATOM     25  C   UNL     1      15.668  12.779  14.193  0.00  0.00    +0.123 A 
ENDBRANCH  15  17
ENDBRANCH   9   6
TORSDOF 4
ENDMDL
MODEL 5
REMARK VINA RESULT:      -7.2     27.372     29.513
REMARK  Name = 25338610
REMARK  5 active torsions:
REMARK  status: ('A' for Active; 'I' for Inactive)
REMARK    1  A    between atoms: N_5  and  C_14
REMARK    2  A    between atoms: N_6  and  C_9
REMARK    3  A    between atoms: C_10  and  C_13
REMARK    4  A    between atoms: C_15  and  C_17
REMARK    5  A    between atoms: C_16  and  C_18
REMARK                            x       y       z     vdW  Elec       q    Type
REMARK                         _______ _______ _______ _____ _____    ______ ____
ROOT
ATOM      5  N   UNL     1      -4.422 -12.816  15.753  0.00  0.00    -0.293 NA
ATOM      9  C   UNL     1      -2.795 -11.443  14.803  0.00  0.00    +0.089 C 
ATOM     10  C   UNL     1      -4.082 -11.872  16.835  0.00  0.00    +0.147 C 
ATOM     11  C   UNL     1      -3.120 -10.863  16.180  0.00  0.00    +0.052 C 
ATOM     12  C   UNL     1      -3.231 -12.897  14.903  0.00  0.00    +0.107 C 
ATOM     14  C   UNL     1      -4.832 -14.126  16.243  0.00  0.00    +0.105 C 
ENDROOT
BRANCH  10  13
ATOM      3  O   UNL     1      -5.198 -10.893  18.776  0.00  0.00    -0.336 OA
ATOM      7  N   UNL     1      -6.433 -10.878  16.907  0.00  0.00    -0.190 NA
ATOM      8  N   UNL     1      -6.418 -10.297  19.119  0.00  0.00    -0.056 NA
ATOM     13  C   UNL     1      -5.290 -11.205  17.457  0.00  0.00    +0.245 A 
ATOM     16  C   UNL     1      -7.091 -10.324  17.966  0.00  0.00    +0.202 A 
BRANCH  16  18
ATOM      2  F   UNL     1     -12.254  -8.314  17.464  0.00  0.00    -0.205 F 
ATOM     18  C   UNL     1      -8.423  -9.805  17.837  0.00  0.00    +0.023 A 
ATOM     21  C   UNL     1      -9.483 -10.434  18.490  0.00  0.00    +0.014 A 
ATOM     22  C   UNL     1      -8.658  -8.673  17.056  0.00  0.00    +0.014 A 
ATOM     26  C   UNL     1     -10.777  -9.930  18.364  0.00  0.00    +0.039 A 
ATOM     27  C   UNL     1      -9.952  -8.169  16.930  0.00  0.00    +0.039 A 
ATOM     28  C   UNL     1     -11.012  -8.797  17.584  0.00  0.00    +0.123 A 
ENDBRANCH  16  18
ENDBRANCH  10  13
BRANCH   9   6
ATOM      4  O   UNL     1      -1.956 -11.145  12.074  0.00  0.00    -0.270 OA
ATOM      6  N   UNL     1      -3.505 -10.752  13.754  0.00  0.00    -0.307 N 
ATOM     15  C   UNL     1      -3.016 -10.661  12.460  0.00  0.00    +0.244 C 
ATOM     29  H   UNL     1      -4.334 -10.233  14.026  0.00  0.00    +0.149 HD
BRANCH  15  17
ATOM      1  F   UNL     1      -6.182  -7.760   8.842  0.00  0.00    -0.205 F 
ATOM     17  C   UNL     1      -3.854  -9.893  11.503  0.00  0.00    +0.037 A 
ATOM     19  C   UNL     1      -3.332  -9.518  10.265  0.00  0.00    +0.016 A 
ATOM     20  C   UNL     1      -5.162  -9.547  11.842  0.00  0.00    +0.016 A 
ATOM     23  C   UNL     1      -4.118  -8.797   9.366  0.00  0.00    +0.039 A 
ATOM     24  C   UNL     1      -5.949  -8.826  10.943  0.00  0.00    +0.039 A 
ATOM     25  C   UNL     1      -5.427  -8.451   9.705  0.00  0.00    +0.123 A 
ENDBRANCH  15  17
ENDBRANCH   9   6
TORSDOF 4
ENDMDL
MODEL 6
REMARK VINA RESULT:      -7.0     27.915     31.193
REMARK  Name = 25338610
REMARK  5 active torsions:
REMARK  status: ('A' for Active; 'I' for Inactive)
REMARK    1  A    between atoms: N_5  and  C_14
REMARK    2  A    between atoms: N_6  and  C_9
REMARK    3  A    between atoms: C_10  and  C_13
REMARK    4  A    between atoms: C_15  and  C_17
REMARK    5  A    between atoms: C_16  and  C_18
REMARK                            x       y       z     vdW  Elec       q    Type
REMARK                         _______ _______ _______ _____ _____    ______ ____
ROOT
ATOM      5  N   UNL     1     -12.106 -10.345  16.326  0.00  0.00    -0.293 NA
ATOM      9  C   UNL     1     -10.866 -10.523  18.293  0.00  0.00    +0.089 C 
ATOM     10  C   UNL     1     -12.452  -9.121  17.072  0.00  0.00    +0.147 C 
ATOM     11  C   UNL     1     -11.528  -9.144  18.306  0.00  0.00    +0.052 C 
ATOM     12  C   UNL     1     -11.726 -11.337  17.337  0.00  0.00    +0.107 C 
ATOM     14  C   UNL     1     -13.188 -10.824  15.475  0.00  0.00    +0.105 C 
ENDROOT
BRANCH  10  13
ATOM      3  O   UNL     1     -11.182  -7.118  16.482  0.00  0.00    -0.336 OA
ATOM      7  N   UNL     1     -13.103  -7.349  15.353  0.00  0.00    -0.190 NA
ATOM      8  N   UNL     1     -11.267  -6.012  15.627  0.00  0.00    -0.056 NA
ATOM     13  C   UNL     1     -12.302  -7.854  16.258  0.00  0.00    +0.245 A 
ATOM     16  C   UNL     1     -12.426  -6.219  14.996  0.00  0.00    +0.202 A 
BRANCH  16  18
ATOM      2  F   UNL     1     -14.401  -2.728  11.141  0.00  0.00    -0.205 F 
ATOM     18  C   UNL     1     -12.935  -5.319  14.001  0.00  0.00    +0.023 A 
ATOM     21  C   UNL     1     -12.057  -4.520  13.269  0.00  0.00    +0.014 A 
ATOM     22  C   UNL     1     -14.308  -5.242  13.768  0.00  0.00    +0.014 A 
ATOM     26  C   UNL     1     -12.552  -3.645  12.302  0.00  0.00    +0.039 A 
ATOM     27  C   UNL     1     -14.804  -4.367  12.802  0.00  0.00    +0.039 A 
ATOM     28  C   UNL     1     -13.926  -3.568  12.069  0.00  0.00    +0.123 A 
ENDBRANCH  16  18
ENDBRANCH  10  13
BRANCH   9   6
ATOM      4  O   UNL     1      -8.510 -10.914  19.884  0.00  0.00    -0.270 OA
ATOM      6  N   UNL     1      -9.498 -10.451  17.839  0.00  0.00    -0.307 N 
ATOM     15  C   UNL     1      -8.421 -10.656  18.687  0.00  0.00    +0.244 C 
ATOM     29  H   UNL     1      -9.347 -10.133  16.887  0.00  0.00    +0.149 HD
BRANCH  15  17
ATOM      1  F   UNL     1      -3.336 -10.143  16.362  0.00  0.00    -0.205 F 
ATOM     17  C   UNL     1      -7.076 -10.521  18.071  0.00  0.00    +0.037 A 
ATOM     19  C   UNL     1      -6.922  -9.813  16.880  0.00  0.00    +0.016 A 
ATOM     20  C   UNL     1      -5.965 -11.102  18.686  0.00  0.00    +0.016 A 
ATOM     23  C   UNL     1      -5.660  -9.686  16.302  0.00  0.00    +0.039 A 
ATOM     24  C   UNL     1      -4.702 -10.974  18.108  0.00  0.00    +0.039 A 
ATOM     25  C   UNL     1      -4.549 -10.266  16.916  0.00  0.00    +0.123 A 
ENDBRANCH  15  17
ENDBRANCH   9   6
TORSDOF 4
ENDMDL
MODEL 7
REMARK VINA RESULT:      -6.9     26.367     30.264
REMARK  Name = 25338610
REMARK  5 active torsions:
REMARK  status: ('A' for Active; 'I' for Inactive)
REMARK    1  A    between atoms: N_5  and  C_14
REMARK    2  A    between atoms: N_6  and  C_9
REMARK    3  A    between atoms: C_10  and  C_13
REMARK    4  A    between atoms: C_15  and  C_17
REMARK    5  A    between atoms: C_16  and  C_18
REMARK                            x       y       z     vdW  Elec       q    Type
REMARK                         _______ _______ _______ _____ _____    ______ ____
ROOT
ATOM      5  N   UNL     1      -8.253 -12.252  17.949  0.00  0.00    -0.293 NA
ATOM      9  C   UNL     1      -6.144 -11.736  18.799  0.00  0.00    +0.089 C 
ATOM     10  C   UNL     1      -8.482 -11.027  18.738  0.00  0.00    +0.147 C 
ATOM     11  C   UNL     1      -7.074 -10.585  19.184  0.00  0.00    +0.052 C 
ATOM     12  C   UNL     1      -7.086 -12.905  18.550  0.00  0.00    +0.107 C 
ATOM     14  C   UNL     1      -9.412 -13.136  17.912  0.00  0.00    +0.105 C 
ENDROOT
BRANCH  10  13
ATOM      3  O   UNL     1      -8.449  -9.034  17.326  0.00  0.00    -0.336 OA
ATOM      7  N   UNL     1     -10.506  -9.751  17.848  0.00  0.00    -0.190 NA
ATOM      8  N   UNL     1      -9.341  -8.148  16.706  0.00  0.00    -0.056 NA
ATOM     13  C   UNL     1      -9.217  -9.946  17.977  0.00  0.00    +0.245 A 
ATOM     16  C   UNL     1     -10.532  -8.637  17.061  0.00  0.00    +0.202 A 
BRANCH  16  18
ATOM      2  F   UNL     1     -15.321  -6.313  15.446  0.00  0.00    -0.205 F 
ATOM     18  C   UNL     1     -11.767  -8.037  16.645  0.00  0.00    +0.023 A 
ATOM     21  C   UNL     1     -12.976  -8.693  16.882  0.00  0.00    +0.014 A 
ATOM     22  C   UNL     1     -11.760  -6.800  16.001  0.00  0.00    +0.014 A 
ATOM     26  C   UNL     1     -14.176  -8.110  16.478  0.00  0.00    +0.039 A 
ATOM     27  C   UNL     1     -12.961  -6.217  15.596  0.00  0.00    +0.039 A 
ATOM     28  C   UNL     1     -14.169  -6.872  15.834  0.00  0.00    +0.123 A 
ENDBRANCH  16  18
ENDBRANCH  10  13
BRANCH   9   6
ATOM      4  O   UNL     1      -3.282 -11.646  18.602  0.00  0.00    -0.270 OA
ATOM      6  N   UNL     1      -5.371 -11.424  17.621  0.00  0.00    -0.307 N 
ATOM     15  C   UNL     1      -3.985 -11.406  17.625  0.00  0.00    +0.244 C 
ATOM     29  H   UNL     1      -5.886 -11.106  16.806  0.00  0.00    +0.149 HD
BRANCH  15  17
ATOM      1  F   UNL     1      -1.542 -10.017  12.764  0.00  0.00    -0.205 F 
ATOM     17  C   UNL     1      -3.338 -11.039  16.338  0.00  0.00    +0.037 A 
ATOM     19  C   UNL     1      -4.081 -11.044  15.158  0.00  0.00    +0.016 A 
ATOM     20  C   UNL     1      -1.987 -10.689  16.311  0.00  0.00    +0.016 A 
ATOM     23  C   UNL     1      -3.474 -10.700  13.950  0.00  0.00    +0.039 A 
ATOM     24  C   UNL     1      -1.381 -10.344  15.103  0.00  0.00    +0.039 A 
ATOM     25  C   UNL     1      -2.124 -10.349  13.923  0.00  0.00    +0.123 A 
ENDBRANCH  15  17
ENDBRANCH   9   6
TORSDOF 4
ENDMDL
MODEL 8
REMARK VINA RESULT:      -6.9     27.439     29.739
REMARK  Name = 25338610
REMARK  5 active torsions:
REMARK  status: ('A' for Active; 'I' for Inactive)
REMARK    1  A    between atoms: N_5  and  C_14
REMARK    2  A    between atoms: N_6  and  C_9
REMARK    3  A    between atoms: C_10  and  C_13
REMARK    4  A    between atoms: C_15  and  C_17
REMARK    5  A    between atoms: C_16  and  C_18
REMARK                            x       y       z     vdW  Elec       q    Type
REMARK                         _______ _______ _______ _____ _____    ______ ____
ROOT
ATOM      5  N   UNL     1      -5.987 -12.263  16.671  0.00  0.00    -0.293 NA
ATOM      9  C   UNL     1      -4.054 -11.015  16.292  0.00  0.00    +0.089 C 
ATOM     10  C   UNL     1      -6.114 -11.127  17.602  0.00  0.00    +0.147 C 
ATOM     11  C   UNL     1      -4.923 -10.211  17.261  0.00  0.00    +0.052 C 
ATOM     12  C   UNL     1      -4.549 -12.446  16.454  0.00  0.00    +0.107 C 
ATOM     14  C   UNL     1      -6.622 -13.481  17.161  0.00  0.00    +0.105 C 
ENDROOT
BRANCH  10  13
ATOM      3  O   UNL     1      -8.342 -10.662  18.492  0.00  0.00    -0.336 OA
ATOM      7  N   UNL     1      -7.870  -9.571  16.594  0.00  0.00    -0.190 NA
ATOM      8  N   UNL     1      -9.477  -9.900  18.188  0.00  0.00    -0.056 NA
ATOM     13  C   UNL     1      -7.444 -10.411  17.505  0.00  0.00    +0.245 A 
ATOM     16  C   UNL     1      -9.122  -9.286  17.057  0.00  0.00    +0.202 A 
BRANCH  16  18
ATOM      2  F   UNL     1     -12.495  -5.772  14.370  0.00  0.00    -0.205 F 
ATOM     18  C   UNL     1      -9.992  -8.379  16.364  0.00  0.00    +0.023 A 
ATOM     21  C   UNL     1     -10.420  -8.675  15.070  0.00  0.00    +0.014 A 
ATOM     22  C   UNL     1     -10.409  -7.202  16.984  0.00  0.00    +0.014 A 
ATOM     26  C   UNL     1     -11.266  -7.795  14.397  0.00  0.00    +0.039 A 
ATOM     27  C   UNL     1     -11.255  -6.321  16.311  0.00  0.00    +0.039 A 
ATOM     28  C   UNL     1     -11.683  -6.617  15.017  0.00  0.00    +0.123 A 
ENDBRANCH  16  18
ENDBRANCH  10  13
BRANCH   9   6
ATOM      4  O   UNL     1      -2.214 -11.422  14.128  0.00  0.00    -0.270 OA
ATOM      6  N   UNL     1      -4.209 -10.556  14.933  0.00  0.00    -0.307 N 
ATOM     15  C   UNL     1      -3.260 -10.803  13.953  0.00  0.00    +0.244 C 
ATOM     29  H   UNL     1      -4.995  -9.943  14.742  0.00  0.00    +0.149 HD
BRANCH  15  17
ATOM      1  F   UNL     1      -4.371  -8.671   8.878  0.00  0.00    -0.205 F 
ATOM     17  C   UNL     1      -3.554 -10.240  12.609  0.00  0.00    +0.037 A 
ATOM     19  C   UNL     1      -4.861  -9.889  12.271  0.00  0.00    +0.016 A 
ATOM     20  C   UNL     1      -2.523 -10.060  11.687  0.00  0.00    +0.016 A 
ATOM     23  C   UNL     1      -5.137  -9.361  11.011  0.00  0.00    +0.039 A 
ATOM     24  C   UNL     1      -2.799  -9.530  10.426  0.00  0.00    +0.039 A 
ATOM     25  C   UNL     1      -4.106  -9.180  10.088  0.00  0.00    +0.123 A 
ENDBRANCH  15  17
ENDBRANCH   9   6
TORSDOF 4
ENDMDL
MODEL 9
REMARK VINA RESULT:      -6.9     27.246     30.133
REMARK  Name = 25338610
REMARK  5 active torsions:
REMARK  status: ('A' for Active; 'I' for Inactive)
REMARK    1  A    between atoms: N_5  and  C_14
REMARK    2  A    between atoms: N_6  and  C_9
REMARK    3  A    between atoms: C_10  and  C_13
REMARK    4  A    between atoms: C_15  and  C_17
REMARK    5  A    between atoms: C_16  and  C_18
REMARK                            x       y       z     vdW  Elec       q    Type
REMARK                         _______ _______ _______ _____ _____    ______ ____
ROOT
ATOM      5  N   UNL     1      -5.879 -12.221  16.818  0.00  0.00    -0.293 NA
ATOM      9  C   UNL     1      -3.911 -11.004  16.534  0.00  0.00    +0.089 C 
ATOM     10  C   UNL     1      -6.040 -11.075  17.732  0.00  0.00    +0.147 C 
ATOM     11  C   UNL     1      -4.819 -10.178  17.447  0.00  0.00    +0.052 C 
ATOM     12  C   UNL     1      -4.434 -12.425  16.680  0.00  0.00    +0.107 C 
ATOM     14  C   UNL     1      -6.557 -13.426  17.284  0.00  0.00    +0.105 C 
ENDROOT
BRANCH  10  13
ATOM      3  O   UNL     1      -7.322  -9.217  16.796  0.00  0.00    -0.336 OA
ATOM      7  N   UNL     1      -8.536 -10.631  18.038  0.00  0.00    -0.190 NA
ATOM      8  N   UNL     1      -8.632  -8.722  16.782  0.00  0.00    -0.056 NA
ATOM     13  C   UNL     1      -7.352 -10.342  17.557  0.00  0.00    +0.245 A 
ATOM     16  C   UNL     1      -9.287  -9.609  17.536  0.00  0.00    +0.202 A 
BRANCH  16  18
ATOM      2  F   UNL     1     -14.736  -9.204  18.581  0.00  0.00    -0.205 F 
ATOM     18  C   UNL     1     -10.693  -9.505  17.805  0.00  0.00    +0.023 A 
ATOM     21  C   UNL     1     -11.551  -8.977  16.841  0.00  0.00    +0.014 A 
ATOM     22  C   UNL     1     -11.201  -9.930  19.033  0.00  0.00    +0.014 A 
ATOM     26  C   UNL     1     -12.917  -8.875  17.103  0.00  0.00    +0.039 A 
ATOM     27  C   UNL     1     -12.567  -9.829  19.295  0.00  0.00    +0.039 A 
ATOM     28  C   UNL     1     -13.425  -9.301  18.330  0.00  0.00    +0.123 A 
ENDBRANCH  16  18
ENDBRANCH  10  13
BRANCH   9   6
ATOM      4  O   UNL     1      -2.185 -11.786  14.379  0.00  0.00    -0.270 OA
ATOM      6  N   UNL     1      -3.985 -10.555  15.165  0.00  0.00    -0.307 N 
ATOM     15  C   UNL     1      -3.102 -10.992  14.190  0.00  0.00    +0.244 C 
ATOM     29  H   UNL     1      -4.648  -9.813  14.960  0.00  0.00    +0.149 HD
BRANCH  15  17
ATOM      1  F   UNL     1      -3.831  -8.808   9.068  0.00  0.00    -0.205 F 
ATOM     17  C   UNL     1      -3.295 -10.414  12.834  0.00  0.00    +0.037 A 
ATOM     19  C   UNL     1      -4.582 -10.150  12.366  0.00  0.00    +0.016 A 
ATOM     20  C   UNL     1      -2.189 -10.136  12.030  0.00  0.00    +0.016 A 
ATOM     23  C   UNL     1      -4.763  -9.608  11.094  0.00  0.00    +0.039 A 
ATOM     24  C   UNL     1      -2.370  -9.594  10.758  0.00  0.00    +0.039 A 
ATOM     25  C   UNL     1      -3.657  -9.329  10.290  0.00  0.00    +0.123 A 
ENDBRANCH  15  17
ENDBRANCH   9   6
TORSDOF 4
ENDMDL
MODEL 10
REMARK VINA RESULT:      -6.7     24.753     27.355
REMARK  Name = 25338610
REMARK  5 active torsions:
REMARK  status: ('A' for Active; 'I' for Inactive)
REMARK    1  A    between atoms: N_5  and  C_14
REMARK    2  A    between atoms: N_6  and  C_9
REMARK    3  A    between atoms: C_10  and  C_13
REMARK    4  A    between atoms: C_15  and  C_17
REMARK    5  A    between atoms: C_16  and  C_18
REMARK                            x       y       z     vdW  Elec       q    Type
REMARK                         _______ _______ _______ _____ _____    ______ ____
ROOT
ATOM      5  N   UNL     1       6.623   6.841  -5.277  0.00  0.00    -0.293 NA
ATOM      9  C   UNL     1       4.628   7.043  -4.088  0.00  0.00    +0.089 C 
ATOM     10  C   UNL     1       7.061   6.983  -3.876  0.00  0.00    +0.147 C 
ATOM     11  C   UNL     1       5.755   6.965  -3.058  0.00  0.00    +0.052 C 
ATOM     12  C   UNL     1       5.321   7.510  -5.360  0.00  0.00    +0.107 C 
ATOM     14  C   UNL     1       7.577   7.387  -6.235  0.00  0.00    +0.105 C 
ENDROOT
BRANCH  10  13
ATOM      3  O   UNL     1       7.969   4.724  -4.093  0.00  0.00    -0.336 OA
ATOM      7  N   UNL     1       8.952   5.956  -2.502  0.00  0.00    -0.190 NA
ATOM      8  N   UNL     1       8.951   3.907  -3.518  0.00  0.00    -0.056 NA
ATOM     13  C   UNL     1       8.037   5.912  -3.437  0.00  0.00    +0.245 A 
ATOM     16  C   UNL     1       9.487   4.704  -2.589  0.00  0.00    +0.202 A 
BRANCH  16  18
ATOM      2  F   UNL     1      13.639   3.063   0.730  0.00  0.00    -0.205 F 
ATOM     18  C   UNL     1      10.557   4.280  -1.733  0.00  0.00    +0.023 A 
ATOM     21  C   UNL     1      10.602   4.711  -0.407  0.00  0.00    +0.014 A 
ATOM     22  C   UNL     1      11.554   3.438  -2.227  0.00  0.00    +0.014 A 
ATOM     26  C   UNL     1      11.643   4.299   0.425  0.00  0.00    +0.039 A 
ATOM     27  C   UNL     1      12.595   3.027  -1.395  0.00  0.00    +0.039 A 
ATOM     28  C   UNL     1      12.640   3.457  -0.069  0.00  0.00    +0.123 A 
ENDBRANCH  16  18
ENDBRANCH  10  13
BRANCH   9   6
ATOM      4  O   UNL     1       1.921   6.584  -4.926  0.00  0.00    -0.270 OA
ATOM      6  N   UNL     1       3.990   5.763  -4.277  0.00  0.00    -0.307 N 
ATOM     15  C   UNL     1       2.671   5.642  -4.686  0.00  0.00    +0.244 C 
ATOM     29  H   UNL     1       4.515   4.942  -3.990  0.00  0.00    +0.149 HD
BRANCH  15  17
ATOM      1  F   UNL     1       0.717   0.398  -5.146  0.00  0.00    -0.205 F 
ATOM     17  C   UNL     1       2.154   4.254  -4.807  0.00  0.00    +0.037 A 
ATOM     19  C   UNL     1       0.882   3.939  -4.329  0.00  0.00    +0.016 A 
ATOM     20  C   UNL     1       2.941   3.265  -5.399  0.00  0.00    +0.016 A 
ATOM     23  C   UNL     1       0.397   2.637  -4.442  0.00  0.00    +0.039 A 
ATOM     24  C   UNL     1       2.455   1.963  -5.513  0.00  0.00    +0.039 A 
ATOM     25  C   UNL     1       1.183   1.648  -5.036  0.00  0.00    +0.123 A 
ENDBRANCH  15  17
ENDBRANCH   9   6
TORSDOF 4
ENDMDL
