MODEL 1
REMARK VINA RESULT:      -5.3      0.000      0.000
REMARK  Name = 75537136
REMARK  5 active torsions:
REMARK  status: ('A' for Active; 'I' for Inactive)
REMARK    1  A    between atoms: O_2  and  C_17
REMARK    2  A    between atoms: O_2  and  C_18
REMARK    3  A    between atoms: N_3  and  C_6
REMARK    4  A    between atoms: N_5  and  C_16
REMARK    5  A    between atoms: C_16  and  C_17
REMARK                            x       y       z     vdW  Elec       q    Type
REMARK                         _______ _______ _______ _____ _____    ______ ____
ROOT
ATOM      1  O   UNL     1      12.033   6.294  19.388  0.00  0.00    -0.252 OA
ATOM      3  N   UNL     1      11.413   9.760  23.038  0.00  0.00    -0.296 NA
ATOM      4  N   UNL     1      12.207   7.847  21.141  0.00  0.00    -0.278 N 
ATOM      5  N   UNL     1      13.766   7.888  19.526  0.00  0.00    -0.281 N 
ATOM      7  C   UNL     1      13.168   8.833  21.589  0.00  0.00    +0.109 C 
ATOM      8  C   UNL     1      12.453  10.103  22.047  0.00  0.00    +0.108 C 
ATOM     12  C   UNL     1      10.410   8.847  22.456  0.00  0.00    +0.104 C 
ATOM     13  C   UNL     1      11.058   7.547  21.971  0.00  0.00    +0.125 C 
ATOM     14  C   UNL     1      14.091   9.014  20.385  0.00  0.00    +0.133 C 
ATOM     15  C   UNL     1      12.599   7.223  19.950  0.00  0.00    +0.305 C 
ENDROOT
BRANCH   3   6
ATOM      6  C   UNL     1      10.752  10.980  23.478  0.00  0.00    +0.057 C 
ATOM      9  C   UNL     1      11.547  12.202  22.972  0.00  0.00    +0.019 C 
ATOM     10  C   UNL     1      11.241  11.342  24.896  0.00  0.00    +0.019 C 
ATOM     11  C   UNL     1      11.369  12.796  24.388  0.00  0.00    +0.003 C 
ENDBRANCH   3   6
BRANCH   5  16
ATOM     16  C   UNL     1      14.500   7.616  18.309  0.00  0.00    +0.137 C 
BRANCH  16  17
ATOM     17  C   UNL     1      14.132   8.591  17.206  0.00  0.00    +0.178 C 
BRANCH  17   2
ATOM      2  O   UNL     1      12.965   8.131  16.539  0.00  0.00    -0.381 OA
ATOM     18  C   UNL     1      11.908   9.078  16.624  0.00  0.00    +0.194 C 
ENDBRANCH  17   2
ENDBRANCH  16  17
ENDBRANCH   5  16
TORSDOF 4
ENDMDL
MODEL 2
REMARK VINA RESULT:      -5.2      4.649      7.262
REMARK  Name = 75537136
REMARK  5 active torsions:
REMARK  status: ('A' for Active; 'I' for Inactive)
REMARK    1  A    between atoms: O_2  and  C_17
REMARK    2  A    between atoms: O_2  and  C_18
REMARK    3  A    between atoms: N_3  and  C_6
REMARK    4  A    between atoms: N_5  and  C_16
REMARK    5  A    between atoms: C_16  and  C_17
REMARK                            x       y       z     vdW  Elec       q    Type
REMARK                         _______ _______ _______ _____ _____    ______ ____
ROOT
ATOM      1  O   UNL     1      15.454   9.760  19.970  0.00  0.00    -0.252 OA
ATOM      3  N   UNL     1      19.202   6.582  21.227  0.00  0.00    -0.296 NA
ATOM      4  N   UNL     1      16.848   7.969  20.572  0.00  0.00    -0.278 N 
ATOM      5  N   UNL     1      15.285   7.617  18.998  0.00  0.00    -0.281 N 
ATOM      7  C   UNL     1      16.931   6.551  20.287  0.00  0.00    +0.109 C 
ATOM      8  C   UNL     1      18.387   6.134  20.080  0.00  0.00    +0.108 C 
ATOM     12  C   UNL     1      19.155   8.051  21.366  0.00  0.00    +0.104 C 
ATOM     13  C   UNL     1      17.720   8.543  21.576  0.00  0.00    +0.125 C 
ATOM     14  C   UNL     1      16.032   6.373  19.065  0.00  0.00    +0.133 C 
ATOM     15  C   UNL     1      15.815   8.595  19.864  0.00  0.00    +0.305 C 
ENDROOT
BRANCH   3   6
ATOM      6  C   UNL     1      20.581   6.165  21.025  0.00  0.00    +0.057 C 
ATOM      9  C   UNL     1      20.602   4.730  20.454  0.00  0.00    +0.019 C 
ATOM     10  C   UNL     1      21.131   5.570  22.339  0.00  0.00    +0.019 C 
ATOM     11  C   UNL     1      21.723   4.432  21.475  0.00  0.00    +0.003 C 
ENDBRANCH   3   6
BRANCH   5  16
ATOM     16  C   UNL     1      14.227   7.825  18.035  0.00  0.00    +0.137 C 
BRANCH  16  17
ATOM     17  C   UNL     1      12.875   7.424  18.594  0.00  0.00    +0.178 C 
BRANCH  17   2
ATOM      2  O   UNL     1      11.949   7.270  17.528  0.00  0.00    -0.381 OA
ATOM     18  C   UNL     1      11.266   8.486  17.250  0.00  0.00    +0.194 C 
ENDBRANCH  17   2
ENDBRANCH  16  17
ENDBRANCH   5  16
TORSDOF 4
ENDMDL
MODEL 3
REMARK VINA RESULT:      -5.2      2.912      4.753
REMARK  Name = 75537136
REMARK  5 active torsions:
REMARK  status: ('A' for Active; 'I' for Inactive)
REMARK    1  A    between atoms: O_2  and  C_17
REMARK    2  A    between atoms: O_2  and  C_18
REMARK    3  A    between atoms: N_3  and  C_6
REMARK    4  A    between atoms: N_5  and  C_16
REMARK    5  A    between atoms: C_16  and  C_17
REMARK                            x       y       z     vdW  Elec       q    Type
REMARK                         _______ _______ _______ _____ _____    ______ ____
ROOT
ATOM      1  O   UNL     1      13.847   8.467  15.050  0.00  0.00    -0.252 OA
ATOM      3  N   UNL     1      13.364   8.331  20.097  0.00  0.00    -0.296 NA
ATOM      4  N   UNL     1      13.954   8.736  17.381  0.00  0.00    -0.278 N 
ATOM      5  N   UNL     1      13.941  10.579  16.097  0.00  0.00    -0.281 N 
ATOM      7  C   UNL     1      14.146   9.828  18.312  0.00  0.00    +0.109 C 
ATOM      8  C   UNL     1      13.209   9.677  19.510  0.00  0.00    +0.108 C 
ATOM     12  C   UNL     1      13.029   7.284  19.111  0.00  0.00    +0.104 C 
ATOM     13  C   UNL     1      13.931   7.375  17.878  0.00  0.00    +0.125 C 
ATOM     14  C   UNL     1      13.907  11.075  17.463  0.00  0.00    +0.133 C 
ATOM     15  C   UNL     1      13.910   9.171  16.050  0.00  0.00    +0.305 C 
ENDROOT
BRANCH   3   6
ATOM      6  C   UNL     1      12.479   8.207  21.245  0.00  0.00    +0.057 C 
ATOM      9  C   UNL     1      12.010   6.742  21.372  0.00  0.00    +0.019 C 
ATOM     10  C   UNL     1      11.036   8.554  20.817  0.00  0.00    +0.019 C 
ATOM     11  C   UNL     1      10.592   7.307  21.615  0.00  0.00    +0.003 C 
ENDBRANCH   3   6
BRANCH   5  16
ATOM     16  C   UNL     1      13.864  11.465  14.957  0.00  0.00    +0.137 C 
BRANCH  16  17
ATOM     17  C   UNL     1      15.231  11.708  14.345  0.00  0.00    +0.178 C 
BRANCH  17   2
ATOM      2  O   UNL     1      15.251  11.201  13.018  0.00  0.00    -0.381 OA
ATOM     18  C   UNL     1      16.030  12.022  12.158  0.00  0.00    +0.194 C 
ENDBRANCH  17   2
ENDBRANCH  16  17
ENDBRANCH   5  16
TORSDOF 4
ENDMDL
MODEL 4
REMARK VINA RESULT:      -5.1     13.870     16.696
REMARK  Name = 75537136
REMARK  5 active torsions:
REMARK  status: ('A' for Active; 'I' for Inactive)
REMARK    1  A    between atoms: O_2  and  C_17
REMARK    2  A    between atoms: O_2  and  C_18
REMARK    3  A    between atoms: N_3  and  C_6
REMARK    4  A    between atoms: N_5  and  C_16
REMARK    5  A    between atoms: C_16  and  C_17
REMARK                            x       y       z     vdW  Elec       q    Type
REMARK                         _______ _______ _______ _____ _____    ______ ____
ROOT
ATOM      1  O   UNL     1      13.437   6.759   2.893  0.00  0.00    -0.252 OA
ATOM      3  N   UNL     1      10.598   6.318   7.073  0.00  0.00    -0.296 NA
ATOM      4  N   UNL     1      11.766   6.522   4.527  0.00  0.00    -0.278 N 
ATOM      5  N   UNL     1      11.691   5.182   2.726  0.00  0.00    -0.281 N 
ATOM      7  C   UNL     1      10.530   5.782   4.675  0.00  0.00    +0.109 C 
ATOM      8  C   UNL     1      10.409   5.229   6.095  0.00  0.00    +0.108 C 
ATOM     12  C   UNL     1      11.933   6.933   6.927  0.00  0.00    +0.104 C 
ATOM     13  C   UNL     1      12.126   7.511   5.522  0.00  0.00    +0.125 C 
ATOM     14  C   UNL     1      10.606   4.724   3.577  0.00  0.00    +0.133 C 
ATOM     15  C   UNL     1      12.424   6.226   3.326  0.00  0.00    +0.305 C 
ENDROOT
BRANCH   3   6
ATOM      6  C   UNL     1      10.465   5.780   8.419  0.00  0.00    +0.057 C 
ATOM      9  C   UNL     1       9.944   4.329   8.339  0.00  0.00    +0.019 C 
ATOM     10  C   UNL     1       9.082   6.166   8.987  0.00  0.00    +0.019 C 
ATOM     11  C   UNL     1       8.973   4.705   9.481  0.00  0.00    +0.003 C 
ENDBRANCH   3   6
BRANCH   5  16
ATOM     16  C   UNL     1      12.029   4.514   1.489  0.00  0.00    +0.137 C 
BRANCH  16  17
ATOM     17  C   UNL     1      12.644   3.151   1.740  0.00  0.00    +0.178 C 
BRANCH  17   2
ATOM      2  O   UNL     1      13.857   3.038   1.009  0.00  0.00    -0.381 OA
ATOM     18  C   UNL     1      14.922   3.724   1.656  0.00  0.00    +0.194 C 
ENDBRANCH  17   2
ENDBRANCH  16  17
ENDBRANCH   5  16
TORSDOF 4
ENDMDL
MODEL 5
REMARK VINA RESULT:      -5.1      3.268      5.202
REMARK  Name = 75537136
REMARK  5 active torsions:
REMARK  status: ('A' for Active; 'I' for Inactive)
REMARK    1  A    between atoms: O_2  and  C_17
REMARK    2  A    between atoms: O_2  and  C_18
REMARK    3  A    between atoms: N_3  and  C_6
REMARK    4  A    between atoms: N_5  and  C_16
REMARK    5  A    between atoms: C_16  and  C_17
REMARK                            x       y       z     vdW  Elec       q    Type
REMARK                         _______ _______ _______ _____ _____    ______ ____
ROOT
ATOM      1  O   UNL     1      11.873   9.599  19.912  0.00  0.00    -0.252 OA
ATOM      3  N   UNL     1      15.761   6.546  21.047  0.00  0.00    -0.296 NA
ATOM      4  N   UNL     1      13.503   7.918  20.093  0.00  0.00    -0.278 N 
ATOM      5  N   UNL     1      12.929   8.626  18.041  0.00  0.00    -0.281 N 
ATOM      7  C   UNL     1      14.228   7.046  19.192  0.00  0.00    +0.109 C 
ATOM      8  C   UNL     1      15.689   6.933  19.624  0.00  0.00    +0.108 C 
ATOM     12  C   UNL     1      15.102   7.554  21.901  0.00  0.00    +0.104 C 
ATOM     13  C   UNL     1      13.628   7.723  21.523  0.00  0.00    +0.125 C 
ATOM     14  C   UNL     1      14.010   7.681  17.820  0.00  0.00    +0.133 C 
ATOM     15  C   UNL     1      12.665   8.811  19.413  0.00  0.00    +0.305 C 
ENDROOT
BRANCH   3   6
ATOM      6  C   UNL     1      17.157   6.426  21.439  0.00  0.00    +0.057 C 
ATOM      9  C   UNL     1      17.799   7.829  21.479  0.00  0.00    +0.019 C 
ATOM     10  C   UNL     1      18.016   6.149  20.187  0.00  0.00    +0.019 C 
ATOM     11  C   UNL     1      19.002   7.206  20.736  0.00  0.00    +0.003 C 
ENDBRANCH   3   6
BRANCH   5  16
ATOM     16  C   UNL     1      12.331   9.373  16.957  0.00  0.00    +0.137 C 
BRANCH  16  17
ATOM     17  C   UNL     1      13.169   9.294  15.695  0.00  0.00    +0.178 C 
BRANCH  17   2
ATOM      2  O   UNL     1      12.982  10.476  14.929  0.00  0.00    -0.381 OA
ATOM     18  C   UNL     1      14.059  11.387  15.103  0.00  0.00    +0.194 C 
ENDBRANCH  17   2
ENDBRANCH  16  17
ENDBRANCH   5  16
TORSDOF 4
ENDMDL
MODEL 6
REMARK VINA RESULT:      -4.9      3.858      5.380
REMARK  Name = 75537136
REMARK  5 active torsions:
REMARK  status: ('A' for Active; 'I' for Inactive)
REMARK    1  A    between atoms: O_2  and  C_17
REMARK    2  A    between atoms: O_2  and  C_18
REMARK    3  A    between atoms: N_3  and  C_6
REMARK    4  A    between atoms: N_5  and  C_16
REMARK    5  A    between atoms: C_16  and  C_17
REMARK                            x       y       z     vdW  Elec       q    Type
REMARK                         _______ _______ _______ _____ _____    ______ ____
ROOT
ATOM      1  O   UNL     1      17.435   9.464  20.815  0.00  0.00    -0.252 OA
ATOM      3  N   UNL     1      12.632   8.135  19.870  0.00  0.00    -0.296 NA
ATOM      4  N   UNL     1      15.405   8.505  20.126  0.00  0.00    -0.278 N 
ATOM      5  N   UNL     1      17.047   7.137  20.818  0.00  0.00    -0.281 N 
ATOM      7  C   UNL     1      14.893   7.171  19.886  0.00  0.00    +0.109 C 
ATOM      8  C   UNL     1      13.465   7.046  20.418  0.00  0.00    +0.108 C 
ATOM     12  C   UNL     1      13.161   9.455  20.268  0.00  0.00    +0.104 C 
ATOM     13  C   UNL     1      14.595   9.651  19.768  0.00  0.00    +0.125 C 
ATOM     14  C   UNL     1      15.914   6.262  20.567  0.00  0.00    +0.133 C 
ATOM     15  C   UNL     1      16.720   8.492  20.608  0.00  0.00    +0.305 C 
ENDROOT
BRANCH   3   6
ATOM      6  C   UNL     1      11.273   7.994  20.371  0.00  0.00    +0.057 C 
ATOM      9  C   UNL     1      11.045   9.002  21.518  0.00  0.00    +0.019 C 
ATOM     10  C   UNL     1      11.238   6.882  21.441  0.00  0.00    +0.019 C 
ATOM     11  C   UNL     1      10.372   7.843  22.288  0.00  0.00    +0.003 C 
ENDBRANCH   3   6
BRANCH   5  16
ATOM     16  C   UNL     1      18.292   6.642  21.361  0.00  0.00    +0.137 C 
BRANCH  16  17
ATOM     17  C   UNL     1      19.106   5.908  20.311  0.00  0.00    +0.178 C 
BRANCH  17   2
ATOM      2  O   UNL     1      20.485   6.200  20.494  0.00  0.00    -0.381 OA
ATOM     18  C   UNL     1      21.267   5.014  20.546  0.00  0.00    +0.194 C 
ENDBRANCH  17   2
ENDBRANCH  16  17
ENDBRANCH   5  16
TORSDOF 4
ENDMDL
MODEL 7
REMARK VINA RESULT:      -4.8      3.756      5.753
REMARK  Name = 75537136
REMARK  5 active torsions:
REMARK  status: ('A' for Active; 'I' for Inactive)
REMARK    1  A    between atoms: O_2  and  C_17
REMARK    2  A    between atoms: O_2  and  C_18
REMARK    3  A    between atoms: N_3  and  C_6
REMARK    4  A    between atoms: N_5  and  C_16
REMARK    5  A    between atoms: C_16  and  C_17
REMARK                            x       y       z     vdW  Elec       q    Type
REMARK                         _______ _______ _______ _____ _____    ______ ____
ROOT
ATOM      1  O   UNL     1      13.568  11.915  18.026  0.00  0.00    -0.252 OA
ATOM      3  N   UNL     1      14.625   7.304  19.855  0.00  0.00    -0.296 NA
ATOM      4  N   UNL     1      13.758   9.632  18.545  0.00  0.00    -0.278 N 
ATOM      5  N   UNL     1      13.777  10.236  16.382  0.00  0.00    -0.281 N 
ATOM      7  C   UNL     1      13.770   8.380  17.817  0.00  0.00    +0.109 C 
ATOM      8  C   UNL     1      14.824   7.438  18.398  0.00  0.00    +0.108 C 
ATOM     12  C   UNL     1      14.751   8.613  20.527  0.00  0.00    +0.104 C 
ATOM     13  C   UNL     1      13.721   9.612  19.993  0.00  0.00    +0.125 C 
ATOM     14  C   UNL     1      14.013   8.803  16.370  0.00  0.00    +0.133 C 
ATOM     15  C   UNL     1      13.682  10.742  17.693  0.00  0.00    +0.305 C 
ENDROOT
BRANCH   3   6
ATOM      6  C   UNL     1      15.624   6.392  20.392  0.00  0.00    +0.057 C 
ATOM      9  C   UNL     1      16.695   7.201  21.155  0.00  0.00    +0.019 C 
ATOM     10  C   UNL     1      16.699   6.125  19.317  0.00  0.00    +0.019 C 
ATOM     11  C   UNL     1      17.746   6.325  20.437  0.00  0.00    +0.003 C 
ENDBRANCH   3   6
BRANCH   5  16
ATOM     16  C   UNL     1      13.796  11.026  15.170  0.00  0.00    +0.137 C 
BRANCH  16  17
ATOM     17  C   UNL     1      15.208  11.207  14.643  0.00  0.00    +0.178 C 
BRANCH  17   2
ATOM      2  O   UNL     1      15.201  11.095  13.227  0.00  0.00    -0.381 OA
ATOM     18  C   UNL     1      14.862  12.329  12.608  0.00  0.00    +0.194 C 
ENDBRANCH  17   2
ENDBRANCH  16  17
ENDBRANCH   5  16
TORSDOF 4
ENDMDL
MODEL 8
REMARK VINA RESULT:      -4.8     25.957     27.258
REMARK  Name = 75537136
REMARK  5 active torsions:
REMARK  status: ('A' for Active; 'I' for Inactive)
REMARK    1  A    between atoms: O_2  and  C_17
REMARK    2  A    between atoms: O_2  and  C_18
REMARK    3  A    between atoms: N_3  and  C_6
REMARK    4  A    between atoms: N_5  and  C_16
REMARK    5  A    between atoms: C_16  and  C_17
REMARK                            x       y       z     vdW  Elec       q    Type
REMARK                         _______ _______ _______ _____ _____    ______ ____
ROOT
ATOM      1  O   UNL     1      -2.127 -10.755  16.435  0.00  0.00    -0.252 OA
ATOM      3  N   UNL     1      -3.441 -11.297  11.566  0.00  0.00    -0.296 NA
ATOM      4  N   UNL     1      -3.073 -11.281  14.351  0.00  0.00    -0.278 N 
ATOM      5  N   UNL     1      -4.453 -10.767  16.046  0.00  0.00    -0.281 N 
ATOM      7  C   UNL     1      -4.402 -11.503  13.818  0.00  0.00    +0.109 C 
ATOM      8  C   UNL     1      -4.540 -10.850  12.444  0.00  0.00    +0.108 C 
ATOM     12  C   UNL     1      -2.129 -10.921  12.129  0.00  0.00    +0.104 C 
ATOM     13  C   UNL     1      -1.921 -11.542  13.513  0.00  0.00    +0.125 C 
ATOM     14  C   UNL     1      -5.324 -10.935  14.896  0.00  0.00    +0.133 C 
ATOM     15  C   UNL     1      -3.095 -10.918  15.703  0.00  0.00    +0.305 C 
ENDROOT
BRANCH   3   6
ATOM      6  C   UNL     1      -3.594 -10.681  10.257  0.00  0.00    +0.057 C 
ATOM      9  C   UNL     1      -2.959  -9.274  10.278  0.00  0.00    +0.019 C 
ATOM     10  C   UNL     1      -4.967  -9.979  10.181  0.00  0.00    +0.019 C 
ATOM     11  C   UNL     1      -4.225  -8.785   9.538  0.00  0.00    +0.003 C 
ENDBRANCH   3   6
BRANCH   5  16
ATOM     16  C   UNL     1      -4.959 -10.348  17.335  0.00  0.00    +0.137 C 
BRANCH  16  17
ATOM     17  C   UNL     1      -5.544 -11.513  18.111  0.00  0.00    +0.178 C 
BRANCH  17   2
ATOM      2  O   UNL     1      -4.540 -12.497  18.314  0.00  0.00    -0.381 OA
ATOM     18  C   UNL     1      -3.740 -12.200  19.451  0.00  0.00    +0.194 C 
ENDBRANCH  17   2
ENDBRANCH  16  17
ENDBRANCH   5  16
TORSDOF 4
ENDMDL
MODEL 9
REMARK VINA RESULT:      -4.6      2.875      6.338
REMARK  Name = 75537136
REMARK  5 active torsions:
REMARK  status: ('A' for Active; 'I' for Inactive)
REMARK    1  A    between atoms: O_2  and  C_17
REMARK    2  A    between atoms: O_2  and  C_18
REMARK    3  A    between atoms: N_3  and  C_6
REMARK    4  A    between atoms: N_5  and  C_16
REMARK    5  A    between atoms: C_16  and  C_17
REMARK                            x       y       z     vdW  Elec       q    Type
REMARK                         _______ _______ _______ _____ _____    ______ ____
ROOT
ATOM      1  O   UNL     1      12.021   7.162  18.396  0.00  0.00    -0.252 OA
ATOM      3  N   UNL     1      14.235  11.338  16.557  0.00  0.00    -0.296 NA
ATOM      4  N   UNL     1      12.832   9.310  17.901  0.00  0.00    -0.278 N 
ATOM      5  N   UNL     1      12.852   8.633  20.042  0.00  0.00    -0.281 N 
ATOM      7  C   UNL     1      13.273  10.471  18.646  0.00  0.00    +0.109 C 
ATOM      8  C   UNL     1      14.506  11.088  17.986  0.00  0.00    +0.108 C 
ATOM     12  C   UNL     1      13.913  10.080  15.853  0.00  0.00    +0.104 C 
ATOM     13  C   UNL     1      12.683   9.403  16.463  0.00  0.00    +0.125 C 
ATOM     14  C   UNL     1      13.500   9.933  20.057  0.00  0.00    +0.133 C 
ATOM     15  C   UNL     1      12.503   8.234  18.736  0.00  0.00    +0.305 C 
ENDROOT
BRANCH   3   6
ATOM      6  C   UNL     1      15.411  11.940  15.946  0.00  0.00    +0.057 C 
ATOM      9  C   UNL     1      14.965  13.010  14.926  0.00  0.00    +0.019 C 
ATOM     10  C   UNL     1      15.855  11.083  14.741  0.00  0.00    +0.019 C 
ATOM     11  C   UNL     1      16.019  12.411  13.967  0.00  0.00    +0.003 C 
ENDBRANCH   3   6
BRANCH   5  16
ATOM     16  C   UNL     1      12.737   7.820  21.233  0.00  0.00    +0.137 C 
BRANCH  16  17
ATOM     17  C   UNL     1      11.465   8.129  22.000  0.00  0.00    +0.178 C 
BRANCH  17   2
ATOM      2  O   UNL     1      10.538   7.067  21.825  0.00  0.00    -0.381 OA
ATOM     18  C   UNL     1      11.197   5.840  21.545  0.00  0.00    +0.194 C 
ENDBRANCH  17   2
ENDBRANCH  16  17
ENDBRANCH   5  16
TORSDOF 4
ENDMDL
MODEL 10
REMARK VINA RESULT:      -4.6     14.622     17.996
REMARK  Name = 75537136
REMARK  5 active torsions:
REMARK  status: ('A' for Active; 'I' for Inactive)
REMARK    1  A    between atoms: O_2  and  C_17
REMARK    2  A    between atoms: O_2  and  C_18
REMARK    3  A    between atoms: N_3  and  C_6
REMARK    4  A    between atoms: N_5  and  C_16
REMARK    5  A    between atoms: C_16  and  C_17
REMARK                            x       y       z     vdW  Elec       q    Type
REMARK                         _______ _______ _______ _____ _____    ______ ____
ROOT
ATOM      1  O   UNL     1      13.664   6.112   2.040  0.00  0.00    -0.252 OA
ATOM      3  N   UNL     1       9.747   6.215   5.260  0.00  0.00    -0.296 NA
ATOM      4  N   UNL     1      11.626   5.927   3.192  0.00  0.00    -0.278 N 
ATOM      5  N   UNL     1      12.399   4.122   2.103  0.00  0.00    -0.281 N 
ATOM      7  C   UNL     1      10.572   4.943   3.325  0.00  0.00    +0.109 C 
ATOM      8  C   UNL     1      10.098   4.865   4.777  0.00  0.00    +0.108 C 
ATOM     12  C   UNL     1      10.914   7.117   5.202  0.00  0.00    +0.104 C 
ATOM     13  C   UNL     1      11.446   7.243   3.771  0.00  0.00    +0.125 C 
ATOM     14  C   UNL     1      11.202   3.661   2.785  0.00  0.00    +0.133 C 
ATOM     15  C   UNL     1      12.685   5.470   2.397  0.00  0.00    +0.305 C 
ENDROOT
BRANCH   3   6
ATOM      6  C   UNL     1       9.282   6.123   6.636  0.00  0.00    +0.057 C 
ATOM      9  C   UNL     1      10.289   6.836   7.564  0.00  0.00    +0.019 C 
ATOM     10  C   UNL     1       9.771   4.794   7.251  0.00  0.00    +0.019 C 
ATOM     11  C   UNL     1      10.160   5.615   8.502  0.00  0.00    +0.003 C 
ENDBRANCH   3   6
BRANCH   5  16
ATOM     16  C   UNL     1      13.244   3.225   1.347  0.00  0.00    +0.137 C 
BRANCH  16  17
ATOM     17  C   UNL     1      13.081   3.431  -0.148  0.00  0.00    +0.178 C 
BRANCH  17   2
ATOM      2  O   UNL     1      14.341   3.752  -0.720  0.00  0.00    -0.381 OA
ATOM     18  C   UNL     1      14.198   4.293  -2.027  0.00  0.00    +0.194 C 
ENDBRANCH  17   2
ENDBRANCH  16  17
ENDBRANCH   5  16
TORSDOF 4
ENDMDL
