MODEL 1
REMARK VINA RESULT:      -8.3      0.000      0.000
REMARK  Name = 7672465
REMARK  4 active torsions:
REMARK  status: ('A' for Active; 'I' for Inactive)
REMARK    1  A    between atoms: O_4  and  C_25
REMARK    2  A    between atoms: O_4  and  C_34
REMARK    3  A    between atoms: N_7  and  C_21
REMARK    4  A    between atoms: C_18  and  C_20
REMARK                            x       y       z     vdW  Elec       q    Type
REMARK                         _______ _______ _______ _____ _____    ______ ____
ROOT
ATOM      2  O   UNL     1      15.310   6.173  20.849  0.00  0.00    -0.267 OA
ATOM      3  O   UNL     1      12.590   8.579  17.654  0.00  0.00    -0.252 OA
ATOM      5  N   UNL     1      13.889   7.915  21.474  0.00  0.00    -0.311 N 
ATOM      6  N   UNL     1      11.923   9.507  19.662  0.00  0.00    -0.284 N 
ATOM      7  N   UNL     1      13.687  10.472  18.430  0.00  0.00    -0.266 N 
ATOM      8  C   UNL     1      11.338   7.739  21.294  0.00  0.00    +0.027 C 
ATOM      9  C   UNL     1      12.375   9.839  22.069  0.00  0.00    +0.054 C 
ATOM     10  C   UNL     1      11.331   8.776  22.415  0.00  0.00    +0.018 C 
ATOM     11  C   UNL     1      12.711   7.053  21.280  0.00  0.00    +0.130 C 
ATOM     12  C   UNL     1      11.005   8.401  19.940  0.00  0.00    +0.114 C 
ATOM     13  C   UNL     1      11.984  10.511  20.737  0.00  0.00    +0.119 C 
ATOM     14  C   UNL     1      13.757   9.226  21.944  0.00  0.00    +0.027 A 
ATOM     15  C   UNL     1      14.848   9.959  22.220  0.00  0.00    +0.022 A 
ATOM     16  C   UNL     1      15.150   7.327  21.250  0.00  0.00    +0.260 A 
ATOM     17  C   UNL     1      12.722   9.468  18.499  0.00  0.00    +0.307 C 
ATOM     18  C   UNL     1      16.348   8.191  21.526  0.00  0.00    +0.053 A 
ATOM     19  C   UNL     1      16.165   9.431  22.004  0.00  0.00    +0.016 A 
ATOM     35  H   UNL     1      14.035  10.858  19.301  0.00  0.00    +0.156 HD
ENDROOT
BRANCH  18  20
ATOM      1  S   UNL     1      19.003   8.754  21.450  0.00  0.00    -0.088 S 
ATOM     20  C   UNL     1      17.668   7.701  21.291  0.00  0.00    +0.026 A 
ATOM     22  C   UNL     1      18.065   6.429  20.934  0.00  0.00    +0.024 A 
ATOM     23  C   UNL     1      19.487   6.304  20.783  0.00  0.00    -0.010 A 
ATOM     24  C   UNL     1      20.132   7.518  21.040  0.00  0.00    +0.020 A 
ATOM     27  C   UNL     1      20.280   5.185  20.432  0.00  0.00    +0.009 A 
ATOM     28  C   UNL     1      21.533   7.639  20.955  0.00  0.00    +0.015 A 
ATOM     31  C   UNL     1      21.671   5.302  20.347  0.00  0.00    +0.001 A 
ATOM     32  C   UNL     1      22.288   6.518  20.606  0.00  0.00    +0.001 A 
ENDBRANCH  18  20
BRANCH   7  21
ATOM     21  C   UNL     1      14.301  11.002  17.268  0.00  0.00    +0.077 A 
ATOM     25  C   UNL     1      15.451  11.780  17.368  0.00  0.00    +0.141 A 
ATOM     26  C   UNL     1      13.741  10.733  16.022  0.00  0.00    +0.027 A 
ATOM     29  C   UNL     1      16.044  12.294  16.214  0.00  0.00    +0.047 A 
ATOM     30  C   UNL     1      14.334  11.246  14.868  0.00  0.00    +0.002 A 
ATOM     33  C   UNL     1      15.485  12.027  14.965  0.00  0.00    +0.004 A 
BRANCH  25   4
ATOM      4  O   UNL     1      16.014  12.053  18.580  0.00  0.00    -0.493 OA
ATOM     34  C   UNL     1      17.264  12.739  18.573  0.00  0.00    +0.277 C 
ENDBRANCH  25   4
ENDBRANCH   7  21
TORSDOF 3
ENDMDL
MODEL 2
REMARK VINA RESULT:      -8.3     13.995     16.879
REMARK  Name = 7672465
REMARK  4 active torsions:
REMARK  status: ('A' for Active; 'I' for Inactive)
REMARK    1  A    between atoms: O_4  and  C_25
REMARK    2  A    between atoms: O_4  and  C_34
REMARK    3  A    between atoms: N_7  and  C_21
REMARK    4  A    between atoms: C_18  and  C_20
REMARK                            x       y       z     vdW  Elec       q    Type
REMARK                         _______ _______ _______ _____ _____    ______ ____
ROOT
ATOM      2  O   UNL     1      13.596   6.831   6.785  0.00  0.00    -0.267 OA
ATOM      3  O   UNL     1      10.863   3.899   4.076  0.00  0.00    -0.252 OA
ATOM      5  N   UNL     1      11.623   7.546   5.763  0.00  0.00    -0.311 N 
ATOM      6  N   UNL     1       9.608   5.838   4.118  0.00  0.00    -0.284 N 
ATOM      7  N   UNL     1      11.176   5.470   2.396  0.00  0.00    -0.266 N 
ATOM      8  C   UNL     1       9.320   6.647   6.441  0.00  0.00    +0.027 C 
ATOM      9  C   UNL     1       9.514   8.263   4.587  0.00  0.00    +0.054 C 
ATOM     10  C   UNL     1       8.803   7.983   5.912  0.00  0.00    +0.018 C 
ATOM     11  C   UNL     1      10.818   6.796   6.741  0.00  0.00    +0.130 C 
ATOM     12  C   UNL     1       9.039   5.517   5.429  0.00  0.00    +0.114 C 
ATOM     13  C   UNL     1       9.171   7.140   3.586  0.00  0.00    +0.119 C 
ATOM     14  C   UNL     1      11.017   8.334   4.779  0.00  0.00    +0.027 A 
ATOM     15  C   UNL     1      11.766   9.098   3.967  0.00  0.00    +0.022 A 
ATOM     16  C   UNL     1      13.022   7.501   5.924  0.00  0.00    +0.260 A 
ATOM     17  C   UNL     1      10.569   4.974   3.549  0.00  0.00    +0.307 C 
ATOM     18  C   UNL     1      13.832   8.333   4.969  0.00  0.00    +0.053 A 
ATOM     19  C   UNL     1      13.198   9.094   4.064  0.00  0.00    +0.016 A 
ATOM     35  H   UNL     1      11.234   6.476   2.283  0.00  0.00    +0.156 HD
ENDROOT
BRANCH  18  20
ATOM      1  S   UNL     1      16.155   7.802   3.667  0.00  0.00    -0.088 S 
ATOM     20  C   UNL     1      15.258   8.323   5.024  0.00  0.00    +0.026 A 
ATOM     22  C   UNL     1      16.084   8.692   6.066  0.00  0.00    +0.024 A 
ATOM     23  C   UNL     1      17.479   8.548   5.758  0.00  0.00    -0.010 A 
ATOM     24  C   UNL     1      17.663   8.064   4.460  0.00  0.00    +0.020 A 
ATOM     27  C   UNL     1      18.627   8.815   6.543  0.00  0.00    +0.009 A 
ATOM     28  C   UNL     1      18.950   7.842   3.933  0.00  0.00    +0.015 A 
ATOM     31  C   UNL     1      19.905   8.596   6.023  0.00  0.00    +0.001 A 
ATOM     32  C   UNL     1      20.062   8.114   4.731  0.00  0.00    +0.001 A 
ENDBRANCH  18  20
BRANCH   7  21
ATOM     21  C   UNL     1      11.789   4.728   1.356  0.00  0.00    +0.077 A 
ATOM     25  C   UNL     1      11.080   4.412   0.201  0.00  0.00    +0.141 A 
ATOM     26  C   UNL     1      13.112   4.320   1.503  0.00  0.00    +0.027 A 
ATOM     29  C   UNL     1      11.698   3.681  -0.815  0.00  0.00    +0.047 A 
ATOM     30  C   UNL     1      13.730   3.589   0.487  0.00  0.00    +0.002 A 
ATOM     33  C   UNL     1      13.023   3.270  -0.671  0.00  0.00    +0.004 A 
BRANCH  25   4
ATOM      4  O   UNL     1       9.784   4.804   0.040  0.00  0.00    -0.493 OA
ATOM     34  C   UNL     1       9.477   5.555  -1.133  0.00  0.00    +0.277 C 
ENDBRANCH  25   4
ENDBRANCH   7  21
TORSDOF 3
ENDMDL
MODEL 3
REMARK VINA RESULT:      -8.2     14.401     18.172
REMARK  Name = 7672465
REMARK  4 active torsions:
REMARK  status: ('A' for Active; 'I' for Inactive)
REMARK    1  A    between atoms: O_4  and  C_25
REMARK    2  A    between atoms: O_4  and  C_34
REMARK    3  A    between atoms: N_7  and  C_21
REMARK    4  A    between atoms: C_18  and  C_20
REMARK                            x       y       z     vdW  Elec       q    Type
REMARK                         _______ _______ _______ _____ _____    ______ ____
ROOT
ATOM      2  O   UNL     1       9.461   7.167   1.708  0.00  0.00    -0.267 OA
ATOM      3  O   UNL     1      12.045   9.839   4.803  0.00  0.00    -0.252 OA
ATOM      5  N   UNL     1       9.400   6.822   4.016  0.00  0.00    -0.311 N 
ATOM      6  N   UNL     1      10.823   8.490   6.224  0.00  0.00    -0.284 N 
ATOM      7  N   UNL     1      12.961   7.819   5.489  0.00  0.00    -0.266 N 
ATOM      8  C   UNL     1       8.417   8.548   5.637  0.00  0.00    +0.027 C 
ATOM      9  C   UNL     1       9.425   6.472   6.511  0.00  0.00    +0.054 C 
ATOM     10  C   UNL     1       8.168   7.343   6.542  0.00  0.00    +0.018 C 
ATOM     11  C   UNL     1       8.596   8.042   4.199  0.00  0.00    +0.130 C 
ATOM     12  C   UNL     1       9.642   9.350   6.127  0.00  0.00    +0.114 C 
ATOM     13  C   UNL     1      10.615   7.290   7.052  0.00  0.00    +0.119 C 
ATOM     14  C   UNL     1       9.728   6.002   5.101  0.00  0.00    +0.027 A 
ATOM     15  C   UNL     1      10.366   4.837   4.900  0.00  0.00    +0.022 A 
ATOM     16  C   UNL     1       9.741   6.479   2.693  0.00  0.00    +0.260 A 
ATOM     17  C   UNL     1      11.971   8.801   5.464  0.00  0.00    +0.307 C 
ATOM     18  C   UNL     1      10.494   5.191   2.510  0.00  0.00    +0.053 A 
ATOM     19  C   UNL     1      10.757   4.428   3.581  0.00  0.00    +0.016 A 
ATOM     35  H   UNL     1      12.676   6.860   5.651  0.00  0.00    +0.156 HD
ENDROOT
BRANCH  18  20
ATOM      1  S   UNL     1      12.547   4.316   0.963  0.00  0.00    -0.088 S 
ATOM     20  C   UNL     1      10.921   4.777   1.212  0.00  0.00    +0.026 A 
ATOM     22  C   UNL     1      10.183   4.681   0.050  0.00  0.00    +0.024 A 
ATOM     23  C   UNL     1      10.954   4.224  -1.072  0.00  0.00    -0.010 A 
ATOM     24  C   UNL     1      12.282   3.982  -0.707  0.00  0.00    +0.020 A 
ATOM     27  C   UNL     1      10.576   3.996  -2.416  0.00  0.00    +0.009 A 
ATOM     28  C   UNL     1      13.230   3.525  -1.644  0.00  0.00    +0.015 A 
ATOM     31  C   UNL     1      11.514   3.541  -3.348  0.00  0.00    +0.001 A 
ATOM     32  C   UNL     1      12.827   3.310  -2.963  0.00  0.00    +0.001 A 
ENDBRANCH  18  20
BRANCH   7  21
ATOM     21  C   UNL     1      14.349   7.986   5.257  0.00  0.00    +0.077 A 
ATOM     25  C   UNL     1      14.920   7.571   4.058  0.00  0.00    +0.141 A 
ATOM     26  C   UNL     1      15.136   8.573   6.245  0.00  0.00    +0.027 A 
ATOM     29  C   UNL     1      16.288   7.743   3.844  0.00  0.00    +0.047 A 
ATOM     30  C   UNL     1      16.504   8.745   6.032  0.00  0.00    +0.002 A 
ATOM     33  C   UNL     1      17.080   8.329   4.832  0.00  0.00    +0.004 A 
BRANCH  25   4
ATOM      4  O   UNL     1      14.165   6.996   3.079  0.00  0.00    -0.493 OA
ATOM     34  C   UNL     1      13.751   7.835   2.003  0.00  0.00    +0.277 C 
ENDBRANCH  25   4
ENDBRANCH   7  21
TORSDOF 3
ENDMDL
MODEL 4
REMARK VINA RESULT:      -8.1     22.898     26.804
REMARK  Name = 7672465
REMARK  4 active torsions:
REMARK  status: ('A' for Active; 'I' for Inactive)
REMARK    1  A    between atoms: O_4  and  C_25
REMARK    2  A    between atoms: O_4  and  C_34
REMARK    3  A    between atoms: N_7  and  C_21
REMARK    4  A    between atoms: C_18  and  C_20
REMARK                            x       y       z     vdW  Elec       q    Type
REMARK                         _______ _______ _______ _____ _____    ______ ____
ROOT
ATOM      2  O   UNL     1      -6.428   9.920   5.713  0.00  0.00    -0.267 OA
ATOM      3  O   UNL     1      -3.202  12.087   2.833  0.00  0.00    -0.252 OA
ATOM      5  N   UNL     1      -4.136   9.504   5.862  0.00  0.00    -0.311 N 
ATOM      6  N   UNL     1      -1.848  10.872   4.258  0.00  0.00    -0.284 N 
ATOM      7  N   UNL     1      -2.582   9.934   2.222  0.00  0.00    -0.266 N 
ATOM      8  C   UNL     1      -2.462  11.291   6.620  0.00  0.00    +0.027 C 
ATOM      9  C   UNL     1      -1.657   9.063   5.930  0.00  0.00    +0.054 C 
ATOM     10  C   UNL     1      -1.607  10.101   7.053  0.00  0.00    +0.018 C 
ATOM     11  C   UNL     1      -3.916  10.818   6.490  0.00  0.00    +0.130 C 
ATOM     12  C   UNL     1      -1.926  11.894   5.304  0.00  0.00    +0.114 C 
ATOM     13  C   UNL     1      -1.070   9.684   4.646  0.00  0.00    +0.119 C 
ATOM     14  C   UNL     1      -3.080   8.607   5.671  0.00  0.00    +0.027 A 
ATOM     15  C   UNL     1      -3.318   7.372   5.200  0.00  0.00    +0.022 A 
ATOM     16  C   UNL     1      -5.468   9.165   5.549  0.00  0.00    +0.260 A 
ATOM     17  C   UNL     1      -2.581  11.046   3.064  0.00  0.00    +0.307 C 
ATOM     18  C   UNL     1      -5.691   7.791   4.981  0.00  0.00    +0.053 A 
ATOM     19  C   UNL     1      -4.647   6.960   4.848  0.00  0.00    +0.016 A 
ATOM     35  H   UNL     1      -2.461   9.019   2.642  0.00  0.00    +0.156 HD
ENDROOT
BRANCH  18  20
ATOM      1  S   UNL     1      -7.770   8.113   3.264  0.00  0.00    -0.088 S 
ATOM     20  C   UNL     1      -6.998   7.368   4.594  0.00  0.00    +0.026 A 
ATOM     22  C   UNL     1      -7.791   6.389   5.157  0.00  0.00    +0.024 A 
ATOM     23  C   UNL     1      -9.056   6.238   4.496  0.00  0.00    -0.010 A 
ATOM     24  C   UNL     1      -9.178   7.132   3.427  0.00  0.00    +0.020 A 
ATOM     27  C   UNL     1     -10.134   5.360   4.761  0.00  0.00    +0.009 A 
ATOM     28  C   UNL     1     -10.337   7.168   2.627  0.00  0.00    +0.015 A 
ATOM     31  C   UNL     1     -11.285   5.394   3.968  0.00  0.00    +0.001 A 
ATOM     32  C   UNL     1     -11.383   6.290   2.914  0.00  0.00    +0.001 A 
ENDBRANCH  18  20
BRANCH   7  21
ATOM     21  C   UNL     1      -2.791   9.912   0.821  0.00  0.00    +0.077 A 
ATOM     25  C   UNL     1      -1.719   9.733  -0.050  0.00  0.00    +0.141 A 
ATOM     26  C   UNL     1      -4.082  10.070   0.324  0.00  0.00    +0.027 A 
ATOM     29  C   UNL     1      -1.941   9.713  -1.428  0.00  0.00    +0.047 A 
ATOM     30  C   UNL     1      -4.303  10.050  -1.054  0.00  0.00    +0.002 A 
ATOM     33  C   UNL     1      -3.232   9.872  -1.929  0.00  0.00    +0.004 A 
BRANCH  25   4
ATOM      4  O   UNL     1      -0.449   9.575   0.419  0.00  0.00    -0.493 OA
ATOM     34  C   UNL     1       0.442  10.677   0.256  0.00  0.00    +0.277 C 
ENDBRANCH  25   4
ENDBRANCH   7  21
TORSDOF 3
ENDMDL
MODEL 5
REMARK VINA RESULT:      -8.1     28.138     30.554
REMARK  Name = 7672465
REMARK  4 active torsions:
REMARK  status: ('A' for Active; 'I' for Inactive)
REMARK    1  A    between atoms: O_4  and  C_25
REMARK    2  A    between atoms: O_4  and  C_34
REMARK    3  A    between atoms: N_7  and  C_21
REMARK    4  A    between atoms: C_18  and  C_20
REMARK                            x       y       z     vdW  Elec       q    Type
REMARK                         _______ _______ _______ _____ _____    ______ ____
ROOT
ATOM      2  O   UNL     1      -4.748 -12.887   9.977  0.00  0.00    -0.267 OA
ATOM      3  O   UNL     1      -5.877 -13.331  14.660  0.00  0.00    -0.252 OA
ATOM      5  N   UNL     1      -3.196 -12.519  11.681  0.00  0.00    -0.311 N 
ATOM      6  N   UNL     1      -3.610 -12.894  14.742  0.00  0.00    -0.284 N 
ATOM      7  N   UNL     1      -5.170 -11.128  14.845  0.00  0.00    -0.266 N 
ATOM      8  C   UNL     1      -2.370 -14.399  13.215  0.00  0.00    +0.027 C 
ATOM      9  C   UNL     1      -1.588 -12.086  13.572  0.00  0.00    +0.054 C 
ATOM     10  C   UNL     1      -1.124 -13.530  13.370  0.00  0.00    +0.018 C 
ATOM     11  C   UNL     1      -3.104 -13.966  11.939  0.00  0.00    +0.130 C 
ATOM     12  C   UNL     1      -3.267 -14.291  14.467  0.00  0.00    +0.114 C 
ATOM     13  C   UNL     1      -2.440 -12.008  14.856  0.00  0.00    +0.119 C 
ATOM     14  C   UNL     1      -2.406 -11.606  12.388  0.00  0.00    +0.027 A 
ATOM     15  C   UNL     1      -2.422 -10.303  12.062  0.00  0.00    +0.022 A 
ATOM     16  C   UNL     1      -4.046 -12.114  10.632  0.00  0.00    +0.260 A 
ATOM     17  C   UNL     1      -4.967 -12.505  14.761  0.00  0.00    +0.307 C 
ATOM     18  C   UNL     1      -4.073 -10.643  10.326  0.00  0.00    +0.053 A 
ATOM     19  C   UNL     1      -3.273  -9.815  11.014  0.00  0.00    +0.016 A 
ATOM     35  H   UNL     1      -4.447 -10.518  14.480  0.00  0.00    +0.156 HD
ENDROOT
BRANCH  18  20
ATOM      1  S   UNL     1      -6.205  -9.070   9.732  0.00  0.00    -0.088 S 
ATOM     20  C   UNL     1      -4.933 -10.128   9.309  0.00  0.00    +0.026 A 
ATOM     22  C   UNL     1      -4.898 -10.361   7.950  0.00  0.00    +0.024 A 
ATOM     23  C   UNL     1      -5.930  -9.667   7.232  0.00  0.00    -0.010 A 
ATOM     24  C   UNL     1      -6.727  -8.912   8.097  0.00  0.00    +0.020 A 
ATOM     27  C   UNL     1      -6.231  -9.642   5.849  0.00  0.00    +0.009 A 
ATOM     28  C   UNL     1      -7.807  -8.142   7.620  0.00  0.00    +0.015 A 
ATOM     31  C   UNL     1      -7.301  -8.879   5.372  0.00  0.00    +0.001 A 
ATOM     32  C   UNL     1      -8.080  -8.139   6.251  0.00  0.00    +0.001 A 
ENDBRANCH  18  20
BRANCH   7  21
ATOM     21  C   UNL     1      -6.311 -10.452  15.343  0.00  0.00    +0.077 A 
ATOM     25  C   UNL     1      -6.352 -10.011  16.662  0.00  0.00    +0.141 A 
ATOM     26  C   UNL     1      -7.393 -10.232  14.494  0.00  0.00    +0.027 A 
ATOM     29  C   UNL     1      -7.483  -9.346  17.137  0.00  0.00    +0.047 A 
ATOM     30  C   UNL     1      -8.524  -9.567  14.969  0.00  0.00    +0.002 A 
ATOM     33  C   UNL     1      -8.569  -9.125  16.290  0.00  0.00    +0.004 A 
BRANCH  25   4
ATOM      4  O   UNL     1      -5.302 -10.216  17.507  0.00  0.00    -0.493 OA
ATOM     34  C   UNL     1      -5.572 -10.923  18.715  0.00  0.00    +0.277 C 
ENDBRANCH  25   4
ENDBRANCH   7  21
TORSDOF 3
ENDMDL
MODEL 6
REMARK VINA RESULT:      -8.0     13.757     16.192
REMARK  Name = 7672465
REMARK  4 active torsions:
REMARK  status: ('A' for Active; 'I' for Inactive)
REMARK    1  A    between atoms: O_4  and  C_25
REMARK    2  A    between atoms: O_4  and  C_34
REMARK    3  A    between atoms: N_7  and  C_21
REMARK    4  A    between atoms: C_18  and  C_20
REMARK                            x       y       z     vdW  Elec       q    Type
REMARK                         _______ _______ _______ _____ _____    ______ ____
ROOT
ATOM      2  O   UNL     1      13.828   6.577   6.984  0.00  0.00    -0.267 OA
ATOM      3  O   UNL     1      10.563   4.294   4.240  0.00  0.00    -0.252 OA
ATOM      5  N   UNL     1      11.723   7.478   6.530  0.00  0.00    -0.311 N 
ATOM      6  N   UNL     1       9.393   6.157   4.946  0.00  0.00    -0.284 N 
ATOM      7  N   UNL     1      10.609   6.207   2.926  0.00  0.00    -0.266 N 
ATOM      8  C   UNL     1       9.558   6.418   7.403  0.00  0.00    +0.027 C 
ATOM      9  C   UNL     1       9.455   8.413   5.954  0.00  0.00    +0.054 C 
ATOM     10  C   UNL     1       8.991   7.832   7.291  0.00  0.00    +0.018 C 
ATOM     11  C   UNL     1      11.089   6.515   7.447  0.00  0.00    +0.130 C 
ATOM     12  C   UNL     1       9.064   5.541   6.233  0.00  0.00    +0.114 C 
ATOM     13  C   UNL     1       8.904   7.539   4.809  0.00  0.00    +0.119 C 
ATOM     14  C   UNL     1      10.970   8.458   5.876  0.00  0.00    +0.027 A 
ATOM     15  C   UNL     1      11.579   9.396   5.132  0.00  0.00    +0.022 A 
ATOM     16  C   UNL     1      13.126   7.417   6.416  0.00  0.00    +0.260 A 
ATOM     17  C   UNL     1      10.208   5.456   4.031  0.00  0.00    +0.307 C 
ATOM     18  C   UNL     1      13.770   8.453   5.539  0.00  0.00    +0.053 A 
ATOM     19  C   UNL     1      13.004   9.389   4.960  0.00  0.00    +0.016 A 
ATOM     35  H   UNL     1      10.673   7.214   3.032  0.00  0.00    +0.156 HD
ENDROOT
BRANCH  18  20
ATOM      1  S   UNL     1      15.802   8.148   3.764  0.00  0.00    -0.088 S 
ATOM     20  C   UNL     1      15.182   8.450   5.326  0.00  0.00    +0.026 A 
ATOM     22  C   UNL     1      16.192   8.668   6.240  0.00  0.00    +0.024 A 
ATOM     23  C   UNL     1      17.504   8.587   5.660  0.00  0.00    -0.010 A 
ATOM     24  C   UNL     1      17.435   8.305   4.293  0.00  0.00    +0.020 A 
ATOM     27  C   UNL     1      18.781   8.746   6.249  0.00  0.00    +0.009 A 
ATOM     28  C   UNL     1      18.599   8.178   3.508  0.00  0.00    +0.015 A 
ATOM     31  C   UNL     1      19.938   8.621   5.474  0.00  0.00    +0.001 A 
ATOM     32  C   UNL     1      19.845   8.339   4.118  0.00  0.00    +0.001 A 
ENDBRANCH  18  20
BRANCH   7  21
ATOM     21  C   UNL     1      11.000   5.727   1.651  0.00  0.00    +0.077 A 
ATOM     25  C   UNL     1      12.342   5.493   1.365  0.00  0.00    +0.141 A 
ATOM     26  C   UNL     1      10.024   5.490   0.687  0.00  0.00    +0.027 A 
ATOM     29  C   UNL     1      12.711   5.020   0.106  0.00  0.00    +0.047 A 
ATOM     30  C   UNL     1      10.393   5.016  -0.573  0.00  0.00    +0.002 A 
ATOM     33  C   UNL     1      11.736   4.782  -0.863  0.00  0.00    +0.004 A 
BRANCH  25   4
ATOM      4  O   UNL     1      13.311   5.719   2.298  0.00  0.00    -0.493 OA
ATOM     34  C   UNL     1      14.605   5.184   2.029  0.00  0.00    +0.277 C 
ENDBRANCH  25   4
ENDBRANCH   7  21
TORSDOF 3
ENDMDL
MODEL 7
REMARK VINA RESULT:      -8.0     17.458     21.052
REMARK  Name = 7672465
REMARK  4 active torsions:
REMARK  status: ('A' for Active; 'I' for Inactive)
REMARK    1  A    between atoms: O_4  and  C_25
REMARK    2  A    between atoms: O_4  and  C_34
REMARK    3  A    between atoms: N_7  and  C_21
REMARK    4  A    between atoms: C_18  and  C_20
REMARK                            x       y       z     vdW  Elec       q    Type
REMARK                         _______ _______ _______ _____ _____    ______ ____
ROOT
ATOM      2  O   UNL     1      12.290   7.864   2.215  0.00  0.00    -0.267 OA
ATOM      3  O   UNL     1      12.871   5.894  -2.165  0.00  0.00    -0.252 OA
ATOM      5  N   UNL     1      12.858   5.620   1.915  0.00  0.00    -0.311 N 
ATOM      6  N   UNL     1      13.450   4.151  -0.763  0.00  0.00    -0.284 N 
ATOM      7  N   UNL     1      11.225   4.398  -1.503  0.00  0.00    -0.266 N 
ATOM      8  C   UNL     1      15.106   4.893   0.922  0.00  0.00    +0.027 C 
ATOM      9  C   UNL     1      13.417   3.196   1.516  0.00  0.00    +0.054 C 
ATOM     10  C   UNL     1      14.877   3.607   1.714  0.00  0.00    +0.018 C 
ATOM     11  C   UNL     1      14.228   5.996   1.529  0.00  0.00    +0.130 C 
ATOM     12  C   UNL     1      14.807   4.669  -0.576  0.00  0.00    +0.114 C 
ATOM     13  C   UNL     1      13.168   2.935   0.017  0.00  0.00    +0.119 C 
ATOM     14  C   UNL     1      12.474   4.278   2.008  0.00  0.00    +0.027 A 
ATOM     15  C   UNL     1      11.255   3.953   2.469  0.00  0.00    +0.022 A 
ATOM     16  C   UNL     1      11.988   6.670   2.270  0.00  0.00    +0.260 A 
ATOM     17  C   UNL     1      12.531   4.884  -1.546  0.00  0.00    +0.307 C 
ATOM     18  C   UNL     1      10.616   6.271   2.738  0.00  0.00    +0.053 A 
ATOM     19  C   UNL     1      10.310   4.969   2.837  0.00  0.00    +0.016 A 
ATOM     35  H   UNL     1      10.932   3.891  -0.675  0.00  0.00    +0.156 HD
ENDROOT
BRANCH  18  20
ATOM      1  S   UNL     1       9.558   7.840   4.686  0.00  0.00    -0.088 S 
ATOM     20  C   UNL     1       9.648   7.263   3.081  0.00  0.00    +0.026 A 
ATOM     22  C   UNL     1       8.712   7.872   2.270  0.00  0.00    +0.024 A 
ATOM     23  C   UNL     1       7.900   8.829   2.967  0.00  0.00    -0.010 A 
ATOM     24  C   UNL     1       8.262   8.913   4.315  0.00  0.00    +0.020 A 
ATOM     27  C   UNL     1       6.846   9.653   2.504  0.00  0.00    +0.009 A 
ATOM     28  C   UNL     1       7.604   9.789   5.200  0.00  0.00    +0.015 A 
ATOM     31  C   UNL     1       6.191  10.524   3.380  0.00  0.00    +0.001 A 
ATOM     32  C   UNL     1       6.568  10.588   4.714  0.00  0.00    +0.001 A 
ENDBRANCH  18  20
BRANCH   7  21
ATOM     21  C   UNL     1      10.207   4.571  -2.474  0.00  0.00    +0.077 A 
ATOM     25  C   UNL     1       9.284   5.606  -2.353  0.00  0.00    +0.141 A 
ATOM     26  C   UNL     1      10.142   3.694  -3.553  0.00  0.00    +0.027 A 
ATOM     29  C   UNL     1       8.288   5.764  -3.318  0.00  0.00    +0.047 A 
ATOM     30  C   UNL     1       9.146   3.852  -4.518  0.00  0.00    +0.002 A 
ATOM     33  C   UNL     1       8.219   4.886  -4.399  0.00  0.00    +0.004 A 
BRANCH  25   4
ATOM      4  O   UNL     1       9.333   6.475  -1.303  0.00  0.00    -0.493 OA
ATOM     34  C   UNL     1       9.821   7.788  -1.573  0.00  0.00    +0.277 C 
ENDBRANCH  25   4
ENDBRANCH   7  21
TORSDOF 3
ENDMDL
MODEL 8
REMARK VINA RESULT:      -7.9     28.961     31.217
REMARK  Name = 7672465
REMARK  4 active torsions:
REMARK  status: ('A' for Active; 'I' for Inactive)
REMARK    1  A    between atoms: O_4  and  C_25
REMARK    2  A    between atoms: O_4  and  C_34
REMARK    3  A    between atoms: N_7  and  C_21
REMARK    4  A    between atoms: C_18  and  C_20
REMARK                            x       y       z     vdW  Elec       q    Type
REMARK                         _______ _______ _______ _____ _____    ______ ____
ROOT
ATOM      2  O   UNL     1      -6.769 -12.741  14.814  0.00  0.00    -0.267 OA
ATOM      3  O   UNL     1     -11.271 -11.888  16.364  0.00  0.00    -0.252 OA
ATOM      5  N   UNL     1      -7.236 -12.076  17.002  0.00  0.00    -0.311 N 
ATOM      6  N   UNL     1     -10.031 -11.624  18.295  0.00  0.00    -0.284 N 
ATOM      7  N   UNL     1     -10.482  -9.773  16.906  0.00  0.00    -0.266 N 
ATOM      8  C   UNL     1      -8.528 -13.562  18.644  0.00  0.00    +0.027 C 
ATOM      9  C   UNL     1      -7.809 -11.304  19.331  0.00  0.00    +0.054 C 
ATOM     10  C   UNL     1      -7.773 -12.783  19.719  0.00  0.00    +0.018 C 
ATOM     11  C   UNL     1      -7.769 -13.412  17.318  0.00  0.00    +0.130 C 
ATOM     12  C   UNL     1      -9.986 -13.068  18.539  0.00  0.00    +0.114 C 
ATOM     13  C   UNL     1      -9.278 -10.834  19.283  0.00  0.00    +0.119 C 
ATOM     14  C   UNL     1      -7.158 -11.078  17.979  0.00  0.00    +0.027 A 
ATOM     15  C   UNL     1      -6.567  -9.904  17.702  0.00  0.00    +0.022 A 
ATOM     16  C   UNL     1      -6.731 -11.885  15.701  0.00  0.00    +0.260 A 
ATOM     17  C   UNL     1     -10.661 -11.138  17.129  0.00  0.00    +0.307 C 
ATOM     18  C   UNL     1      -6.118 -10.544  15.412  0.00  0.00    +0.053 A 
ATOM     19  C   UNL     1      -6.041  -9.634  16.394  0.00  0.00    +0.016 A 
ATOM     35  H   UNL     1      -9.648  -9.335  17.281  0.00  0.00    +0.156 HD
ENDROOT
BRANCH  18  20
ATOM      1  S   UNL     1      -4.030 -10.710  13.684  0.00  0.00    -0.088 S 
ATOM     20  C   UNL     1      -5.615 -10.238  14.111  0.00  0.00    +0.026 A 
ATOM     22  C   UNL     1      -6.246  -9.581  13.075  0.00  0.00    +0.024 A 
ATOM     23  C   UNL     1      -5.424  -9.456  11.904  0.00  0.00    -0.010 A 
ATOM     24  C   UNL     1      -4.169 -10.039  12.103  0.00  0.00    +0.020 A 
ATOM     27  C   UNL     1      -5.695  -8.858  10.650  0.00  0.00    +0.009 A 
ATOM     28  C   UNL     1      -3.189 -10.039  11.090  0.00  0.00    +0.015 A 
ATOM     31  C   UNL     1      -4.725  -8.857   9.643  0.00  0.00    +0.001 A 
ATOM     32  C   UNL     1      -3.486  -9.441   9.864  0.00  0.00    +0.001 A 
ENDBRANCH  18  20
BRANCH   7  21
ATOM     21  C   UNL     1     -11.312  -8.905  16.155  0.00  0.00    +0.077 A 
ATOM     25  C   UNL     1     -10.962  -8.537  14.859  0.00  0.00    +0.141 A 
ATOM     26  C   UNL     1     -12.486  -8.424  16.729  0.00  0.00    +0.027 A 
ATOM     29  C   UNL     1     -11.791  -7.681  14.132  0.00  0.00    +0.047 A 
ATOM     30  C   UNL     1     -13.315  -7.568  16.002  0.00  0.00    +0.002 A 
ATOM     33  C   UNL     1     -12.966  -7.197  14.704  0.00  0.00    +0.004 A 
BRANCH  25   4
ATOM      4  O   UNL     1      -9.816  -8.999  14.280  0.00  0.00    -0.493 OA
ATOM     34  C   UNL     1      -9.947 -10.080  13.360  0.00  0.00    +0.277 C 
ENDBRANCH  25   4
ENDBRANCH   7  21
TORSDOF 3
ENDMDL
MODEL 9
REMARK VINA RESULT:      -7.9     22.723     26.047
REMARK  Name = 7672465
REMARK  4 active torsions:
REMARK  status: ('A' for Active; 'I' for Inactive)
REMARK    1  A    between atoms: O_4  and  C_25
REMARK    2  A    between atoms: O_4  and  C_34
REMARK    3  A    between atoms: N_7  and  C_21
REMARK    4  A    between atoms: C_18  and  C_20
REMARK                            x       y       z     vdW  Elec       q    Type
REMARK                         _______ _______ _______ _____ _____    ______ ____
ROOT
ATOM      2  O   UNL     1       9.041 -11.575  32.113  0.00  0.00    -0.267 OA
ATOM      3  O   UNL     1       7.098 -10.195  36.322  0.00  0.00    -0.252 OA
ATOM      5  N   UNL     1       8.610  -9.338  32.620  0.00  0.00    -0.311 N 
ATOM      6  N   UNL     1       7.528  -8.171  35.294  0.00  0.00    -0.284 N 
ATOM      7  N   UNL     1       5.437  -9.226  35.022  0.00  0.00    -0.266 N 
ATOM      8  C   UNL     1       9.862  -8.083  34.471  0.00  0.00    +0.027 C 
ATOM      9  C   UNL     1       8.067  -6.950  33.214  0.00  0.00    +0.054 C 
ATOM     10  C   UNL     1       9.527  -6.837  33.654  0.00  0.00    +0.018 C 
ATOM     11  C   UNL     1       9.750  -9.306  33.552  0.00  0.00    +0.130 C 
ATOM     12  C   UNL     1       8.935  -8.192  35.701  0.00  0.00    +0.114 C 
ATOM     13  C   UNL     1       7.168  -7.008  34.466  0.00  0.00    +0.119 C 
ATOM     14  C   UNL     1       7.847  -8.193  32.371  0.00  0.00    +0.027 A 
ATOM     15  C   UNL     1       6.882  -8.212  31.436  0.00  0.00    +0.022 A 
ATOM     16  C   UNL     1       8.385 -10.547  31.932  0.00  0.00    +0.260 A 
ATOM     17  C   UNL     1       6.698  -9.267  35.615  0.00  0.00    +0.307 C 
ATOM     18  C   UNL     1       7.268 -10.546  30.927  0.00  0.00    +0.053 A 
ATOM     19  C   UNL     1       6.588  -9.411  30.704  0.00  0.00    +0.016 A 
ATOM     35  H   UNL     1       5.338  -8.724  34.147  0.00  0.00    +0.156 HD
ENDROOT
BRANCH  18  20
ATOM      1  S   UNL     1       7.958 -12.278  28.953  0.00  0.00    -0.088 S 
ATOM     20  C   UNL     1       6.935 -11.733  30.208  0.00  0.00    +0.026 A 
ATOM     22  C   UNL     1       5.849 -12.568  30.376  0.00  0.00    +0.024 A 
ATOM     23  C   UNL     1       5.844 -13.677  29.464  0.00  0.00    -0.010 A 
ATOM     24  C   UNL     1       6.957 -13.641  28.618  0.00  0.00    +0.020 A 
ATOM     27  C   UNL     1       4.922 -14.740  29.313  0.00  0.00    +0.009 A 
ATOM     28  C   UNL     1       7.167 -14.630  27.637  0.00  0.00    +0.015 A 
ATOM     31  C   UNL     1       5.128 -15.723  28.341  0.00  0.00    +0.001 A 
ATOM     32  C   UNL     1       6.240 -15.666  27.512  0.00  0.00    +0.001 A 
ENDBRANCH  18  20
BRANCH   7  21
ATOM     21  C   UNL     1       4.251  -9.859  35.470  0.00  0.00    +0.077 A 
ATOM     25  C   UNL     1       3.855 -11.080  34.932  0.00  0.00    +0.141 A 
ATOM     26  C   UNL     1       3.486  -9.245  36.458  0.00  0.00    +0.027 A 
ATOM     29  C   UNL     1       2.685 -11.692  35.385  0.00  0.00    +0.047 A 
ATOM     30  C   UNL     1       2.315  -9.856  36.911  0.00  0.00    +0.002 A 
ATOM     33  C   UNL     1       1.916 -11.079  36.373  0.00  0.00    +0.004 A 
BRANCH  25   4
ATOM      4  O   UNL     1       4.592 -11.697  33.965  0.00  0.00    -0.493 OA
ATOM     34  C   UNL     1       5.384 -12.812  34.367  0.00  0.00    +0.277 C 
ENDBRANCH  25   4
ENDBRANCH   7  21
TORSDOF 3
ENDMDL
MODEL 10
REMARK VINA RESULT:      -7.7     23.757     26.924
REMARK  Name = 7672465
REMARK  4 active torsions:
REMARK  status: ('A' for Active; 'I' for Inactive)
REMARK    1  A    between atoms: O_4  and  C_25
REMARK    2  A    between atoms: O_4  and  C_34
REMARK    3  A    between atoms: N_7  and  C_21
REMARK    4  A    between atoms: C_18  and  C_20
REMARK                            x       y       z     vdW  Elec       q    Type
REMARK                         _______ _______ _______ _____ _____    ______ ____
ROOT
ATOM      2  O   UNL     1      -1.245  10.097  40.777  0.00  0.00    -0.267 OA
ATOM      3  O   UNL     1      -4.228  12.457  37.789  0.00  0.00    -0.252 OA
ATOM      5  N   UNL     1      -0.717  10.500  38.540  0.00  0.00    -0.311 N 
ATOM      6  N   UNL     1      -2.367  12.123  36.460  0.00  0.00    -0.284 N 
ATOM      7  N   UNL     1      -4.120  10.546  36.476  0.00  0.00    -0.266 N 
ATOM      8  C   UNL     1      -0.311  12.861  37.628  0.00  0.00    +0.027 C 
ATOM      9  C   UNL     1      -0.236  10.923  36.103  0.00  0.00    +0.054 C 
ATOM     10  C   UNL     1       0.540  12.153  36.576  0.00  0.00    +0.018 C 
ATOM     11  C   UNL     1      -0.470  11.922  38.832  0.00  0.00    +0.130 C 
ATOM     12  C   UNL     1      -1.673  13.279  37.033  0.00  0.00    +0.114 C 
ATOM     13  C   UNL     1      -1.567  11.382  35.472  0.00  0.00    +0.119 C 
ATOM     14  C   UNL     1      -0.519   9.979  37.257  0.00  0.00    +0.027 A 
ATOM     15  C   UNL     1      -0.641   8.660  37.036  0.00  0.00    +0.022 A 
ATOM     16  C   UNL     1      -1.073   9.681  39.630  0.00  0.00    +0.260 A 
ATOM     17  C   UNL     1      -3.638  11.762  36.958  0.00  0.00    +0.307 C 
ATOM     18  C   UNL     1      -1.246   8.217  39.336  0.00  0.00    +0.053 A 
ATOM     19  C   UNL     1      -1.014   7.766  38.095  0.00  0.00    +0.016 A 
ATOM     35  H   UNL     1      -3.445   9.847  36.187  0.00  0.00    +0.156 HD
ENDROOT
BRANCH  18  20
ATOM      1  S   UNL     1      -0.478   6.682  41.441  0.00  0.00    -0.088 S 
ATOM     20  C   UNL     1      -1.646   7.311  40.365  0.00  0.00    +0.026 A 
ATOM     22  C   UNL     1      -2.908   6.832  40.649  0.00  0.00    +0.024 A 
ATOM     23  C   UNL     1      -2.930   5.931  41.767  0.00  0.00    -0.010 A 
ATOM     24  C   UNL     1      -1.650   5.758  42.302  0.00  0.00    +0.020 A 
ATOM     27  C   UNL     1      -4.007   5.235  42.367  0.00  0.00    +0.009 A 
ATOM     28  C   UNL     1      -1.423   4.916  43.409  0.00  0.00    +0.015 A 
ATOM     31  C   UNL     1      -3.785   4.399  43.465  0.00  0.00    +0.001 A 
ATOM     32  C   UNL     1      -2.505   4.243  43.978  0.00  0.00    +0.001 A 
ENDBRANCH  18  20
BRANCH   7  21
ATOM     21  C   UNL     1      -5.471  10.128  36.384  0.00  0.00    +0.077 A 
ATOM     25  C   UNL     1      -5.989   9.206  37.289  0.00  0.00    +0.141 A 
ATOM     26  C   UNL     1      -6.276  10.653  35.376  0.00  0.00    +0.027 A 
ATOM     29  C   UNL     1      -7.321   8.805  37.186  0.00  0.00    +0.047 A 
ATOM     30  C   UNL     1      -7.609  10.252  35.273  0.00  0.00    +0.002 A 
ATOM     33  C   UNL     1      -8.130   9.328  36.177  0.00  0.00    +0.004 A 
BRANCH  25   4
ATOM      4  O   UNL     1      -5.215   8.683  38.282  0.00  0.00    -0.493 OA
ATOM     34  C   UNL     1      -5.412   9.201  39.596  0.00  0.00    +0.277 C 
ENDBRANCH  25   4
ENDBRANCH   7  21
TORSDOF 3
ENDMDL
