MODEL 1
REMARK VINA RESULT:      -7.0      0.000      0.000
REMARK  Name = 28961668
REMARK  8 active torsions:
REMARK  status: ('A' for Active; 'I' for Inactive)
REMARK    1  A    between atoms: O_2  and  C_11
REMARK    2  A    between atoms: O_3  and  C_18
REMARK    3  A    between atoms: N_5  and  C_9
REMARK    4  A    between atoms: N_6  and  C_19
REMARK    5  A    between atoms: N_7  and  C_15
REMARK    6  A    between atoms: N_8  and  C_21
REMARK    7  A    between atoms: C_10  and  C_15
REMARK    8  A    between atoms: C_12  and  C_18
REMARK                            x       y       z     vdW  Elec       q    Type
REMARK                         _______ _______ _______ _____ _____    ______ ____
ROOT
ATOM      1  O   UNL     1      10.923   7.930  20.122  0.00  0.00    -0.365 OA
ATOM      9  C   UNL     1      11.161   9.769  21.615  0.00  0.00    +0.118 C 
ATOM     10  C   UNL     1      11.242   9.339  20.145  0.00  0.00    +0.155 C 
ATOM     11  C   UNL     1      11.443   8.477  22.366  0.00  0.00    +0.165 C 
ATOM     12  C   UNL     1      10.726   7.471  21.473  0.00  0.00    +0.174 C 
ENDROOT
BRANCH   9   5
ATOM      5  N   UNL     1      11.991  10.908  22.002  0.00  0.00    -0.292 NA
ATOM      6  N   UNL     1      12.398  13.510  23.194  0.00  0.00    -0.303 NA
ATOM     13  C   UNL     1      11.542  12.134  21.330  0.00  0.00    +0.100 C 
ATOM     14  C   UNL     1      11.981  11.090  23.459  0.00  0.00    +0.100 C 
ATOM     16  C   UNL     1      12.408  13.330  21.737  0.00  0.00    +0.099 C 
ATOM     17  C   UNL     1      12.850  12.286  23.866  0.00  0.00    +0.099 C 
ATOM     19  C   UNL     1      13.226  14.651  23.583  0.00  0.00    +0.105 C 
ENDBRANCH   9   5
BRANCH  11   2
ATOM      2  O   UNL     1      12.836   8.193  22.412  0.00  0.00    -0.388 OA
ATOM     27  H   UNL     1      13.311   9.034  22.303  0.00  0.00    +0.210 HD
ENDBRANCH  11   2
BRANCH  10  15
ATOM     15  C   UNL     1      12.593   9.507  19.457  0.00  0.00    +0.139 C 
BRANCH  15   7
ATOM      4  O   UNL     1      15.426   9.356  19.845  0.00  0.00    -0.253 OA
ATOM      7  N   UNL     1      13.379   8.315  19.568  0.00  0.00    -0.297 N 
ATOM      8  N   UNL     1      15.265   7.015  19.829  0.00  0.00    -0.269 N 
ATOM     20  C   UNL     1      14.772   8.320  19.758  0.00  0.00    +0.304 C 
ATOM     28  H   UNL     1      12.903   7.420  19.517  0.00  0.00    +0.150 HD
ATOM     30  H   UNL     1      14.586   6.264  19.736  0.00  0.00    +0.156 HD
BRANCH   8  21
ATOM     21  C   UNL     1      16.606   6.602  20.014  0.00  0.00    +0.035 A 
ATOM     22  C   UNL     1      17.312   7.011  21.146  0.00  0.00    +0.023 A 
ATOM     23  C   UNL     1      17.222   5.787  19.065  0.00  0.00    +0.023 A 
ATOM     24  C   UNL     1      18.633   6.605  21.328  0.00  0.00    +0.002 A 
ATOM     25  C   UNL     1      18.544   5.381  19.247  0.00  0.00    +0.002 A 
ATOM     26  C   UNL     1      19.250   5.790  20.378  0.00  0.00    +0.000 A 
ENDBRANCH   8  21
ENDBRANCH  15   7
ENDBRANCH  10  15
BRANCH  12  18
ATOM     18  C   UNL     1      11.206   6.036  21.589  0.00  0.00    +0.190 C 
BRANCH  18   3
ATOM      3  O   UNL     1      12.481   5.928  20.977  0.00  0.00    -0.392 OA
ATOM     29  H   UNL     1      13.146   6.005  21.683  0.00  0.00    +0.210 HD
ENDBRANCH  18   3
ENDBRANCH  12  18
TORSDOF 7
ENDMDL
MODEL 2
REMARK VINA RESULT:      -6.2      1.910      2.555
REMARK  Name = 28961668
REMARK  8 active torsions:
REMARK  status: ('A' for Active; 'I' for Inactive)
REMARK    1  A    between atoms: O_2  and  C_11
REMARK    2  A    between atoms: O_3  and  C_18
REMARK    3  A    between atoms: N_5  and  C_9
REMARK    4  A    between atoms: N_6  and  C_19
REMARK    5  A    between atoms: N_7  and  C_15
REMARK    6  A    between atoms: N_8  and  C_21
REMARK    7  A    between atoms: C_10  and  C_15
REMARK    8  A    between atoms: C_12  and  C_18
REMARK                            x       y       z     vdW  Elec       q    Type
REMARK                         _______ _______ _______ _____ _____    ______ ____
ROOT
ATOM      1  O   UNL     1      12.684  10.089  21.169  0.00  0.00    -0.365 OA
ATOM      9  C   UNL     1      11.666  11.669  22.629  0.00  0.00    +0.118 C 
ATOM     10  C   UNL     1      12.984  11.261  21.959  0.00  0.00    +0.155 C 
ATOM     11  C   UNL     1      10.895  10.360  22.695  0.00  0.00    +0.165 C 
ATOM     12  C   UNL     1      11.305   9.726  21.371  0.00  0.00    +0.174 C 
ENDROOT
BRANCH   9   5
ATOM      5  N   UNL     1      11.782  12.389  23.896  0.00  0.00    -0.292 NA
ATOM      6  N   UNL     1      11.310  14.664  25.617  0.00  0.00    -0.303 NA
ATOM     13  C   UNL     1      12.518  13.647  23.716  0.00  0.00    +0.100 C 
ATOM     14  C   UNL     1      10.456  12.650  24.471  0.00  0.00    +0.100 C 
ATOM     16  C   UNL     1      12.636  14.405  25.043  0.00  0.00    +0.099 C 
ATOM     17  C   UNL     1      10.575  13.406  25.798  0.00  0.00    +0.099 C 
ATOM     19  C   UNL     1      11.424  15.386  26.883  0.00  0.00    +0.105 C 
ENDBRANCH   9   5
BRANCH  11   2
ATOM      2  O   UNL     1      11.327   9.555  23.785  0.00  0.00    -0.388 OA
ATOM     27  H   UNL     1      12.069   9.011  23.473  0.00  0.00    +0.210 HD
ENDBRANCH  11   2
BRANCH  10  15
ATOM     15  C   UNL     1      14.139  10.897  22.886  0.00  0.00    +0.139 C 
BRANCH  15   7
ATOM      4  O   UNL     1      16.139  10.000  21.043  0.00  0.00    -0.253 OA
ATOM      7  N   UNL     1      14.564   9.545  22.674  0.00  0.00    -0.297 N 
ATOM      8  N   UNL     1      15.759   7.798  21.761  0.00  0.00    -0.269 N 
ATOM     20  C   UNL     1      15.556   9.181  21.748  0.00  0.00    +0.304 C 
ATOM     28  H   UNL     1      14.132   8.815  23.232  0.00  0.00    +0.150 HD
ATOM     30  H   UNL     1      15.189   7.259  22.408  0.00  0.00    +0.156 HD
BRANCH   8  21
ATOM     21  C   UNL     1      16.667   7.047  20.978  0.00  0.00    +0.035 A 
ATOM     22  C   UNL     1      17.978   6.861  21.418  0.00  0.00    +0.023 A 
ATOM     23  C   UNL     1      16.251   6.491  19.769  0.00  0.00    +0.023 A 
ATOM     24  C   UNL     1      18.873   6.121  20.646  0.00  0.00    +0.002 A 
ATOM     25  C   UNL     1      17.147   5.751  18.996  0.00  0.00    +0.002 A 
ATOM     26  C   UNL     1      18.458   5.566  19.435  0.00  0.00    +0.000 A 
ENDBRANCH   8  21
ENDBRANCH  15   7
ENDBRANCH  10  15
BRANCH  12  18
ATOM     18  C   UNL     1      11.169   8.216  21.301  0.00  0.00    +0.190 C 
BRANCH  18   3
ATOM      3  O   UNL     1       9.986   7.830  21.982  0.00  0.00    -0.392 OA
ATOM     29  H   UNL     1       9.283   7.754  21.313  0.00  0.00    +0.210 HD
ENDBRANCH  18   3
ENDBRANCH  12  18
TORSDOF 7
ENDMDL
MODEL 3
REMARK VINA RESULT:      -6.1     27.338     30.291
REMARK  Name = 28961668
REMARK  8 active torsions:
REMARK  status: ('A' for Active; 'I' for Inactive)
REMARK    1  A    between atoms: O_2  and  C_11
REMARK    2  A    between atoms: O_3  and  C_18
REMARK    3  A    between atoms: N_5  and  C_9
REMARK    4  A    between atoms: N_6  and  C_19
REMARK    5  A    between atoms: N_7  and  C_15
REMARK    6  A    between atoms: N_8  and  C_21
REMARK    7  A    between atoms: C_10  and  C_15
REMARK    8  A    between atoms: C_12  and  C_18
REMARK                            x       y       z     vdW  Elec       q    Type
REMARK                         _______ _______ _______ _____ _____    ______ ____
ROOT
ATOM      1  O   UNL     1     -17.590   3.449  23.982  0.00  0.00    -0.365 OA
ATOM      9  C   UNL     1     -17.285   2.757  26.239  0.00  0.00    +0.118 C 
ATOM     10  C   UNL     1     -16.830   3.760  25.171  0.00  0.00    +0.155 C 
ATOM     11  C   UNL     1     -17.764   1.573  25.414  0.00  0.00    +0.165 C 
ATOM     12  C   UNL     1     -18.411   2.294  24.237  0.00  0.00    +0.174 C 
ENDROOT
BRANCH   9   5
ATOM      5  N   UNL     1     -16.311   2.437  27.280  0.00  0.00    -0.292 NA
ATOM      6  N   UNL     1     -15.519   2.053  30.034  0.00  0.00    -0.303 NA
ATOM     13  C   UNL     1     -16.120   3.578  28.185  0.00  0.00    +0.100 C 
ATOM     14  C   UNL     1     -16.726   1.248  28.036  0.00  0.00    +0.100 C 
ATOM     16  C   UNL     1     -15.102   3.242  29.281  0.00  0.00    +0.099 C 
ATOM     17  C   UNL     1     -15.707   0.912  29.130  0.00  0.00    +0.099 C 
ATOM     19  C   UNL     1     -14.546   1.733  31.078  0.00  0.00    +0.105 C 
ENDBRANCH   9   5
BRANCH  11   2
ATOM      2  O   UNL     1     -16.677   0.772  24.968  0.00  0.00    -0.388 OA
ATOM     27  H   UNL     1     -16.040   1.360  24.528  0.00  0.00    +0.210 HD
ENDBRANCH  11   2
BRANCH  10  15
ATOM     15  C   UNL     1     -15.356   3.728  24.786  0.00  0.00    +0.139 C 
BRANCH  15   7
ATOM      4  O   UNL     1     -14.354   4.065  22.124  0.00  0.00    -0.253 OA
ATOM      7  N   UNL     1     -14.957   4.959  24.171  0.00  0.00    -0.297 N 
ATOM      8  N   UNL     1     -14.164   6.369  22.528  0.00  0.00    -0.269 N 
ATOM     20  C   UNL     1     -14.473   5.045  22.854  0.00  0.00    +0.304 C 
ATOM     28  H   UNL     1     -15.039   5.814  24.712  0.00  0.00    +0.150 HD
ATOM     30  H   UNL     1     -14.321   7.066  23.251  0.00  0.00    +0.156 HD
BRANCH   8  21
ATOM     21  C   UNL     1     -13.655   6.865  21.304  0.00  0.00    +0.035 A 
ATOM     22  C   UNL     1     -14.514   7.466  20.383  0.00  0.00    +0.023 A 
ATOM     23  C   UNL     1     -12.294   6.755  21.020  0.00  0.00    +0.023 A 
ATOM     24  C   UNL     1     -14.012   7.954  19.178  0.00  0.00    +0.002 A 
ATOM     25  C   UNL     1     -11.792   7.244  19.814  0.00  0.00    +0.002 A 
ATOM     26  C   UNL     1     -12.651   7.843  18.892  0.00  0.00    +0.000 A 
ENDBRANCH   8  21
ENDBRANCH  15   7
ENDBRANCH  10  15
BRANCH  12  18
ATOM     18  C   UNL     1     -18.539   1.479  22.963  0.00  0.00    +0.190 C 
BRANCH  18   3
ATOM      3  O   UNL     1     -17.290   1.480  22.291  0.00  0.00    -0.392 OA
ATOM     29  H   UNL     1     -16.669   0.970  22.840  0.00  0.00    +0.210 HD
ENDBRANCH  18   3
ENDBRANCH  12  18
TORSDOF 7
ENDMDL
MODEL 4
REMARK VINA RESULT:      -5.9      4.511      9.556
REMARK  Name = 28961668
REMARK  8 active torsions:
REMARK  status: ('A' for Active; 'I' for Inactive)
REMARK    1  A    between atoms: O_2  and  C_11
REMARK    2  A    between atoms: O_3  and  C_18
REMARK    3  A    between atoms: N_5  and  C_9
REMARK    4  A    between atoms: N_6  and  C_19
REMARK    5  A    between atoms: N_7  and  C_15
REMARK    6  A    between atoms: N_8  and  C_21
REMARK    7  A    between atoms: C_10  and  C_15
REMARK    8  A    between atoms: C_12  and  C_18
REMARK                            x       y       z     vdW  Elec       q    Type
REMARK                         _______ _______ _______ _____ _____    ______ ____
ROOT
ATOM      1  O   UNL     1      20.258   7.916  20.909  0.00  0.00    -0.365 OA
ATOM      9  C   UNL     1      21.741   6.356  21.927  0.00  0.00    +0.118 C 
ATOM     10  C   UNL     1      20.865   6.622  20.696  0.00  0.00    +0.155 C 
ATOM     11  C   UNL     1      21.071   7.187  23.010  0.00  0.00    +0.165 C 
ATOM     12  C   UNL     1      20.649   8.411  22.204  0.00  0.00    +0.174 C 
ENDROOT
BRANCH   9   5
ATOM      5  N   UNL     1      21.966   4.953  22.269  0.00  0.00    -0.292 NA
ATOM      6  N   UNL     1      23.660   2.699  22.909  0.00  0.00    -0.303 NA
ATOM     13  C   UNL     1      22.772   4.288  21.237  0.00  0.00    +0.100 C 
ATOM     14  C   UNL     1      22.613   4.833  23.581  0.00  0.00    +0.100 C 
ATOM     16  C   UNL     1      23.013   2.817  21.596  0.00  0.00    +0.099 C 
ATOM     17  C   UNL     1      22.852   3.362  23.940  0.00  0.00    +0.099 C 
ATOM     19  C   UNL     1      23.887   1.296  23.251  0.00  0.00    +0.105 C 
ENDBRANCH   9   5
BRANCH  11   2
ATOM      2  O   UNL     1      19.929   6.528  23.543  0.00  0.00    -0.388 OA
ATOM     27  H   UNL     1      19.421   6.169  22.796  0.00  0.00    +0.210 HD
ENDBRANCH  11   2
BRANCH  10  15
ATOM     15  C   UNL     1      19.737   5.631  20.432  0.00  0.00    +0.139 C 
BRANCH  15   7
ATOM      4  O   UNL     1      17.486   5.678  18.662  0.00  0.00    -0.253 OA
ATOM      7  N   UNL     1      18.459   6.226  20.688  0.00  0.00    -0.297 N 
ATOM      8  N   UNL     1      16.279   6.863  20.290  0.00  0.00    -0.269 N 
ATOM     20  C   UNL     1      17.397   6.209  19.766  0.00  0.00    +0.304 C 
ATOM     28  H   UNL     1      18.310   6.672  21.587  0.00  0.00    +0.150 HD
ATOM     30  H   UNL     1      16.373   7.251  21.225  0.00  0.00    +0.156 HD
BRANCH   8  21
ATOM     21  C   UNL     1      15.020   7.058  19.673  0.00  0.00    +0.035 A 
ATOM     22  C   UNL     1      13.852   6.688  20.342  0.00  0.00    +0.023 A 
ATOM     23  C   UNL     1      14.947   7.620  18.400  0.00  0.00    +0.023 A 
ATOM     24  C   UNL     1      12.612   6.879  19.734  0.00  0.00    +0.002 A 
ATOM     25  C   UNL     1      13.705   7.811  17.792  0.00  0.00    +0.002 A 
ATOM     26  C   UNL     1      12.538   7.440  18.459  0.00  0.00    +0.000 A 
ENDBRANCH   8  21
ENDBRANCH  15   7
ENDBRANCH  10  15
BRANCH  12  18
ATOM     18  C   UNL     1      19.509   9.221  22.795  0.00  0.00    +0.190 C 
BRANCH  18   3
ATOM      3  O   UNL     1      18.278   8.642  22.392  0.00  0.00    -0.392 OA
ATOM     29  H   UNL     1      17.791   8.411  23.203  0.00  0.00    +0.210 HD
ENDBRANCH  18   3
ENDBRANCH  12  18
TORSDOF 7
ENDMDL
MODEL 5
REMARK VINA RESULT:      -5.8     28.447     30.668
REMARK  Name = 28961668
REMARK  8 active torsions:
REMARK  status: ('A' for Active; 'I' for Inactive)
REMARK    1  A    between atoms: O_2  and  C_11
REMARK    2  A    between atoms: O_3  and  C_18
REMARK    3  A    between atoms: N_5  and  C_9
REMARK    4  A    between atoms: N_6  and  C_19
REMARK    5  A    between atoms: N_7  and  C_15
REMARK    6  A    between atoms: N_8  and  C_21
REMARK    7  A    between atoms: C_10  and  C_15
REMARK    8  A    between atoms: C_12  and  C_18
REMARK                            x       y       z     vdW  Elec       q    Type
REMARK                         _______ _______ _______ _____ _____    ______ ____
ROOT
ATOM      1  O   UNL     1      -7.502 -11.060  19.864  0.00  0.00    -0.365 OA
ATOM      9  C   UNL     1      -6.692 -12.668  18.307  0.00  0.00    +0.118 C 
ATOM     10  C   UNL     1      -6.458 -11.267  18.887  0.00  0.00    +0.155 C 
ATOM     11  C   UNL     1      -8.184 -12.879  18.510  0.00  0.00    +0.165 C 
ATOM     12  C   UNL     1      -8.382 -12.201  19.861  0.00  0.00    +0.174 C 
ENDROOT
BRANCH   9   5
ATOM      5  N   UNL     1      -6.211 -12.892  16.945  0.00  0.00    -0.292 NA
ATOM      6  N   UNL     1      -4.581 -14.250  14.981  0.00  0.00    -0.303 NA
ATOM     13  C   UNL     1      -4.765 -12.651  16.856  0.00  0.00    +0.100 C 
ATOM     14  C   UNL     1      -6.532 -14.252  16.496  0.00  0.00    +0.100 C 
ATOM     16  C   UNL     1      -4.258 -12.890  15.430  0.00  0.00    +0.099 C 
ATOM     17  C   UNL     1      -6.026 -14.489  15.068  0.00  0.00    +0.099 C 
ATOM     19  C   UNL     1      -4.099 -14.476  13.620  0.00  0.00    +0.105 C 
ENDBRANCH   9   5
BRANCH  11   2
ATOM      2  O   UNL     1      -8.946 -12.217  17.509  0.00  0.00    -0.388 OA
ATOM     27  H   UNL     1      -8.359 -12.055  16.752  0.00  0.00    +0.210 HD
ENDBRANCH  11   2
BRANCH  10  15
ATOM     15  C   UNL     1      -6.520 -10.102  17.906  0.00  0.00    +0.139 C 
BRANCH  15   7
ATOM      4  O   UNL     1      -8.601  -9.515  16.029  0.00  0.00    -0.253 OA
ATOM      7  N   UNL     1      -7.679  -9.294  18.138  0.00  0.00    -0.297 N 
ATOM      8  N   UNL     1      -9.671  -8.229  17.675  0.00  0.00    -0.269 N 
ATOM     20  C   UNL     1      -8.662  -9.049  17.163  0.00  0.00    +0.304 C 
ATOM     28  H   UNL     1      -7.801  -8.885  19.059  0.00  0.00    +0.150 HD
ATOM     30  H   UNL     1      -9.569  -7.927  18.640  0.00  0.00    +0.156 HD
BRANCH   8  21
ATOM     21  C   UNL     1     -10.829  -7.760  17.010  0.00  0.00    +0.035 A 
ATOM     22  C   UNL     1     -10.798  -6.539  16.334  0.00  0.00    +0.023 A 
ATOM     23  C   UNL     1     -11.999  -8.518  17.028  0.00  0.00    +0.023 A 
ATOM     24  C   UNL     1     -11.939  -6.077  15.679  0.00  0.00    +0.002 A 
ATOM     25  C   UNL     1     -13.140  -8.055  16.373  0.00  0.00    +0.002 A 
ATOM     26  C   UNL     1     -13.111  -6.834  15.699  0.00  0.00    +0.000 A 
ENDBRANCH   8  21
ENDBRANCH  15   7
ENDBRANCH  10  15
BRANCH  12  18
ATOM     18  C   UNL     1      -9.797 -11.742  20.161  0.00  0.00    +0.190 C 
BRANCH  18   3
ATOM      3  O   UNL     1      -9.791 -10.338  20.362  0.00  0.00    -0.392 OA
ATOM     29  H   UNL     1      -9.242  -9.950  19.658  0.00  0.00    +0.210 HD
ENDBRANCH  18   3
ENDBRANCH  12  18
TORSDOF 7
ENDMDL
MODEL 6
REMARK VINA RESULT:      -5.8     26.752     28.800
REMARK  Name = 28961668
REMARK  8 active torsions:
REMARK  status: ('A' for Active; 'I' for Inactive)
REMARK    1  A    between atoms: O_2  and  C_11
REMARK    2  A    between atoms: O_3  and  C_18
REMARK    3  A    between atoms: N_5  and  C_9
REMARK    4  A    between atoms: N_6  and  C_19
REMARK    5  A    between atoms: N_7  and  C_15
REMARK    6  A    between atoms: N_8  and  C_21
REMARK    7  A    between atoms: C_10  and  C_15
REMARK    8  A    between atoms: C_12  and  C_18
REMARK                            x       y       z     vdW  Elec       q    Type
REMARK                         _______ _______ _______ _____ _____    ______ ____
ROOT
ATOM      1  O   UNL     1      -1.483 -12.817  13.364  0.00  0.00    -0.365 OA
ATOM      9  C   UNL     1      -2.957 -11.952  11.707  0.00  0.00    +0.118 C 
ATOM     10  C   UNL     1      -1.865 -11.582  12.718  0.00  0.00    +0.155 C 
ATOM     11  C   UNL     1      -3.561 -13.214  12.302  0.00  0.00    +0.165 C 
ATOM     12  C   UNL     1      -2.313 -13.883  12.866  0.00  0.00    +0.174 C 
ENDROOT
BRANCH   9   5
ATOM      5  N   UNL     1      -3.915 -10.899  11.378  0.00  0.00    -0.292 NA
ATOM      6  N   UNL     1      -5.465  -9.318   9.518  0.00  0.00    -0.303 NA
ATOM     13  C   UNL     1      -3.287  -9.861  10.550  0.00  0.00    +0.100 C 
ATOM     14  C   UNL     1      -5.089 -11.457  10.695  0.00  0.00    +0.100 C 
ATOM     16  C   UNL     1      -4.292  -8.758  10.199  0.00  0.00    +0.099 C 
ATOM     17  C   UNL     1      -6.094 -10.353  10.346  0.00  0.00    +0.099 C 
ATOM     19  C   UNL     1      -6.424  -8.266   9.185  0.00  0.00    +0.105 C 
ENDBRANCH   9   5
BRANCH  11   2
ATOM      2  O   UNL     1      -4.477 -12.913  13.346  0.00  0.00    -0.388 OA
ATOM     27  H   UNL     1      -5.165 -12.336  12.977  0.00  0.00    +0.210 HD
ENDBRANCH  11   2
BRANCH  10  15
ATOM     15  C   UNL     1      -2.254 -10.599  13.817  0.00  0.00    +0.139 C 
BRANCH  15   7
ATOM      4  O   UNL     1      -4.684 -10.277  15.299  0.00  0.00    -0.253 OA
ATOM      7  N   UNL     1      -2.623 -11.288  15.018  0.00  0.00    -0.297 N 
ATOM      8  N   UNL     1      -3.920 -11.886  16.827  0.00  0.00    -0.269 N 
ATOM     20  C   UNL     1      -3.838 -11.076  15.692  0.00  0.00    +0.304 C 
ATOM     28  H   UNL     1      -1.975 -11.973  15.394  0.00  0.00    +0.150 HD
ATOM     30  H   UNL     1      -3.127 -12.494  17.013  0.00  0.00    +0.156 HD
BRANCH   8  21
ATOM     21  C   UNL     1      -4.980 -11.964  17.763  0.00  0.00    +0.035 A 
ATOM     22  C   UNL     1      -6.056 -12.821  17.527  0.00  0.00    +0.023 A 
ATOM     23  C   UNL     1      -4.947 -11.186  18.919  0.00  0.00    +0.023 A 
ATOM     24  C   UNL     1      -7.099 -12.898  18.448  0.00  0.00    +0.002 A 
ATOM     25  C   UNL     1      -5.992 -11.263  19.841  0.00  0.00    +0.002 A 
ATOM     26  C   UNL     1      -7.068 -12.119  19.605  0.00  0.00    +0.000 A 
ENDBRANCH   8  21
ENDBRANCH  15   7
ENDBRANCH  10  15
BRANCH  12  18
ATOM     18  C   UNL     1      -2.556 -14.889  13.976  0.00  0.00    +0.190 C 
BRANCH  18   3
ATOM      3  O   UNL     1      -2.883 -14.188  15.166  0.00  0.00    -0.392 OA
ATOM     29  H   UNL     1      -3.539 -14.724  15.644  0.00  0.00    +0.210 HD
ENDBRANCH  18   3
ENDBRANCH  12  18
TORSDOF 7
ENDMDL
MODEL 7
REMARK VINA RESULT:      -5.7      6.319      9.024
REMARK  Name = 28961668
REMARK  8 active torsions:
REMARK  status: ('A' for Active; 'I' for Inactive)
REMARK    1  A    between atoms: O_2  and  C_11
REMARK    2  A    between atoms: O_3  and  C_18
REMARK    3  A    between atoms: N_5  and  C_9
REMARK    4  A    between atoms: N_6  and  C_19
REMARK    5  A    between atoms: N_7  and  C_15
REMARK    6  A    between atoms: N_8  and  C_21
REMARK    7  A    between atoms: C_10  and  C_15
REMARK    8  A    between atoms: C_12  and  C_18
REMARK                            x       y       z     vdW  Elec       q    Type
REMARK                         _______ _______ _______ _____ _____    ______ ____
ROOT
ATOM      1  O   UNL     1      15.413  12.544  14.905  0.00  0.00    -0.365 OA
ATOM      9  C   UNL     1      13.859  12.736  13.112  0.00  0.00    +0.118 C 
ATOM     10  C   UNL     1      14.016  12.353  14.589  0.00  0.00    +0.155 C 
ATOM     11  C   UNL     1      15.248  12.487  12.544  0.00  0.00    +0.165 C 
ATOM     12  C   UNL     1      16.114  12.944  13.712  0.00  0.00    +0.174 C 
ENDROOT
BRANCH   9   5
ATOM      5  N   UNL     1      12.766  12.089  12.389  0.00  0.00    -0.292 NA
ATOM      6  N   UNL     1      10.408  12.125  10.717  0.00  0.00    -0.303 NA
ATOM     13  C   UNL     1      11.465  12.521  12.915  0.00  0.00    +0.100 C 
ATOM     14  C   UNL     1      12.855  12.366  10.950  0.00  0.00    +0.100 C 
ATOM     16  C   UNL     1      10.317  11.847  12.156  0.00  0.00    +0.099 C 
ATOM     17  C   UNL     1      11.708  11.690  10.192  0.00  0.00    +0.099 C 
ATOM     19  C   UNL     1       9.314  11.480   9.993  0.00  0.00    +0.105 C 
ENDBRANCH   9   5
BRANCH  11   2
ATOM      2  O   UNL     1      15.463  11.108  12.277  0.00  0.00    -0.388 OA
ATOM     27  H   UNL     1      15.712  10.681  13.114  0.00  0.00    +0.210 HD
ENDBRANCH  11   2
BRANCH  10  15
ATOM     15  C   UNL     1      13.659  10.920  14.965  0.00  0.00    +0.139 C 
BRANCH  15   7
ATOM      4  O   UNL     1      12.871   8.554  16.374  0.00  0.00    -0.253 OA
ATOM      7  N   UNL     1      13.433  10.798  16.375  0.00  0.00    -0.297 N 
ATOM      8  N   UNL     1      12.902   9.781  18.375  0.00  0.00    -0.269 N 
ATOM     20  C   UNL     1      13.046   9.598  16.997  0.00  0.00    +0.304 C 
ATOM     28  H   UNL     1      13.571  11.619  16.955  0.00  0.00    +0.150 HD
ATOM     30  H   UNL     1      13.085  10.715  18.733  0.00  0.00    +0.156 HD
BRANCH   8  21
ATOM     21  C   UNL     1      12.527   8.820  19.343  0.00  0.00    +0.035 A 
ATOM     22  C   UNL     1      13.453   7.871  19.779  0.00  0.00    +0.023 A 
ATOM     23  C   UNL     1      11.233   8.822  19.863  0.00  0.00    +0.023 A 
ATOM     24  C   UNL     1      13.083   6.924  20.733  0.00  0.00    +0.002 A 
ATOM     25  C   UNL     1      10.863   7.874  20.818  0.00  0.00    +0.002 A 
ATOM     26  C   UNL     1      11.788   6.924  21.252  0.00  0.00    +0.000 A 
ENDBRANCH   8  21
ENDBRANCH  15   7
ENDBRANCH  10  15
BRANCH  12  18
ATOM     18  C   UNL     1      17.521  12.374  13.744  0.00  0.00    +0.190 C 
BRANCH  18   3
ATOM      3  O   UNL     1      17.485  11.100  14.366  0.00  0.00    -0.392 OA
ATOM     29  H   UNL     1      18.203  11.082  15.023  0.00  0.00    +0.210 HD
ENDBRANCH  18   3
ENDBRANCH  12  18
TORSDOF 7
ENDMDL
MODEL 8
REMARK VINA RESULT:      -5.7     27.202     30.170
REMARK  Name = 28961668
REMARK  8 active torsions:
REMARK  status: ('A' for Active; 'I' for Inactive)
REMARK    1  A    between atoms: O_2  and  C_11
REMARK    2  A    between atoms: O_3  and  C_18
REMARK    3  A    between atoms: N_5  and  C_9
REMARK    4  A    between atoms: N_6  and  C_19
REMARK    5  A    between atoms: N_7  and  C_15
REMARK    6  A    between atoms: N_8  and  C_21
REMARK    7  A    between atoms: C_10  and  C_15
REMARK    8  A    between atoms: C_12  and  C_18
REMARK                            x       y       z     vdW  Elec       q    Type
REMARK                         _______ _______ _______ _____ _____    ______ ____
ROOT
ATOM      1  O   UNL     1     -17.390   5.121  22.994  0.00  0.00    -0.365 OA
ATOM      9  C   UNL     1     -17.623   3.649  24.849  0.00  0.00    +0.118 C 
ATOM     10  C   UNL     1     -16.885   4.888  24.327  0.00  0.00    +0.155 C 
ATOM     11  C   UNL     1     -17.990   2.906  23.574  0.00  0.00    +0.165 C 
ATOM     12  C   UNL     1     -18.320   4.075  22.653  0.00  0.00    +0.174 C 
ENDROOT
BRANCH   9   5
ATOM      5  N   UNL     1     -16.919   2.853  25.853  0.00  0.00    -0.292 NA
ATOM      6  N   UNL     1     -16.648   1.678  28.480  0.00  0.00    -0.303 NA
ATOM     13  C   UNL     1     -16.578   3.672  27.023  0.00  0.00    +0.100 C 
ATOM     14  C   UNL     1     -17.722   1.693  26.257  0.00  0.00    +0.100 C 
ATOM     16  C   UNL     1     -15.844   2.839  28.079  0.00  0.00    +0.099 C 
ATOM     17  C   UNL     1     -16.986   0.858  27.311  0.00  0.00    +0.099 C 
ATOM     19  C   UNL     1     -15.946   0.882  29.486  0.00  0.00    +0.105 C 
ENDBRANCH   9   5
BRANCH  11   2
ATOM      2  O   UNL     1     -16.886   2.169  23.063  0.00  0.00    -0.388 OA
ATOM     27  H   UNL     1     -16.378   2.763  22.486  0.00  0.00    +0.210 HD
ENDBRANCH  11   2
BRANCH  10  15
ATOM     15  C   UNL     1     -15.368   4.789  24.225  0.00  0.00    +0.139 C 
BRANCH  15   7
ATOM      4  O   UNL     1     -14.183   4.699  21.619  0.00  0.00    -0.253 OA
ATOM      7  N   UNL     1     -14.826   5.894  23.492  0.00  0.00    -0.297 N 
ATOM      8  N   UNL     1     -13.817   7.013  21.748  0.00  0.00    -0.269 N 
ATOM     20  C   UNL     1     -14.259   5.772  22.212  0.00  0.00    +0.304 C 
ATOM     28  H   UNL     1     -14.866   6.815  23.916  0.00  0.00    +0.150 HD
ATOM     30  H   UNL     1     -13.954   7.808  22.367  0.00  0.00    +0.156 HD
BRANCH   8  21
ATOM     21  C   UNL     1     -13.193   7.306  20.511  0.00  0.00    +0.035 A 
ATOM     22  C   UNL     1     -11.824   7.086  20.351  0.00  0.00    +0.023 A 
ATOM     23  C   UNL     1     -13.946   7.813  19.453  0.00  0.00    +0.023 A 
ATOM     24  C   UNL     1     -11.210   7.375  19.134  0.00  0.00    +0.002 A 
ATOM     25  C   UNL     1     -13.332   8.102  18.235  0.00  0.00    +0.002 A 
ATOM     26  C   UNL     1     -11.963   7.883  18.075  0.00  0.00    +0.000 A 
ENDBRANCH   8  21
ENDBRANCH  15   7
ENDBRANCH  10  15
BRANCH  12  18
ATOM     18  C   UNL     1     -18.223   3.783  21.167  0.00  0.00    +0.190 C 
BRANCH  18   3
ATOM      3  O   UNL     1     -17.002   4.311  20.674  0.00  0.00    -0.392 OA
ATOM     29  H   UNL     1     -17.007   5.266  20.860  0.00  0.00    +0.210 HD
ENDBRANCH  18   3
ENDBRANCH  12  18
TORSDOF 7
ENDMDL
MODEL 9
REMARK VINA RESULT:      -5.7     27.343     29.983
REMARK  Name = 28961668
REMARK  8 active torsions:
REMARK  status: ('A' for Active; 'I' for Inactive)
REMARK    1  A    between atoms: O_2  and  C_11
REMARK    2  A    between atoms: O_3  and  C_18
REMARK    3  A    between atoms: N_5  and  C_9
REMARK    4  A    between atoms: N_6  and  C_19
REMARK    5  A    between atoms: N_7  and  C_15
REMARK    6  A    between atoms: N_8  and  C_21
REMARK    7  A    between atoms: C_10  and  C_15
REMARK    8  A    between atoms: C_12  and  C_18
REMARK                            x       y       z     vdW  Elec       q    Type
REMARK                         _______ _______ _______ _____ _____    ______ ____
ROOT
ATOM      1  O   UNL     1      -5.193 -10.248  18.309  0.00  0.00    -0.365 OA
ATOM      9  C   UNL     1      -4.296 -11.818  16.762  0.00  0.00    +0.118 C 
ATOM     10  C   UNL     1      -4.661 -10.343  16.969  0.00  0.00    +0.155 C 
ATOM     11  C   UNL     1      -5.229 -12.540  17.721  0.00  0.00    +0.165 C 
ATOM     12  C   UNL     1      -5.239 -11.564  18.891  0.00  0.00    +0.174 C 
ENDROOT
BRANCH   9   5
ATOM      5  N   UNL     1      -4.322 -12.303  15.383  0.00  0.00    -0.292 NA
ATOM      6  N   UNL     1      -3.189 -13.710  13.127  0.00  0.00    -0.303 NA
ATOM     13  C   UNL     1      -3.213 -11.733  14.608  0.00  0.00    +0.100 C 
ATOM     14  C   UNL     1      -4.274 -13.769  15.345  0.00  0.00    +0.100 C 
ATOM     16  C   UNL     1      -3.236 -12.243  13.164  0.00  0.00    +0.099 C 
ATOM     17  C   UNL     1      -4.300 -14.279  13.899  0.00  0.00    +0.099 C 
ATOM     19  C   UNL     1      -3.213 -14.196  11.748  0.00  0.00    +0.105 C 
ENDBRANCH   9   5
BRANCH  11   2
ATOM      2  O   UNL     1      -6.536 -12.674  17.176  0.00  0.00    -0.388 OA
ATOM     27  H   UNL     1      -7.030 -11.866  17.396  0.00  0.00    +0.210 HD
ENDBRANCH  11   2
BRANCH  10  15
ATOM     15  C   UNL     1      -5.705  -9.758  16.025  0.00  0.00    +0.139 C 
BRANCH  15   7
ATOM      4  O   UNL     1      -8.386 -10.752  16.195  0.00  0.00    -0.253 OA
ATOM      7  N   UNL     1      -6.791  -9.174  16.756  0.00  0.00    -0.297 N 
ATOM      8  N   UNL     1      -8.930  -8.939  17.581  0.00  0.00    -0.269 N 
ATOM     20  C   UNL     1      -8.085  -9.722  16.792  0.00  0.00    +0.304 C 
ATOM     28  H   UNL     1      -6.611  -8.326  17.283  0.00  0.00    +0.150 HD
ATOM     30  H   UNL     1      -8.521  -8.111  18.007  0.00  0.00    +0.156 HD
BRANCH   8  21
ATOM     21  C   UNL     1     -10.300  -9.155  17.864  0.00  0.00    +0.035 A 
ATOM     22  C   UNL     1     -11.278  -8.627  17.020  0.00  0.00    +0.023 A 
ATOM     23  C   UNL     1     -10.672  -9.895  18.985  0.00  0.00    +0.023 A 
ATOM     24  C   UNL     1     -12.627  -8.840  17.299  0.00  0.00    +0.002 A 
ATOM     25  C   UNL     1     -12.022 -10.108  19.265  0.00  0.00    +0.002 A 
ATOM     26  C   UNL     1     -13.000  -9.580  18.421  0.00  0.00    +0.000 A 
ENDBRANCH   8  21
ENDBRANCH  15   7
ENDBRANCH  10  15
BRANCH  12  18
ATOM     18  C   UNL     1      -6.441 -11.662  19.814  0.00  0.00    +0.190 C 
BRANCH  18   3
ATOM      3  O   UNL     1      -7.090 -10.402  19.856  0.00  0.00    -0.392 OA
ATOM     29  H   UNL     1      -6.668  -9.839  19.184  0.00  0.00    +0.210 HD
ENDBRANCH  18   3
ENDBRANCH  12  18
TORSDOF 7
ENDMDL
MODEL 10
REMARK VINA RESULT:      -5.7      3.557      8.876
REMARK  Name = 28961668
REMARK  8 active torsions:
REMARK  status: ('A' for Active; 'I' for Inactive)
REMARK    1  A    between atoms: O_2  and  C_11
REMARK    2  A    between atoms: O_3  and  C_18
REMARK    3  A    between atoms: N_5  and  C_9
REMARK    4  A    between atoms: N_6  and  C_19
REMARK    5  A    between atoms: N_7  and  C_15
REMARK    6  A    between atoms: N_8  and  C_21
REMARK    7  A    between atoms: C_10  and  C_15
REMARK    8  A    between atoms: C_12  and  C_18
REMARK                            x       y       z     vdW  Elec       q    Type
REMARK                         _______ _______ _______ _____ _____    ______ ____
ROOT
ATOM      1  O   UNL     1      18.678   8.471  20.751  0.00  0.00    -0.365 OA
ATOM      9  C   UNL     1      20.534   7.192  21.513  0.00  0.00    +0.118 C 
ATOM     10  C   UNL     1      19.228   7.136  20.710  0.00  0.00    +0.155 C 
ATOM     11  C   UNL     1      20.299   8.348  22.472  0.00  0.00    +0.165 C 
ATOM     12  C   UNL     1      19.518   9.302  21.575  0.00  0.00    +0.174 C 
ENDROOT
BRANCH   9   5
ATOM      5  N   UNL     1      20.962   5.941  22.138  0.00  0.00    -0.292 NA
ATOM      6  N   UNL     1      22.894   3.857  22.667  0.00  0.00    -0.303 NA
ATOM     13  C   UNL     1      21.300   4.938  21.120  0.00  0.00    +0.100 C 
ATOM     14  C   UNL     1      22.104   6.168  23.032  0.00  0.00    +0.100 C 
ATOM     16  C   UNL     1      21.753   3.628  21.773  0.00  0.00    +0.099 C 
ATOM     17  C   UNL     1      22.555   4.858  23.686  0.00  0.00    +0.099 C 
ATOM     19  C   UNL     1      23.324   2.607  23.292  0.00  0.00    +0.105 C 
ENDBRANCH   9   5
BRANCH  11   2
ATOM      2  O   UNL     1      19.505   7.951  23.583  0.00  0.00    -0.388 OA
ATOM     27  H   UNL     1      18.596   8.253  23.418  0.00  0.00    +0.210 HD
ENDBRANCH  11   2
BRANCH  10  15
ATOM     15  C   UNL     1      18.151   6.187  21.222  0.00  0.00    +0.139 C 
BRANCH  15   7
ATOM      4  O   UNL     1      15.576   6.274  19.970  0.00  0.00    -0.253 OA
ATOM      7  N   UNL     1      17.001   6.910  21.678  0.00  0.00    -0.297 N 
ATOM      8  N   UNL     1      14.834   7.697  21.682  0.00  0.00    -0.269 N 
ATOM     20  C   UNL     1      15.765   6.905  21.006  0.00  0.00    +0.304 C 
ATOM     28  H   UNL     1      17.081   7.445  22.537  0.00  0.00    +0.150 HD
ATOM     30  H   UNL     1      15.154   8.155  22.531  0.00  0.00    +0.156 HD
BRANCH   8  21
ATOM     21  C   UNL     1      13.486   7.945  21.327  0.00  0.00    +0.035 A 
ATOM     22  C   UNL     1      13.139   9.143  20.701  0.00  0.00    +0.023 A 
ATOM     23  C   UNL     1      12.506   6.993  21.602  0.00  0.00    +0.023 A 
ATOM     24  C   UNL     1      11.812   9.388  20.352  0.00  0.00    +0.002 A 
ATOM     25  C   UNL     1      11.178   7.237  21.253  0.00  0.00    +0.002 A 
ATOM     26  C   UNL     1      10.831   8.436  20.628  0.00  0.00    +0.000 A 
ENDBRANCH   8  21
ENDBRANCH  15   7
ENDBRANCH  10  15
BRANCH  12  18
ATOM     18  C   UNL     1      18.659  10.323  22.299  0.00  0.00    +0.190 C 
BRANCH  18   3
ATOM      3  O   UNL     1      17.326   9.841  22.357  0.00  0.00    -0.392 OA
ATOM     29  H   UNL     1      16.885  10.306  23.089  0.00  0.00    +0.210 HD
ENDBRANCH  18   3
ENDBRANCH  12  18
TORSDOF 7
ENDMDL
