MODEL 1
REMARK VINA RESULT:      -6.0      0.000      0.000
REMARK  Name = 75536980
REMARK  5 active torsions:
REMARK  status: ('A' for Active; 'I' for Inactive)
REMARK    1  A    between atoms: O_3  and  C_17
REMARK    2  A    between atoms: O_3  and  C_22
REMARK    3  A    between atoms: N_5  and  C_14
REMARK    4  A    between atoms: C_14  and  C_16
REMARK    5  A    between atoms: C_15  and  C_17
REMARK                            x       y       z     vdW  Elec       q    Type
REMARK                         _______ _______ _______ _____ _____    ______ ____
ROOT
ATOM      1  O   UNL     1      12.070   6.962  18.845  0.00  0.00    -0.252 OA
ATOM      2  O   UNL     1      12.687  11.770  13.851  0.00  0.00    -0.273 OA
ATOM      4  N   UNL     1      12.871   8.845  17.692  0.00  0.00    -0.278 N 
ATOM      5  N   UNL     1      14.062   8.076  19.436  0.00  0.00    -0.278 N 
ATOM      6  N   UNL     1      13.584  10.399  15.497  0.00  0.00    -0.296 N 
ATOM      8  C   UNL     1      13.948   9.808  17.853  0.00  0.00    +0.112 C 
ATOM      9  C   UNL     1      14.860   9.161  18.893  0.00  0.00    +0.133 C 
ATOM     10  C   UNL     1      14.612  10.093  16.509  0.00  0.00    +0.132 C 
ATOM     11  C   UNL     1      11.873   9.047  16.658  0.00  0.00    +0.128 C 
ATOM     12  C   UNL     1      12.558   9.359  15.329  0.00  0.00    +0.127 C 
ATOM     13  C   UNL     1      12.894   7.851  18.681  0.00  0.00    +0.306 C 
ATOM     15  C   UNL     1      13.545  11.548  14.708  0.00  0.00    +0.241 C 
ENDROOT
BRANCH   5  14
ATOM     14  C   UNL     1      14.524   7.263  20.540  0.00  0.00    +0.164 C 
BRANCH  14  16
ATOM      7  N   UNL     1      16.164   6.074  19.199  0.00  0.00    -0.258 NA
ATOM     16  C   UNL     1      15.929   6.777  20.330  0.00  0.00    +0.059 A 
ATOM     18  C   UNL     1      16.895   7.063  21.280  0.00  0.00    +0.025 A 
ATOM     19  C   UNL     1      18.187   6.599  21.056  0.00  0.00    +0.003 A 
ATOM     20  C   UNL     1      17.431   5.639  19.014  0.00  0.00    +0.111 A 
ATOM     21  C   UNL     1      18.468   5.873  19.904  0.00  0.00    +0.020 A 
ENDBRANCH  14  16
ENDBRANCH   5  14
BRANCH  15  17
ATOM     17  C   UNL     1      14.632  12.566  14.947  0.00  0.00    +0.255 C 
BRANCH  17   3
ATOM      3  O   UNL     1      15.611  12.347  13.960  0.00  0.00    -0.374 OA
ATOM     22  C   UNL     1      16.933  12.450  14.485  0.00  0.00    +0.194 C 
ENDBRANCH  17   3
ENDBRANCH  15  17
TORSDOF 4
ENDMDL
MODEL 2
REMARK VINA RESULT:      -5.9      4.115      8.034
REMARK  Name = 75536980
REMARK  5 active torsions:
REMARK  status: ('A' for Active; 'I' for Inactive)
REMARK    1  A    between atoms: O_3  and  C_17
REMARK    2  A    between atoms: O_3  and  C_22
REMARK    3  A    between atoms: N_5  and  C_14
REMARK    4  A    between atoms: C_14  and  C_16
REMARK    5  A    between atoms: C_15  and  C_17
REMARK                            x       y       z     vdW  Elec       q    Type
REMARK                         _______ _______ _______ _____ _____    ______ ____
ROOT
ATOM      1  O   UNL     1      15.614   9.615  20.270  0.00  0.00    -0.252 OA
ATOM      2  O   UNL     1      21.662   7.227  22.754  0.00  0.00    -0.273 OA
ATOM      4  N   UNL     1      17.301   8.091  20.859  0.00  0.00    -0.278 N 
ATOM      5  N   UNL     1      15.632   7.374  19.537  0.00  0.00    -0.278 N 
ATOM      6  N   UNL     1      19.893   7.155  21.251  0.00  0.00    -0.296 N 
ATOM      8  C   UNL     1      17.550   6.668  20.694  0.00  0.00    +0.112 C 
ATOM      9  C   UNL     1      16.540   6.245  19.630  0.00  0.00    +0.133 C 
ATOM     10  C   UNL     1      19.010   6.423  20.324  0.00  0.00    +0.132 C 
ATOM     11  C   UNL     1      18.185   8.884  21.694  0.00  0.00    +0.128 C 
ATOM     12  C   UNL     1      19.640   8.602  21.327  0.00  0.00    +0.127 C 
ATOM     13  C   UNL     1      16.117   8.501  20.231  0.00  0.00    +0.306 C 
ATOM     15  C   UNL     1      20.921   6.589  22.003  0.00  0.00    +0.241 C 
ENDROOT
BRANCH   5  14
ATOM     14  C   UNL     1      14.450   7.340  18.705  0.00  0.00    +0.164 C 
BRANCH  14  16
ATOM      7  N   UNL     1      13.048   6.703  20.585  0.00  0.00    -0.258 NA
ATOM     16  C   UNL     1      13.192   7.509  19.509  0.00  0.00    +0.059 A 
ATOM     18  C   UNL     1      12.262   8.460  19.121  0.00  0.00    +0.025 A 
ATOM     19  C   UNL     1      11.109   8.593  19.887  0.00  0.00    +0.003 A 
ATOM     20  C   UNL     1      11.915   6.861  21.305  0.00  0.00    +0.111 A 
ATOM     21  C   UNL     1      10.925   7.782  21.001  0.00  0.00    +0.020 A 
ENDBRANCH  14  16
ENDBRANCH   5  14
BRANCH  15  17
ATOM     17  C   UNL     1      21.111   5.099  21.870  0.00  0.00    +0.255 C 
BRANCH  17   3
ATOM      3  O   UNL     1      21.732   4.664  23.056  0.00  0.00    -0.374 OA
ATOM     22  C   UNL     1      22.330   3.378  22.908  0.00  0.00    +0.194 C 
ENDBRANCH  17   3
ENDBRANCH  15  17
TORSDOF 4
ENDMDL
MODEL 3
REMARK VINA RESULT:      -5.7      4.480      7.317
REMARK  Name = 75536980
REMARK  5 active torsions:
REMARK  status: ('A' for Active; 'I' for Inactive)
REMARK    1  A    between atoms: O_3  and  C_17
REMARK    2  A    between atoms: O_3  and  C_22
REMARK    3  A    between atoms: N_5  and  C_14
REMARK    4  A    between atoms: C_14  and  C_16
REMARK    5  A    between atoms: C_15  and  C_17
REMARK                            x       y       z     vdW  Elec       q    Type
REMARK                         _______ _______ _______ _____ _____    ______ ____
ROOT
ATOM      1  O   UNL     1      10.938   8.113  19.952  0.00  0.00    -0.252 OA
ATOM      2  O   UNL     1      17.716   6.582  19.560  0.00  0.00    -0.273 OA
ATOM      4  N   UNL     1      13.241   8.195  20.407  0.00  0.00    -0.278 N 
ATOM      5  N   UNL     1      11.840   9.253  21.809  0.00  0.00    -0.278 N 
ATOM      6  N   UNL     1      15.826   7.224  20.747  0.00  0.00    -0.296 N 
ATOM      8  C   UNL     1      14.112   8.876  21.350  0.00  0.00    +0.112 C 
ATOM      9  C   UNL     1      13.152   9.408  22.412  0.00  0.00    +0.133 C 
ATOM     10  C   UNL     1      15.180   7.920  21.875  0.00  0.00    +0.132 C 
ATOM     11  C   UNL     1      13.819   7.423  19.322  0.00  0.00    +0.128 C 
ATOM     12  C   UNL     1      14.903   6.495  19.864  0.00  0.00    +0.127 C 
ATOM     13  C   UNL     1      11.886   8.478  20.633  0.00  0.00    +0.306 C 
ATOM     15  C   UNL     1      17.197   7.193  20.497  0.00  0.00    +0.241 C 
ENDROOT
BRANCH   5  14
ATOM     14  C   UNL     1      10.639   9.739  22.453  0.00  0.00    +0.164 C 
BRANCH  14  16
ATOM      7  N   UNL     1      10.653  11.296  24.318  0.00  0.00    -0.258 NA
ATOM     16  C   UNL     1      10.812  11.133  22.985  0.00  0.00    +0.059 A 
ATOM     18  C   UNL     1      11.120  12.160  22.108  0.00  0.00    +0.025 A 
ATOM     19  C   UNL     1      11.275  13.439  22.633  0.00  0.00    +0.003 A 
ATOM     20  C   UNL     1      10.811  12.552  24.792  0.00  0.00    +0.111 A 
ATOM     21  C   UNL     1      11.119  13.647  23.999  0.00  0.00    +0.020 A 
ENDBRANCH  14  16
ENDBRANCH   5  14
BRANCH  15  17
ATOM     17  C   UNL     1      18.073   7.969  21.448  0.00  0.00    +0.255 C 
BRANCH  17   3
ATOM      3  O   UNL     1      19.379   7.466  21.295  0.00  0.00    -0.374 OA
ATOM     22  C   UNL     1      19.770   6.648  22.396  0.00  0.00    +0.194 C 
ENDBRANCH  17   3
ENDBRANCH  15  17
TORSDOF 4
ENDMDL
MODEL 4
REMARK VINA RESULT:      -5.6     12.678     15.659
REMARK  Name = 75536980
REMARK  5 active torsions:
REMARK  status: ('A' for Active; 'I' for Inactive)
REMARK    1  A    between atoms: O_3  and  C_17
REMARK    2  A    between atoms: O_3  and  C_22
REMARK    3  A    between atoms: N_5  and  C_14
REMARK    4  A    between atoms: C_14  and  C_16
REMARK    5  A    between atoms: C_15  and  C_17
REMARK                            x       y       z     vdW  Elec       q    Type
REMARK                         _______ _______ _______ _____ _____    ______ ____
ROOT
ATOM      1  O   UNL     1       9.634   7.049   1.280  0.00  0.00    -0.252 OA
ATOM      2  O   UNL     1       8.668   7.761   8.136  0.00  0.00    -0.273 OA
ATOM      4  N   UNL     1       9.549   6.486   3.559  0.00  0.00    -0.278 N 
ATOM      5  N   UNL     1      10.569   5.066   2.148  0.00  0.00    -0.278 N 
ATOM      6  N   UNL     1       9.782   6.863   6.306  0.00  0.00    -0.296 N 
ATOM      8  C   UNL     1       9.897   5.340   4.382  0.00  0.00    +0.112 C 
ATOM      9  C   UNL     1      10.771   4.488   3.465  0.00  0.00    +0.133 C 
ATOM     10  C   UNL     1      10.578   5.797   5.670  0.00  0.00    +0.132 C 
ATOM     11  C   UNL     1       8.837   7.606   4.148  0.00  0.00    +0.128 C 
ATOM     12  C   UNL     1       9.517   8.028   5.448  0.00  0.00    +0.127 C 
ATOM     13  C   UNL     1       9.882   6.294   2.210  0.00  0.00    +0.306 C 
ATOM     15  C   UNL     1       9.312   6.845   7.619  0.00  0.00    +0.241 C 
ENDROOT
BRANCH   5  14
ATOM     14  C   UNL     1      11.144   4.480   0.957  0.00  0.00    +0.164 C 
BRANCH  14  16
ATOM      7  N   UNL     1      13.188   5.741   0.594  0.00  0.00    -0.258 NA
ATOM     16  C   UNL     1      12.644   4.559   0.961  0.00  0.00    +0.059 A 
ATOM     18  C   UNL     1      13.381   3.446   1.331  0.00  0.00    +0.025 A 
ATOM     19  C   UNL     1      14.768   3.552   1.324  0.00  0.00    +0.003 A 
ATOM     20  C   UNL     1      14.539   5.807   0.599  0.00  0.00    +0.111 A 
ATOM     21  C   UNL     1      15.365   4.752   0.953  0.00  0.00    +0.020 A 
ENDBRANCH  14  16
ENDBRANCH   5  14
BRANCH  15  17
ATOM     17  C   UNL     1       9.624   5.612   8.428  0.00  0.00    +0.255 C 
BRANCH  17   3
ATOM      3  O   UNL     1       8.757   5.629   9.538  0.00  0.00    -0.374 OA
ATOM     22  C   UNL     1       8.952   4.499  10.387  0.00  0.00    +0.194 C 
ENDBRANCH  17   3
ENDBRANCH  15  17
TORSDOF 4
ENDMDL
MODEL 5
REMARK VINA RESULT:      -5.6     26.606     28.999
REMARK  Name = 75536980
REMARK  5 active torsions:
REMARK  status: ('A' for Active; 'I' for Inactive)
REMARK    1  A    between atoms: O_3  and  C_17
REMARK    2  A    between atoms: O_3  and  C_22
REMARK    3  A    between atoms: N_5  and  C_14
REMARK    4  A    between atoms: C_14  and  C_16
REMARK    5  A    between atoms: C_15  and  C_17
REMARK                            x       y       z     vdW  Elec       q    Type
REMARK                         _______ _______ _______ _____ _____    ______ ____
ROOT
ATOM      1  O   UNL     1      -1.839 -11.575  15.172  0.00  0.00    -0.252 OA
ATOM      2  O   UNL     1      -6.339 -11.035  20.455  0.00  0.00    -0.273 OA
ATOM      4  N   UNL     1      -3.890 -11.450  16.309  0.00  0.00    -0.278 N 
ATOM      5  N   UNL     1      -3.905 -12.081  14.153  0.00  0.00    -0.278 N 
ATOM      6  N   UNL     1      -5.709 -11.858  18.376  0.00  0.00    -0.296 N 
ATOM      8  C   UNL     1      -5.299 -11.567  15.971  0.00  0.00    +0.112 C 
ATOM      9  C   UNL     1      -5.287 -12.198  14.581  0.00  0.00    +0.133 C 
ATOM     10  C   UNL     1      -6.036 -12.376  17.035  0.00  0.00    +0.132 C 
ATOM     11  C   UNL     1      -3.503 -11.024  17.642  0.00  0.00    +0.128 C 
ATOM     12  C   UNL     1      -4.272 -11.826  18.689  0.00  0.00    +0.127 C 
ATOM     13  C   UNL     1      -3.057 -11.684  15.206  0.00  0.00    +0.306 C 
ATOM     15  C   UNL     1      -6.637 -11.443  19.330  0.00  0.00    +0.241 C 
ENDROOT
BRANCH   5  14
ATOM     14  C   UNL     1      -3.478 -12.470  12.827  0.00  0.00    +0.164 C 
BRANCH  14  16
ATOM      7  N   UNL     1      -4.536 -11.004  11.204  0.00  0.00    -0.258 NA
ATOM     16  C   UNL     1      -3.409 -11.297  11.892  0.00  0.00    +0.059 A 
ATOM     18  C   UNL     1      -2.225 -10.586  11.782  0.00  0.00    +0.025 A 
ATOM     19  C   UNL     1      -2.195  -9.504  10.908  0.00  0.00    +0.003 A 
ATOM     20  C   UNL     1      -4.469  -9.946  10.365  0.00  0.00    +0.111 A 
ATOM     21  C   UNL     1      -3.333  -9.171  10.183  0.00  0.00    +0.020 A 
ENDBRANCH  14  16
ENDBRANCH   5  14
BRANCH  15  17
ATOM     17  C   UNL     1      -8.089 -11.505  18.927  0.00  0.00    +0.255 C 
BRANCH  17   3
ATOM      3  O   UNL     1      -8.840 -11.244  20.089  0.00  0.00    -0.374 OA
ATOM     22  C   UNL     1     -10.112 -10.674  19.788  0.00  0.00    +0.194 C 
ENDBRANCH  17   3
ENDBRANCH  15  17
TORSDOF 4
ENDMDL
MODEL 6
REMARK VINA RESULT:      -5.6     30.756     33.042
REMARK  Name = 75536980
REMARK  5 active torsions:
REMARK  status: ('A' for Active; 'I' for Inactive)
REMARK    1  A    between atoms: O_3  and  C_17
REMARK    2  A    between atoms: O_3  and  C_22
REMARK    3  A    between atoms: N_5  and  C_14
REMARK    4  A    between atoms: C_14  and  C_16
REMARK    5  A    between atoms: C_15  and  C_17
REMARK                            x       y       z     vdW  Elec       q    Type
REMARK                         _______ _______ _______ _____ _____    ______ ____
ROOT
ATOM      1  O   UNL     1     -16.432   7.182  30.492  0.00  0.00    -0.252 OA
ATOM      2  O   UNL     1     -16.530   0.406  28.904  0.00  0.00    -0.273 OA
ATOM      4  N   UNL     1     -15.801   4.920  30.468  0.00  0.00    -0.278 N 
ATOM      5  N   UNL     1     -14.880   6.267  32.013  0.00  0.00    -0.278 N 
ATOM      6  N   UNL     1     -16.145   2.160  30.378  0.00  0.00    -0.296 N 
ATOM      8  C   UNL     1     -14.826   4.084  31.148  0.00  0.00    +0.112 C 
ATOM      9  C   UNL     1     -14.368   4.944  32.324  0.00  0.00    +0.133 C 
ATOM     10  C   UNL     1     -15.451   2.748  31.539  0.00  0.00    +0.132 C 
ATOM     11  C   UNL     1     -16.576   4.373  29.369  0.00  0.00    +0.128 C 
ATOM     12  C   UNL     1     -17.169   3.025  29.771  0.00  0.00    +0.127 C 
ATOM     13  C   UNL     1     -15.784   6.243  30.932  0.00  0.00    +0.306 C 
ATOM     15  C   UNL     1     -15.919   0.885  29.863  0.00  0.00    +0.241 C 
ENDROOT
BRANCH   5  14
ATOM     14  C   UNL     1     -14.575   7.419  32.833  0.00  0.00    +0.164 C 
BRANCH  14  16
ATOM      7  N   UNL     1     -14.025   9.330  31.438  0.00  0.00    -0.258 NA
ATOM     16  C   UNL     1     -13.552   8.310  32.190  0.00  0.00    +0.059 A 
ATOM     18  C   UNL     1     -12.206   8.053  32.391  0.00  0.00    +0.025 A 
ATOM     19  C   UNL     1     -11.284   8.898  31.782  0.00  0.00    +0.003 A 
ATOM     20  C   UNL     1     -13.099  10.130  30.861  0.00  0.00    +0.111 A 
ATOM     21  C   UNL     1     -11.731   9.958  31.002  0.00  0.00    +0.020 A 
ENDBRANCH  14  16
ENDBRANCH   5  14
BRANCH  15  17
ATOM     17  C   UNL     1     -14.850   0.065  30.541  0.00  0.00    +0.255 C 
BRANCH  17   3
ATOM      3  O   UNL     1     -14.580  -1.025  29.693  0.00  0.00    -0.374 OA
ATOM     22  C   UNL     1     -13.211  -1.068  29.294  0.00  0.00    +0.194 C 
ENDBRANCH  17   3
ENDBRANCH  15  17
TORSDOF 4
ENDMDL
MODEL 7
REMARK VINA RESULT:      -5.4      3.495      5.665
REMARK  Name = 75536980
REMARK  5 active torsions:
REMARK  status: ('A' for Active; 'I' for Inactive)
REMARK    1  A    between atoms: O_3  and  C_17
REMARK    2  A    between atoms: O_3  and  C_22
REMARK    3  A    between atoms: N_5  and  C_14
REMARK    4  A    between atoms: C_14  and  C_16
REMARK    5  A    between atoms: C_15  and  C_17
REMARK                            x       y       z     vdW  Elec       q    Type
REMARK                         _______ _______ _______ _____ _____    ______ ____
ROOT
ATOM      1  O   UNL     1      18.526   6.712  20.096  0.00  0.00    -0.252 OA
ATOM      2  O   UNL     1      11.993   7.223  17.751  0.00  0.00    -0.273 OA
ATOM      4  N   UNL     1      16.266   7.346  20.003  0.00  0.00    -0.278 N 
ATOM      5  N   UNL     1      17.606   8.391  21.474  0.00  0.00    -0.278 N 
ATOM      6  N   UNL     1      13.856   8.093  18.830  0.00  0.00    -0.296 N 
ATOM      8  C   UNL     1      15.377   8.215  20.755  0.00  0.00    +0.112 C 
ATOM      9  C   UNL     1      16.327   9.067  21.595  0.00  0.00    +0.133 C 
ATOM     10  C   UNL     1      14.478   9.005  19.808  0.00  0.00    +0.132 C 
ATOM     11  C   UNL     1      15.725   6.484  18.968  0.00  0.00    +0.128 C 
ATOM     12  C   UNL     1      14.807   7.287  18.050  0.00  0.00    +0.127 C 
ATOM     13  C   UNL     1      17.584   7.393  20.479  0.00  0.00    +0.306 C 
ATOM     15  C   UNL     1      12.487   7.976  18.593  0.00  0.00    +0.241 C 
ENDROOT
BRANCH   5  14
ATOM     14  C   UNL     1      18.772   8.820  22.213  0.00  0.00    +0.164 C 
BRANCH  14  16
ATOM      7  N   UNL     1      19.136  10.874  20.968  0.00  0.00    -0.258 NA
ATOM     16  C   UNL     1      19.665   9.703  21.390  0.00  0.00    +0.059 A 
ATOM     18  C   UNL     1      20.957   9.288  21.108  0.00  0.00    +0.025 A 
ATOM     19  C   UNL     1      21.758  10.130  20.344  0.00  0.00    +0.003 A 
ATOM     20  C   UNL     1      19.945  11.666  20.228  0.00  0.00    +0.111 A 
ATOM     21  C   UNL     1      21.250  11.343  19.892  0.00  0.00    +0.020 A 
ENDBRANCH  14  16
ENDBRANCH   5  14
BRANCH  15  17
ATOM     17  C   UNL     1      11.582   8.836  19.438  0.00  0.00    +0.255 C 
BRANCH  17   3
ATOM      3  O   UNL     1      10.719   7.959  20.123  0.00  0.00    -0.374 OA
ATOM     22  C   UNL     1      10.820   8.105  21.538  0.00  0.00    +0.194 C 
ENDBRANCH  17   3
ENDBRANCH  15  17
TORSDOF 4
ENDMDL
MODEL 8
REMARK VINA RESULT:      -5.3     26.846     28.767
REMARK  Name = 75536980
REMARK  5 active torsions:
REMARK  status: ('A' for Active; 'I' for Inactive)
REMARK    1  A    between atoms: O_3  and  C_17
REMARK    2  A    between atoms: O_3  and  C_22
REMARK    3  A    between atoms: N_5  and  C_14
REMARK    4  A    between atoms: C_14  and  C_16
REMARK    5  A    between atoms: C_15  and  C_17
REMARK                            x       y       z     vdW  Elec       q    Type
REMARK                         _______ _______ _______ _____ _____    ______ ____
ROOT
ATOM      1  O   UNL     1      -4.175 -11.958  18.787  0.00  0.00    -0.252 OA
ATOM      2  O   UNL     1     -10.567  -9.231  18.410  0.00  0.00    -0.273 OA
ATOM      4  N   UNL     1      -5.941 -10.586  18.071  0.00  0.00    -0.278 N 
ATOM      5  N   UNL     1      -4.068 -10.644  16.832  0.00  0.00    -0.278 N 
ATOM      6  N   UNL     1      -8.562  -9.895  17.443  0.00  0.00    -0.296 N 
ATOM      8  C   UNL     1      -6.159  -9.595  17.031  0.00  0.00    +0.112 C 
ATOM      9  C   UNL     1      -4.980  -9.799  16.083  0.00  0.00    +0.133 C 
ATOM     10  C   UNL     1      -7.533  -9.787  16.393  0.00  0.00    +0.132 C 
ATOM     11  C   UNL     1      -6.956 -10.799  19.087  0.00  0.00    +0.128 C 
ATOM     12  C   UNL     1      -8.325 -10.959  18.430  0.00  0.00    +0.127 C 
ATOM     13  C   UNL     1      -4.664 -11.161  18.000  0.00  0.00    +0.306 C 
ATOM     15  C   UNL     1      -9.707  -9.105  17.535  0.00  0.00    +0.241 C 
ENDROOT
BRANCH   5  14
ATOM     14  C   UNL     1      -2.758 -10.994  16.328  0.00  0.00    +0.164 C 
BRANCH  14  16
ATOM      7  N   UNL     1      -3.413 -12.529  14.562  0.00  0.00    -0.258 NA
ATOM     16  C   UNL     1      -2.797 -11.366  14.874  0.00  0.00    +0.059 A 
ATOM     18  C   UNL     1      -2.216 -10.522  13.942  0.00  0.00    +0.025 A 
ATOM     19  C   UNL     1      -2.270 -10.894  12.603  0.00  0.00    +0.003 A 
ATOM     20  C   UNL     1      -3.446 -12.858  13.251  0.00  0.00    +0.111 A 
ATOM     21  C   UNL     1      -2.895 -12.083  12.243  0.00  0.00    +0.020 A 
ENDBRANCH  14  16
ENDBRANCH   5  14
BRANCH  15  17
ATOM     17  C   UNL     1      -9.873  -8.035  16.485  0.00  0.00    +0.255 C 
BRANCH  17   3
ATOM      3  O   UNL     1     -11.160  -7.493  16.663  0.00  0.00    -0.374 OA
ATOM     22  C   UNL     1     -11.250  -6.155  16.176  0.00  0.00    +0.194 C 
ENDBRANCH  17   3
ENDBRANCH  15  17
TORSDOF 4
ENDMDL
MODEL 9
REMARK VINA RESULT:      -5.2     30.804     33.075
REMARK  Name = 75536980
REMARK  5 active torsions:
REMARK  status: ('A' for Active; 'I' for Inactive)
REMARK    1  A    between atoms: O_3  and  C_17
REMARK    2  A    between atoms: O_3  and  C_22
REMARK    3  A    between atoms: N_5  and  C_14
REMARK    4  A    between atoms: C_14  and  C_16
REMARK    5  A    between atoms: C_15  and  C_17
REMARK                            x       y       z     vdW  Elec       q    Type
REMARK                         _______ _______ _______ _____ _____    ______ ____
ROOT
ATOM      1  O   UNL     1     -13.811   5.812  35.037  0.00  0.00    -0.252 OA
ATOM      2  O   UNL     1     -15.263   0.332  30.999  0.00  0.00    -0.273 OA
ATOM      4  N   UNL     1     -14.717   4.565  33.265  0.00  0.00    -0.278 N 
ATOM      5  N   UNL     1     -14.799   6.807  33.141  0.00  0.00    -0.278 N 
ATOM      6  N   UNL     1     -14.823   2.592  31.306  0.00  0.00    -0.296 N 
ATOM      8  C   UNL     1     -15.477   4.838  32.057  0.00  0.00    +0.112 C 
ATOM      9  C   UNL     1     -15.340   6.347  31.875  0.00  0.00    +0.133 C 
ATOM     10  C   UNL     1     -14.946   4.003  30.894  0.00  0.00    +0.132 C 
ATOM     11  C   UNL     1     -14.490   3.192  33.678  0.00  0.00    +0.128 C 
ATOM     12  C   UNL     1     -13.987   2.369  32.495  0.00  0.00    +0.127 C 
ATOM     13  C   UNL     1     -14.375   5.737  33.954  0.00  0.00    +0.306 C 
ATOM     15  C   UNL     1     -15.401   1.506  30.649  0.00  0.00    +0.241 C 
ENDROOT
BRANCH   5  14
ATOM     14  C   UNL     1     -14.613   8.212  33.431  0.00  0.00    +0.164 C 
BRANCH  14  16
ATOM      7  N   UNL     1     -12.542   9.168  34.267  0.00  0.00    -0.258 NA
ATOM     16  C   UNL     1     -13.194   8.649  33.203  0.00  0.00    +0.059 A 
ATOM     18  C   UNL     1     -12.634   8.503  31.944  0.00  0.00    +0.025 A 
ATOM     19  C   UNL     1     -11.318   8.917  31.767  0.00  0.00    +0.003 A 
ATOM     20  C   UNL     1     -11.265   9.559  34.057  0.00  0.00    +0.111 A 
ATOM     21  C   UNL     1     -10.614   9.455  32.838  0.00  0.00    +0.020 A 
ENDBRANCH  14  16
ENDBRANCH   5  14
BRANCH  15  17
ATOM     17  C   UNL     1     -16.246   1.823  29.441  0.00  0.00    +0.255 C 
BRANCH  17   3
ATOM      3  O   UNL     1     -16.172   0.701  28.593  0.00  0.00    -0.374 OA
ATOM     22  C   UNL     1     -16.659   0.985  27.284  0.00  0.00    +0.194 C 
ENDBRANCH  17   3
ENDBRANCH  15  17
TORSDOF 4
ENDMDL
MODEL 10
REMARK VINA RESULT:      -5.2     26.542     28.840
REMARK  Name = 75536980
REMARK  5 active torsions:
REMARK  status: ('A' for Active; 'I' for Inactive)
REMARK    1  A    between atoms: O_3  and  C_17
REMARK    2  A    between atoms: O_3  and  C_22
REMARK    3  A    between atoms: N_5  and  C_14
REMARK    4  A    between atoms: C_14  and  C_16
REMARK    5  A    between atoms: C_15  and  C_17
REMARK                            x       y       z     vdW  Elec       q    Type
REMARK                         _______ _______ _______ _____ _____    ______ ____
ROOT
ATOM      1  O   UNL     1      -1.433 -11.094  16.034  0.00  0.00    -0.252 OA
ATOM      2  O   UNL     1      -7.182 -11.800  19.894  0.00  0.00    -0.273 OA
ATOM      4  N   UNL     1      -3.699 -10.987  16.645  0.00  0.00    -0.278 N 
ATOM      5  N   UNL     1      -3.157 -10.630  14.493  0.00  0.00    -0.278 N 
ATOM      6  N   UNL     1      -6.072 -11.793  17.854  0.00  0.00    -0.296 N 
ATOM      8  C   UNL     1      -4.952 -10.621  16.007  0.00  0.00    +0.112 C 
ATOM      9  C   UNL     1      -4.609 -10.593  14.520  0.00  0.00    +0.133 C 
ATOM     10  C   UNL     1      -6.052 -11.608  16.391  0.00  0.00    +0.132 C 
ATOM     11  C   UNL     1      -3.669 -11.264  18.069  0.00  0.00    +0.128 C 
ATOM     12  C   UNL     1      -4.794 -12.230  18.436  0.00  0.00    +0.127 C 
ATOM     13  C   UNL     1      -2.613 -10.922  15.760  0.00  0.00    +0.306 C 
ATOM     15  C   UNL     1      -7.185 -11.615  18.675  0.00  0.00    +0.241 C 
ENDROOT
BRANCH   5  14
ATOM     14  C   UNL     1      -2.410 -10.513  13.260  0.00  0.00    +0.164 C 
BRANCH  14  16
ATOM      7  N   UNL     1      -2.779 -12.789  12.496  0.00  0.00    -0.258 NA
ATOM     16  C   UNL     1      -2.900 -11.472  12.214  0.00  0.00    +0.059 A 
ATOM     18  C   UNL     1      -3.439 -10.976  11.038  0.00  0.00    +0.025 A 
ATOM     19  C   UNL     1      -3.884 -11.892  10.089  0.00  0.00    +0.003 A 
ATOM     20  C   UNL     1      -3.221 -13.649  11.550  0.00  0.00    +0.111 A 
ATOM     21  C   UNL     1      -3.777 -13.254  10.343  0.00  0.00    +0.020 A 
ENDBRANCH  14  16
ENDBRANCH   5  14
BRANCH  15  17
ATOM     17  C   UNL     1      -8.455 -11.164  17.999  0.00  0.00    +0.255 C 
BRANCH  17   3
ATOM      3  O   UNL     1      -8.519  -9.766  18.154  0.00  0.00    -0.374 OA
ATOM     22  C   UNL     1      -8.706  -9.096  16.909  0.00  0.00    +0.194 C 
ENDBRANCH  17   3
ENDBRANCH  15  17
TORSDOF 4
ENDMDL
