MODEL 1
REMARK VINA RESULT:      -6.8      0.000      0.000
REMARK  Name = 25313249
REMARK  10 active torsions:
REMARK  status: ('A' for Active; 'I' for Inactive)
REMARK    1  A    between atoms: O_2  and  C_21
REMARK    2  A    between atoms: O_4  and  C_24
REMARK    3  A    between atoms: O_4  and  C_34
REMARK    4  A    between atoms: N_6  and  C_14
REMARK    5  A    between atoms: N_7  and  C_23
REMARK    6  A    between atoms: C_8  and  C_12
REMARK    7  A    between atoms: C_9  and  C_15
REMARK    8  A    between atoms: C_12  and  C_14
REMARK    9  A    between atoms: C_15  and  C_21
REMARK   10  A    between atoms: C_20  and  C_22
REMARK                            x       y       z     vdW  Elec       q    Type
REMARK                         _______ _______ _______ _____ _____    ______ ____
ROOT
ATOM      1  O   UNL     1      -1.460  -9.932  11.988  0.00  0.00    -0.270 OA
ATOM      5  N   UNL     1      -2.608 -11.269  13.527  0.00  0.00    -0.297 N 
ATOM      8  C   UNL     1      -4.417 -11.539  15.210  0.00  0.00    +0.011 C 
ATOM      9  C   UNL     1      -3.341 -11.449  16.323  0.00  0.00    +0.006 C 
ATOM     10  C   UNL     1      -3.784 -12.065  13.909  0.00  0.00    +0.112 C 
ATOM     11  C   UNL     1      -2.113 -10.648  15.859  0.00  0.00    +0.023 C 
ATOM     13  C   UNL     1      -1.562 -11.191  14.544  0.00  0.00    +0.108 C 
ATOM     20  C   UNL     1      -2.439 -10.604  12.310  0.00  0.00    +0.247 C 
ENDROOT
BRANCH  20  22
ATOM     22  C   UNL     1      -3.511 -10.704  11.314  0.00  0.00    +0.037 A 
ATOM     25  C   UNL     1      -4.437  -9.671  11.179  0.00  0.00    +0.013 A 
ATOM     26  C   UNL     1      -3.603 -11.834  10.501  0.00  0.00    +0.013 A 
ATOM     30  C   UNL     1      -5.456  -9.767  10.231  0.00  0.00    +0.001 A 
ATOM     31  C   UNL     1      -4.621 -11.930   9.553  0.00  0.00    +0.001 A 
ATOM     33  C   UNL     1      -5.549 -10.896   9.418  0.00  0.00    +0.000 A 
ENDBRANCH  20  22
BRANCH   8  12
ATOM     12  C   UNL     1      -5.153 -10.220  14.948  0.00  0.00    +0.020 C 
BRANCH  12  14
ATOM     14  C   UNL     1      -6.432 -10.459  14.157  0.00  0.00    +0.085 C 
BRANCH  14   6
ATOM      6  N   UNL     1      -7.591 -10.053  14.950  0.00  0.00    -0.299 NA
ATOM      7  N   UNL     1      -9.394 -10.137  17.163  0.00  0.00    -0.325 N 
ATOM     16  C   UNL     1      -7.168  -9.574  16.272  0.00  0.00    +0.103 C 
ATOM     17  C   UNL     1      -8.529 -11.172  15.101  0.00  0.00    +0.103 C 
ATOM     18  C   UNL     1      -8.367  -9.093  17.093  0.00  0.00    +0.120 C 
ATOM     19  C   UNL     1      -9.774 -10.743  15.881  0.00  0.00    +0.120 C 
BRANCH   7  23
ATOM     23  C   UNL     1     -10.352 -10.100  18.182  0.00  0.00    +0.072 A 
ATOM     24  C   UNL     1     -10.037 -10.533  19.471  0.00  0.00    +0.141 A 
ATOM     27  C   UNL     1     -11.632  -9.622  17.902  0.00  0.00    +0.027 A 
ATOM     28  C   UNL     1     -11.001 -10.489  20.477  0.00  0.00    +0.047 A 
ATOM     29  C   UNL     1     -12.596  -9.577  18.908  0.00  0.00    +0.002 A 
ATOM     32  C   UNL     1     -12.281 -10.011  20.196  0.00  0.00    +0.004 A 
BRANCH  24   4
ATOM      4  O   UNL     1      -8.792 -11.003  19.766  0.00  0.00    -0.493 OA
ATOM     34  C   UNL     1      -8.629 -12.418  19.820  0.00  0.00    +0.277 C 
ENDBRANCH  24   4
ENDBRANCH   7  23
ENDBRANCH  14   6
ENDBRANCH  12  14
ENDBRANCH   8  12
BRANCH   9  15
ATOM     15  C   UNL     1      -3.883 -10.892  17.639  0.00  0.00    +0.124 C 
BRANCH  15  21
ATOM      3  O   UNL     1      -5.161 -12.679  18.694  0.00  0.00    -0.251 OA
ATOM     21  C   UNL     1      -4.156 -11.986  18.634  0.00  0.00    +0.305 C 
BRANCH  21   2
ATOM      2  O   UNL     1      -3.104 -12.105  19.484  0.00  0.00    -0.481 OA
ATOM     35  H   UNL     1      -2.810 -11.234  19.825  0.00  0.00    +0.295 HD
ENDBRANCH  21   2
ENDBRANCH  15  21
ENDBRANCH   9  15
TORSDOF 9
ENDMDL
MODEL 2
REMARK VINA RESULT:      -6.4      0.987      1.824
REMARK  Name = 25313249
REMARK  10 active torsions:
REMARK  status: ('A' for Active; 'I' for Inactive)
REMARK    1  A    between atoms: O_2  and  C_21
REMARK    2  A    between atoms: O_4  and  C_24
REMARK    3  A    between atoms: O_4  and  C_34
REMARK    4  A    between atoms: N_6  and  C_14
REMARK    5  A    between atoms: N_7  and  C_23
REMARK    6  A    between atoms: C_8  and  C_12
REMARK    7  A    between atoms: C_9  and  C_15
REMARK    8  A    between atoms: C_12  and  C_14
REMARK    9  A    between atoms: C_15  and  C_21
REMARK   10  A    between atoms: C_20  and  C_22
REMARK                            x       y       z     vdW  Elec       q    Type
REMARK                         _______ _______ _______ _____ _____    ______ ____
ROOT
ATOM      1  O   UNL     1      -1.467 -10.043  11.869  0.00  0.00    -0.270 OA
ATOM      5  N   UNL     1      -2.806 -11.293  13.324  0.00  0.00    -0.297 N 
ATOM      8  C   UNL     1      -4.672 -11.410  14.962  0.00  0.00    +0.011 C 
ATOM      9  C   UNL     1      -3.618 -11.504  16.096  0.00  0.00    +0.006 C 
ATOM     10  C   UNL     1      -4.079 -11.953  13.649  0.00  0.00    +0.112 C 
ATOM     11  C   UNL     1      -2.291 -10.842  15.691  0.00  0.00    +0.023 C 
ATOM     13  C   UNL     1      -1.782 -11.391  14.361  0.00  0.00    +0.108 C 
ATOM     20  C   UNL     1      -2.528 -10.601  12.143  0.00  0.00    +0.247 C 
ENDROOT
BRANCH  20  22
ATOM     22  C   UNL     1      -3.582 -10.523  11.125  0.00  0.00    +0.037 A 
ATOM     25  C   UNL     1      -4.468  -9.446  11.119  0.00  0.00    +0.013 A 
ATOM     26  C   UNL     1      -3.697 -11.526  10.163  0.00  0.00    +0.013 A 
ATOM     30  C   UNL     1      -5.469  -9.372  10.151  0.00  0.00    +0.001 A 
ATOM     31  C   UNL     1      -4.698 -11.452   9.194  0.00  0.00    +0.001 A 
ATOM     33  C   UNL     1      -5.584 -10.375   9.188  0.00  0.00    +0.000 A 
ENDBRANCH  20  22
BRANCH   8  12
ATOM     12  C   UNL     1      -5.233  -9.999  14.750  0.00  0.00    +0.020 C 
BRANCH  12  14
ATOM     14  C   UNL     1      -6.710 -10.051  14.382  0.00  0.00    +0.085 C 
BRANCH  14   6
ATOM      6  N   UNL     1      -7.489 -10.538  15.520  0.00  0.00    -0.299 NA
ATOM      7  N   UNL     1      -9.582 -10.479  17.462  0.00  0.00    -0.325 N 
ATOM     16  C   UNL     1      -8.879 -10.789  15.122  0.00  0.00    +0.103 C 
ATOM     17  C   UNL     1      -7.452  -9.568  16.621  0.00  0.00    +0.103 C 
ATOM     18  C   UNL     1      -9.693 -11.352  16.291  0.00  0.00    +0.120 C 
ATOM     19  C   UNL     1      -8.216 -10.091  17.839  0.00  0.00    +0.120 C 
BRANCH   7  23
ATOM     23  C   UNL     1     -10.548 -10.547  18.472  0.00  0.00    +0.072 A 
ATOM     24  C   UNL     1     -11.591  -9.620  18.520  0.00  0.00    +0.141 A 
ATOM     27  C   UNL     1     -10.464 -11.552  19.434  0.00  0.00    +0.027 A 
ATOM     28  C   UNL     1     -12.548  -9.701  19.531  0.00  0.00    +0.047 A 
ATOM     29  C   UNL     1     -11.422 -11.633  20.445  0.00  0.00    +0.002 A 
ATOM     32  C   UNL     1     -12.464 -10.706  20.494  0.00  0.00    +0.004 A 
BRANCH  24   4
ATOM      4  O   UNL     1     -11.692  -8.630  17.589  0.00  0.00    -0.493 OA
ATOM     34  C   UNL     1     -12.705  -8.775  16.597  0.00  0.00    +0.277 C 
ENDBRANCH  24   4
ENDBRANCH   7  23
ENDBRANCH  14   6
ENDBRANCH  12  14
ENDBRANCH   8  12
BRANCH   9  15
ATOM     15  C   UNL     1      -4.116 -10.943  17.427  0.00  0.00    +0.124 C 
BRANCH  15  21
ATOM      3  O   UNL     1      -5.497 -12.648  18.489  0.00  0.00    -0.251 OA
ATOM     21  C   UNL     1      -4.441 -12.039  18.404  0.00  0.00    +0.305 C 
BRANCH  21   2
ATOM      2  O   UNL     1      -3.371 -12.269  19.208  0.00  0.00    -0.481 OA
ATOM     35  H   UNL     1      -2.758 -11.504  19.228  0.00  0.00    +0.295 HD
ENDBRANCH  21   2
ENDBRANCH  15  21
ENDBRANCH   9  15
TORSDOF 9
ENDMDL
MODEL 3
REMARK VINA RESULT:      -6.3      2.955      8.198
REMARK  Name = 25313249
REMARK  10 active torsions:
REMARK  status: ('A' for Active; 'I' for Inactive)
REMARK    1  A    between atoms: O_2  and  C_21
REMARK    2  A    between atoms: O_4  and  C_24
REMARK    3  A    between atoms: O_4  and  C_34
REMARK    4  A    between atoms: N_6  and  C_14
REMARK    5  A    between atoms: N_7  and  C_23
REMARK    6  A    between atoms: C_8  and  C_12
REMARK    7  A    between atoms: C_9  and  C_15
REMARK    8  A    between atoms: C_12  and  C_14
REMARK    9  A    between atoms: C_15  and  C_21
REMARK   10  A    between atoms: C_20  and  C_22
REMARK                            x       y       z     vdW  Elec       q    Type
REMARK                         _______ _______ _______ _____ _____    ______ ____
ROOT
ATOM      1  O   UNL     1      -8.843 -11.717  17.761  0.00  0.00    -0.270 OA
ATOM      5  N   UNL     1      -6.832 -10.629  17.270  0.00  0.00    -0.297 N 
ATOM      8  C   UNL     1      -5.049 -10.037  15.641  0.00  0.00    +0.011 C 
ATOM      9  C   UNL     1      -4.136 -11.092  16.318  0.00  0.00    +0.006 C 
ATOM     10  C   UNL     1      -6.090  -9.520  16.651  0.00  0.00    +0.112 C 
ATOM     11  C   UNL     1      -4.958 -12.204  16.991  0.00  0.00    +0.023 C 
ATOM     13  C   UNL     1      -6.000 -11.623  17.943  0.00  0.00    +0.108 C 
ATOM     20  C   UNL     1      -8.219 -10.789  17.250  0.00  0.00    +0.247 C 
ENDROOT
BRANCH  20  22
ATOM     22  C   UNL     1      -9.022  -9.770  16.563  0.00  0.00    +0.037 A 
ATOM     25  C   UNL     1      -9.337  -9.923  15.213  0.00  0.00    +0.013 A 
ATOM     26  C   UNL     1      -9.470  -8.650  17.262  0.00  0.00    +0.013 A 
ATOM     30  C   UNL     1     -10.100  -8.954  14.562  0.00  0.00    +0.001 A 
ATOM     31  C   UNL     1     -10.234  -7.681  16.611  0.00  0.00    +0.001 A 
ATOM     33  C   UNL     1     -10.549  -7.834  15.260  0.00  0.00    +0.000 A 
ENDBRANCH  20  22
BRANCH   8  12
ATOM     12  C   UNL     1      -5.744 -10.540  14.370  0.00  0.00    +0.020 C 
BRANCH  12  14
ATOM     14  C   UNL     1      -4.852 -10.351  13.152  0.00  0.00    +0.085 C 
BRANCH  14   6
ATOM      6  N   UNL     1      -5.522  -9.497  12.172  0.00  0.00    -0.299 NA
ATOM      7  N   UNL     1      -6.685  -8.842   9.647  0.00  0.00    -0.325 N 
ATOM     16  C   UNL     1      -6.806 -10.084  11.770  0.00  0.00    +0.103 C 
ATOM     17  C   UNL     1      -4.672  -9.301  10.992  0.00  0.00    +0.103 C 
ATOM     18  C   UNL     1      -7.545  -9.172  10.787  0.00  0.00    +0.120 C 
ATOM     19  C   UNL     1      -5.339  -8.362   9.984  0.00  0.00    +0.120 C 
BRANCH   7  23
ATOM     23  C   UNL     1      -7.260  -8.400   8.450  0.00  0.00    +0.072 A 
ATOM     24  C   UNL     1      -7.211  -9.194   7.304  0.00  0.00    +0.141 A 
ATOM     27  C   UNL     1      -7.887  -7.156   8.409  0.00  0.00    +0.027 A 
ATOM     28  C   UNL     1      -7.790  -8.742   6.118  0.00  0.00    +0.047 A 
ATOM     29  C   UNL     1      -8.465  -6.704   7.224  0.00  0.00    +0.002 A 
ATOM     32  C   UNL     1      -8.416  -7.498   6.077  0.00  0.00    +0.004 A 
BRANCH  24   4
ATOM      4  O   UNL     1      -6.604 -10.415   7.323  0.00  0.00    -0.493 OA
ATOM     34  C   UNL     1      -5.325 -10.511   6.702  0.00  0.00    +0.277 C 
ENDBRANCH  24   4
ENDBRANCH   7  23
ENDBRANCH  14   6
ENDBRANCH  12  14
ENDBRANCH   8  12
BRANCH   9  15
ATOM     15  C   UNL     1      -3.100 -11.688  15.367  0.00  0.00    +0.124 C 
BRANCH  15  21
ATOM      3  O   UNL     1      -1.515 -10.122  14.379  0.00  0.00    -0.251 OA
ATOM     21  C   UNL     1      -1.856 -10.847  15.302  0.00  0.00    +0.305 C 
BRANCH  21   2
ATOM      2  O   UNL     1      -1.137 -11.003  16.444  0.00  0.00    -0.481 OA
ATOM     35  H   UNL     1      -0.898 -11.941  16.599  0.00  0.00    +0.295 HD
ENDBRANCH  21   2
ENDBRANCH  15  21
ENDBRANCH   9  15
TORSDOF 9
ENDMDL
MODEL 4
REMARK VINA RESULT:      -6.3      2.476      7.344
REMARK  Name = 25313249
REMARK  10 active torsions:
REMARK  status: ('A' for Active; 'I' for Inactive)
REMARK    1  A    between atoms: O_2  and  C_21
REMARK    2  A    between atoms: O_4  and  C_24
REMARK    3  A    between atoms: O_4  and  C_34
REMARK    4  A    between atoms: N_6  and  C_14
REMARK    5  A    between atoms: N_7  and  C_23
REMARK    6  A    between atoms: C_8  and  C_12
REMARK    7  A    between atoms: C_9  and  C_15
REMARK    8  A    between atoms: C_12  and  C_14
REMARK    9  A    between atoms: C_15  and  C_21
REMARK   10  A    between atoms: C_20  and  C_22
REMARK                            x       y       z     vdW  Elec       q    Type
REMARK                         _______ _______ _______ _____ _____    ______ ____
ROOT
ATOM      1  O   UNL     1      -1.782 -10.911  16.364  0.00  0.00    -0.270 OA
ATOM      5  N   UNL     1      -3.994 -11.660  16.503  0.00  0.00    -0.297 N 
ATOM      8  C   UNL     1      -6.423 -11.265  16.154  0.00  0.00    +0.011 C 
ATOM      9  C   UNL     1      -6.565 -11.037  17.682  0.00  0.00    +0.006 C 
ATOM     10  C   UNL     1      -5.216 -12.178  15.870  0.00  0.00    +0.112 C 
ATOM     11  C   UNL     1      -5.249 -10.542  18.304  0.00  0.00    +0.023 C 
ATOM     13  C   UNL     1      -4.087 -11.464  17.948  0.00  0.00    +0.108 C 
ATOM     20  C   UNL     1      -2.805 -11.349  15.839  0.00  0.00    +0.247 C 
ENDROOT
BRANCH  20  22
ATOM     22  C   UNL     1      -2.750 -11.558  14.388  0.00  0.00    +0.037 A 
ATOM     25  C   UNL     1      -2.578 -12.843  13.873  0.00  0.00    +0.013 A 
ATOM     26  C   UNL     1      -2.869 -10.470  13.523  0.00  0.00    +0.013 A 
ATOM     30  C   UNL     1      -2.526 -13.040  12.494  0.00  0.00    +0.001 A 
ATOM     31  C   UNL     1      -2.817 -10.667  12.144  0.00  0.00    +0.001 A 
ATOM     33  C   UNL     1      -2.645 -11.953  11.629  0.00  0.00    +0.000 A 
ENDBRANCH  20  22
BRANCH   8  12
ATOM     12  C   UNL     1      -6.316  -9.971  15.340  0.00  0.00    +0.020 C 
BRANCH  12  14
ATOM     14  C   UNL     1      -7.274  -9.992  14.156  0.00  0.00    +0.085 C 
BRANCH  14   6
ATOM      6  N   UNL     1      -6.529 -10.219  12.918  0.00  0.00    -0.299 NA
ATOM      7  N   UNL     1      -6.171 -10.427  10.093  0.00  0.00    -0.325 N 
ATOM     16  C   UNL     1      -6.554  -9.017  12.075  0.00  0.00    +0.103 C 
ATOM     17  C   UNL     1      -7.091 -11.357  12.181  0.00  0.00    +0.103 C 
ATOM     18  C   UNL     1      -5.731  -9.222  10.801  0.00  0.00    +0.120 C 
ATOM     19  C   UNL     1      -6.284 -11.641  10.912  0.00  0.00    +0.120 C 
BRANCH   7  23
ATOM     23  C   UNL     1      -5.881 -10.577   8.732  0.00  0.00    +0.072 A 
ATOM     24  C   UNL     1      -6.623  -9.895   7.768  0.00  0.00    +0.141 A 
ATOM     27  C   UNL     1      -4.838 -11.417   8.343  0.00  0.00    +0.027 A 
ATOM     28  C   UNL     1      -6.322 -10.052   6.415  0.00  0.00    +0.047 A 
ATOM     29  C   UNL     1      -4.536 -11.574   6.990  0.00  0.00    +0.002 A 
ATOM     32  C   UNL     1      -5.278 -10.892   6.026  0.00  0.00    +0.004 A 
BRANCH  24   4
ATOM      4  O   UNL     1      -7.646  -9.069   8.127  0.00  0.00    -0.493 OA
ATOM     34  C   UNL     1      -8.942  -9.653   8.239  0.00  0.00    +0.277 C 
ENDBRANCH  24   4
ENDBRANCH   7  23
ENDBRANCH  14   6
ENDBRANCH  12  14
ENDBRANCH   8  12
BRANCH   9  15
ATOM     15  C   UNL     1      -7.719 -10.104  18.045  0.00  0.00    +0.124 C 
BRANCH  15  21
ATOM      3  O   UNL     1      -9.639 -11.580  18.313  0.00  0.00    -0.251 OA
ATOM     21  C   UNL     1      -8.805 -10.827  18.792  0.00  0.00    +0.305 C 
BRANCH  21   2
ATOM      2  O   UNL     1      -8.733 -10.522  20.114  0.00  0.00    -0.481 OA
ATOM     35  H   UNL     1      -9.123  -9.644  20.308  0.00  0.00    +0.295 HD
ENDBRANCH  21   2
ENDBRANCH  15  21
ENDBRANCH   9  15
TORSDOF 9
ENDMDL
MODEL 5
REMARK VINA RESULT:      -6.3     24.177     27.916
REMARK  Name = 25313249
REMARK  10 active torsions:
REMARK  status: ('A' for Active; 'I' for Inactive)
REMARK    1  A    between atoms: O_2  and  C_21
REMARK    2  A    between atoms: O_4  and  C_24
REMARK    3  A    between atoms: O_4  and  C_34
REMARK    4  A    between atoms: N_6  and  C_14
REMARK    5  A    between atoms: N_7  and  C_23
REMARK    6  A    between atoms: C_8  and  C_12
REMARK    7  A    between atoms: C_9  and  C_15
REMARK    8  A    between atoms: C_12  and  C_14
REMARK    9  A    between atoms: C_15  and  C_21
REMARK   10  A    between atoms: C_20  and  C_22
REMARK                            x       y       z     vdW  Elec       q    Type
REMARK                         _______ _______ _______ _____ _____    ______ ____
ROOT
ATOM      1  O   UNL     1      12.144   1.942  -2.169  0.00  0.00    -0.270 OA
ATOM      5  N   UNL     1      11.623   4.206  -2.439  0.00  0.00    -0.297 N 
ATOM      8  C   UNL     1      10.438   6.248  -1.660  0.00  0.00    +0.011 C 
ATOM      9  C   UNL     1       9.403   6.031  -2.794  0.00  0.00    +0.006 C 
ATOM     10  C   UNL     1      11.786   5.616  -2.053  0.00  0.00    +0.112 C 
ATOM     11  C   UNL     1       9.304   4.550  -3.195  0.00  0.00    +0.023 C 
ATOM     13  C   UNL     1      10.677   3.974  -3.528  0.00  0.00    +0.108 C 
ATOM     20  C   UNL     1      12.281   3.123  -1.853  0.00  0.00    +0.247 C 
ENDROOT
BRANCH  20  22
ATOM     22  C   UNL     1      13.223   3.395  -0.761  0.00  0.00    +0.037 A 
ATOM     25  C   UNL     1      12.864   3.116   0.557  0.00  0.00    +0.013 A 
ATOM     26  C   UNL     1      14.479   3.934  -1.044  0.00  0.00    +0.013 A 
ATOM     30  C   UNL     1      13.761   3.375   1.594  0.00  0.00    +0.001 A 
ATOM     31  C   UNL     1      15.375   4.193  -0.007  0.00  0.00    +0.001 A 
ATOM     33  C   UNL     1      15.016   3.914   1.312  0.00  0.00    +0.000 A 
ENDBRANCH  20  22
BRANCH   8  12
ATOM     12  C   UNL     1       9.982   5.722  -0.293  0.00  0.00    +0.020 C 
BRANCH  12  14
ATOM     14  C   UNL     1      10.422   6.659   0.823  0.00  0.00    +0.085 C 
BRANCH  14   6
ATOM      6  N   UNL     1       9.977   6.137   2.115  0.00  0.00    -0.299 NA
ATOM      7  N   UNL     1       9.959   5.887   4.959  0.00  0.00    -0.325 N 
ATOM     16  C   UNL     1       9.447   7.219   2.953  0.00  0.00    +0.103 C 
ATOM     17  C   UNL     1      11.083   5.465   2.808  0.00  0.00    +0.103 C 
ATOM     18  C   UNL     1       8.925   6.678   4.286  0.00  0.00    +0.120 C 
ATOM     19  C   UNL     1      10.615   4.864   4.135  0.00  0.00    +0.120 C 
BRANCH   7  23
ATOM     23  C   UNL     1       9.873   5.664   6.338  0.00  0.00    +0.072 A 
ATOM     24  C   UNL     1       9.874   6.736   7.232  0.00  0.00    +0.141 A 
ATOM     27  C   UNL     1       9.786   4.358   6.817  0.00  0.00    +0.027 A 
ATOM     28  C   UNL     1       9.786   6.499   8.604  0.00  0.00    +0.047 A 
ATOM     29  C   UNL     1       9.699   4.121   8.189  0.00  0.00    +0.002 A 
ATOM     32  C   UNL     1       9.699   5.193   9.083  0.00  0.00    +0.004 A 
BRANCH  24   4
ATOM      4  O   UNL     1       9.957   8.021   6.785  0.00  0.00    -0.493 OA
ATOM     34  C   UNL     1       9.121   8.984   7.422  0.00  0.00    +0.277 C 
ENDBRANCH  24   4
ENDBRANCH   7  23
ENDBRANCH  14   6
ENDBRANCH  12  14
ENDBRANCH   8  12
BRANCH   9  15
ATOM     15  C   UNL     1       8.021   6.593  -2.462  0.00  0.00    +0.124 C 
BRANCH  15  21
ATOM      3  O   UNL     1       7.490   8.235  -4.184  0.00  0.00    -0.251 OA
ATOM     21  C   UNL     1       7.827   7.968  -3.040  0.00  0.00    +0.305 C 
BRANCH  21   2
ATOM      2  O   UNL     1       8.085   8.905  -2.091  0.00  0.00    -0.481 OA
ATOM     35  H   UNL     1       8.964   9.320  -2.217  0.00  0.00    +0.295 HD
ENDBRANCH  21   2
ENDBRANCH  15  21
ENDBRANCH   9  15
TORSDOF 9
ENDMDL
MODEL 6
REMARK VINA RESULT:      -6.0      2.010      2.795
REMARK  Name = 25313249
REMARK  10 active torsions:
REMARK  status: ('A' for Active; 'I' for Inactive)
REMARK    1  A    between atoms: O_2  and  C_21
REMARK    2  A    between atoms: O_4  and  C_24
REMARK    3  A    between atoms: O_4  and  C_34
REMARK    4  A    between atoms: N_6  and  C_14
REMARK    5  A    between atoms: N_7  and  C_23
REMARK    6  A    between atoms: C_8  and  C_12
REMARK    7  A    between atoms: C_9  and  C_15
REMARK    8  A    between atoms: C_12  and  C_14
REMARK    9  A    between atoms: C_15  and  C_21
REMARK   10  A    between atoms: C_20  and  C_22
REMARK                            x       y       z     vdW  Elec       q    Type
REMARK                         _______ _______ _______ _____ _____    ______ ____
ROOT
ATOM      1  O   UNL     1      -1.806  -9.767  12.341  0.00  0.00    -0.270 OA
ATOM      5  N   UNL     1      -2.719 -11.344  13.807  0.00  0.00    -0.297 N 
ATOM      8  C   UNL     1      -4.469 -11.994  15.450  0.00  0.00    +0.011 C 
ATOM      9  C   UNL     1      -3.435 -11.765  16.583  0.00  0.00    +0.006 C 
ATOM     10  C   UNL     1      -3.741 -12.348  14.139  0.00  0.00    +0.112 C 
ATOM     11  C   UNL     1      -2.360 -10.745  16.170  0.00  0.00    +0.023 C 
ATOM     13  C   UNL     1      -1.711 -11.130  14.844  0.00  0.00    +0.108 C 
ATOM     20  C   UNL     1      -2.656 -10.611  12.621  0.00  0.00    +0.247 C 
ENDROOT
BRANCH  20  22
ATOM     22  C   UNL     1      -3.686 -10.854  11.604  0.00  0.00    +0.037 A 
ATOM     25  C   UNL     1      -3.485 -11.826  10.625  0.00  0.00    +0.013 A 
ATOM     26  C   UNL     1      -4.866 -10.110  11.618  0.00  0.00    +0.013 A 
ATOM     30  C   UNL     1      -4.464 -12.056   9.659  0.00  0.00    +0.001 A 
ATOM     31  C   UNL     1      -5.846 -10.340  10.652  0.00  0.00    +0.001 A 
ATOM     33  C   UNL     1      -5.644 -11.314   9.672  0.00  0.00    +0.000 A 
ENDBRANCH  20  22
BRANCH   8  12
ATOM     12  C   UNL     1      -5.420 -10.812  15.228  0.00  0.00    +0.020 C 
BRANCH  12  14
ATOM     14  C   UNL     1      -6.655 -10.936  16.110  0.00  0.00    +0.085 C 
BRANCH  14   6
ATOM      6  N   UNL     1      -7.587  -9.848  15.816  0.00  0.00    -0.299 NA
ATOM      7  N   UNL     1     -10.126  -8.544  15.725  0.00  0.00    -0.325 N 
ATOM     16  C   UNL     1      -8.218  -9.363  17.049  0.00  0.00    +0.103 C 
ATOM     17  C   UNL     1      -8.617 -10.295  14.870  0.00  0.00    +0.103 C 
ATOM     18  C   UNL     1      -9.155  -8.187  16.763  0.00  0.00    +0.120 C 
ATOM     19  C   UNL     1      -9.565  -9.149  14.510  0.00  0.00    +0.120 C 
BRANCH   7  23
ATOM     23  C   UNL     1     -11.315  -7.816  15.608  0.00  0.00    +0.072 A 
ATOM     24  C   UNL     1     -12.512  -8.324  16.115  0.00  0.00    +0.141 A 
ATOM     27  C   UNL     1     -11.298  -6.572  14.979  0.00  0.00    +0.027 A 
ATOM     28  C   UNL     1     -13.690  -7.587  15.993  0.00  0.00    +0.047 A 
ATOM     29  C   UNL     1     -12.475  -5.834  14.857  0.00  0.00    +0.002 A 
ATOM     32  C   UNL     1     -13.672  -6.342  15.364  0.00  0.00    +0.004 A 
BRANCH  24   4
ATOM      4  O   UNL     1     -12.551  -9.538  16.734  0.00  0.00    -0.493 OA
ATOM     34  C   UNL     1     -12.641  -9.537  18.157  0.00  0.00    +0.277 C 
ENDBRANCH  24   4
ENDBRANCH   7  23
ENDBRANCH  14   6
ENDBRANCH  12  14
ENDBRANCH   8  12
BRANCH   9  15
ATOM     15  C   UNL     1      -4.076 -11.366  17.910  0.00  0.00    +0.124 C 
BRANCH  15  21
ATOM      3  O   UNL     1      -3.335 -12.219  20.069  0.00  0.00    -0.251 OA
ATOM     21  C   UNL     1      -3.844 -12.403  18.974  0.00  0.00    +0.305 C 
BRANCH  21   2
ATOM      2  O   UNL     1      -4.289 -13.611  18.541  0.00  0.00    -0.481 OA
ATOM     35  H   UNL     1      -4.801 -13.535  17.708  0.00  0.00    +0.295 HD
ENDBRANCH  21   2
ENDBRANCH  15  21
ENDBRANCH   9  15
TORSDOF 9
ENDMDL
MODEL 7
REMARK VINA RESULT:      -6.0     24.313     28.644
REMARK  Name = 25313249
REMARK  10 active torsions:
REMARK  status: ('A' for Active; 'I' for Inactive)
REMARK    1  A    between atoms: O_2  and  C_21
REMARK    2  A    between atoms: O_4  and  C_24
REMARK    3  A    between atoms: O_4  and  C_34
REMARK    4  A    between atoms: N_6  and  C_14
REMARK    5  A    between atoms: N_7  and  C_23
REMARK    6  A    between atoms: C_8  and  C_12
REMARK    7  A    between atoms: C_9  and  C_15
REMARK    8  A    between atoms: C_12  and  C_14
REMARK    9  A    between atoms: C_15  and  C_21
REMARK   10  A    between atoms: C_20  and  C_22
REMARK                            x       y       z     vdW  Elec       q    Type
REMARK                         _______ _______ _______ _____ _____    ______ ____
ROOT
ATOM      1  O   UNL     1      10.637  11.524   6.079  0.00  0.00    -0.270 OA
ATOM      5  N   UNL     1      11.220   9.454   7.001  0.00  0.00    -0.297 N 
ATOM      8  C   UNL     1      11.244   6.972   6.869  0.00  0.00    +0.011 C 
ATOM      9  C   UNL     1      10.100   6.944   7.916  0.00  0.00    +0.006 C 
ATOM     10  C   UNL     1      12.075   8.258   7.033  0.00  0.00    +0.112 C 
ATOM     11  C   UNL     1       9.265   8.235   7.876  0.00  0.00    +0.023 C 
ATOM     13  C   UNL     1      10.152   9.471   7.998  0.00  0.00    +0.108 C 
ATOM     20  C   UNL     1      11.353  10.523   6.113  0.00  0.00    +0.247 C 
ENDROOT
BRANCH  20  22
ATOM     22  C   UNL     1      12.437  10.470   5.126  0.00  0.00    +0.037 A 
ATOM     25  C   UNL     1      13.733  10.833   5.492  0.00  0.00    +0.013 A 
ATOM     26  C   UNL     1      12.170  10.056   3.821  0.00  0.00    +0.013 A 
ATOM     30  C   UNL     1      14.763  10.782   4.552  0.00  0.00    +0.001 A 
ATOM     31  C   UNL     1      13.200  10.005   2.882  0.00  0.00    +0.001 A 
ATOM     33  C   UNL     1      14.497  10.368   3.247  0.00  0.00    +0.000 A 
ENDBRANCH  20  22
BRANCH   8  12
ATOM     12  C   UNL     1      10.764   6.829   5.420  0.00  0.00    +0.020 C 
BRANCH  12  14
ATOM     14  C   UNL     1      11.891   6.343   4.519  0.00  0.00    +0.085 C 
BRANCH  14   6
ATOM      6  N   UNL     1      11.376   6.081   3.176  0.00  0.00    -0.299 NA
ATOM      7  N   UNL     1      11.351   4.890   0.580  0.00  0.00    -0.325 N 
ATOM     16  C   UNL     1      11.061   4.656   3.014  0.00  0.00    +0.103 C 
ATOM     17  C   UNL     1      12.353   6.494   2.160  0.00  0.00    +0.103 C 
ATOM     18  C   UNL     1      10.468   4.377   1.631  0.00  0.00    +0.120 C 
ATOM     19  C   UNL     1      11.802   6.277   0.749  0.00  0.00    +0.120 C 
BRANCH   7  23
ATOM     23  C   UNL     1      11.245   4.387  -0.721  0.00  0.00    +0.072 A 
ATOM     24  C   UNL     1      12.233   3.549  -1.242  0.00  0.00    +0.141 A 
ATOM     27  C   UNL     1      10.140   4.728  -1.500  0.00  0.00    +0.027 A 
ATOM     28  C   UNL     1      12.114   3.054  -2.540  0.00  0.00    +0.047 A 
ATOM     29  C   UNL     1      10.021   4.232  -2.798  0.00  0.00    +0.002 A 
ATOM     32  C   UNL     1      11.008   3.395  -3.318  0.00  0.00    +0.004 A 
BRANCH  24   4
ATOM      4  O   UNL     1      13.321   3.203  -0.497  0.00  0.00    -0.493 OA
ATOM     34  C   UNL     1      14.514   3.956  -0.704  0.00  0.00    +0.277 C 
ENDBRANCH  24   4
ENDBRANCH   7  23
ENDBRANCH  14   6
ENDBRANCH  12  14
ENDBRANCH   8  12
BRANCH   9  15
ATOM     15  C   UNL     1       9.201   5.716   7.791  0.00  0.00    +0.124 C 
BRANCH  15  21
ATOM      3  O   UNL     1       9.061   4.485   9.890  0.00  0.00    -0.251 OA
ATOM     21  C   UNL     1       9.567   4.655   8.791  0.00  0.00    +0.305 C 
BRANCH  21   2
ATOM      2  O   UNL     1      10.568   3.883   8.294  0.00  0.00    -0.481 OA
ATOM     35  H   UNL     1      11.445   4.160   8.633  0.00  0.00    +0.295 HD
ENDBRANCH  21   2
ENDBRANCH  15  21
ENDBRANCH   9  15
TORSDOF 9
ENDMDL
MODEL 8
REMARK VINA RESULT:      -6.0     26.691     31.292
REMARK  Name = 25313249
REMARK  10 active torsions:
REMARK  status: ('A' for Active; 'I' for Inactive)
REMARK    1  A    between atoms: O_2  and  C_21
REMARK    2  A    between atoms: O_4  and  C_24
REMARK    3  A    between atoms: O_4  and  C_34
REMARK    4  A    between atoms: N_6  and  C_14
REMARK    5  A    between atoms: N_7  and  C_23
REMARK    6  A    between atoms: C_8  and  C_12
REMARK    7  A    between atoms: C_9  and  C_15
REMARK    8  A    between atoms: C_12  and  C_14
REMARK    9  A    between atoms: C_15  and  C_21
REMARK   10  A    between atoms: C_20  and  C_22
REMARK                            x       y       z     vdW  Elec       q    Type
REMARK                         _______ _______ _______ _____ _____    ______ ____
ROOT
ATOM      1  O   UNL     1      10.375   4.352  -0.152  0.00  0.00    -0.270 OA
ATOM      5  N   UNL     1      12.539   3.936   0.632  0.00  0.00    -0.297 N 
ATOM      8  C   UNL     1      14.775   4.777   1.321  0.00  0.00    +0.011 C 
ATOM      9  C   UNL     1      15.336   4.281  -0.037  0.00  0.00    +0.006 C 
ATOM     10  C   UNL     1      13.538   3.948   1.712  0.00  0.00    +0.112 C 
ATOM     11  C   UNL     1      14.244   4.241  -1.120  0.00  0.00    +0.023 C 
ATOM     13  C   UNL     1      13.030   3.443  -0.653  0.00  0.00    +0.108 C 
ATOM     20  C   UNL     1      11.212   4.355   0.750  0.00  0.00    +0.247 C 
ENDROOT
BRANCH  20  22
ATOM     22  C   UNL     1      10.755   4.844   2.055  0.00  0.00    +0.037 A 
ATOM     25  C   UNL     1      10.861   4.030   3.182  0.00  0.00    +0.013 A 
ATOM     26  C   UNL     1      10.216   6.126   2.168  0.00  0.00    +0.013 A 
ATOM     30  C   UNL     1      10.426   4.496   4.423  0.00  0.00    +0.001 A 
ATOM     31  C   UNL     1       9.782   6.592   3.409  0.00  0.00    +0.001 A 
ATOM     33  C   UNL     1       9.887   5.777   4.536  0.00  0.00    +0.000 A 
ENDBRANCH  20  22
BRANCH   8  12
ATOM     12  C   UNL     1      14.443   6.274   1.346  0.00  0.00    +0.020 C 
BRANCH  12  14
ATOM     14  C   UNL     1      13.903   6.687   2.708  0.00  0.00    +0.085 C 
BRANCH  14   6
ATOM      6  N   UNL     1      14.826   7.625   3.346  0.00  0.00    -0.299 NA
ATOM      7  N   UNL     1      17.242   8.435   4.635  0.00  0.00    -0.325 N 
ATOM     16  C   UNL     1      16.081   7.706   2.589  0.00  0.00    +0.103 C 
ATOM     17  C   UNL     1      15.102   7.217   4.728  0.00  0.00    +0.103 C 
ATOM     18  C   UNL     1      17.036   8.727   3.214  0.00  0.00    +0.120 C 
ATOM     19  C   UNL     1      16.022   8.222   5.424  0.00  0.00    +0.120 C 
BRANCH   7  23
ATOM     23  C   UNL     1      18.369   8.943   5.290  0.00  0.00    +0.072 A 
ATOM     24  C   UNL     1      19.612   8.326   5.148  0.00  0.00    +0.141 A 
ATOM     27  C   UNL     1      18.243  10.078   6.090  0.00  0.00    +0.027 A 
ATOM     28  C   UNL     1      20.727   8.844   5.806  0.00  0.00    +0.047 A 
ATOM     29  C   UNL     1      19.358  10.597   6.748  0.00  0.00    +0.002 A 
ATOM     32  C   UNL     1      20.601   9.979   6.606  0.00  0.00    +0.004 A 
BRANCH  24   4
ATOM      4  O   UNL     1      19.758   7.216   4.370  0.00  0.00    -0.493 OA
ATOM     34  C   UNL     1      21.044   6.602   4.352  0.00  0.00    +0.277 C 
ENDBRANCH  24   4
ENDBRANCH   7  23
ENDBRANCH  14   6
ENDBRANCH  12  14
ENDBRANCH   8  12
BRANCH   9  15
ATOM     15  C   UNL     1      16.543   5.084  -0.518  0.00  0.00    +0.124 C 
BRANCH  15  21
ATOM      3  O   UNL     1      17.394   4.533  -2.735  0.00  0.00    -0.251 OA
ATOM     21  C   UNL     1      17.350   4.321  -1.532  0.00  0.00    +0.305 C 
BRANCH  21   2
ATOM      2  O   UNL     1      18.046   3.332  -0.914  0.00  0.00    -0.481 OA
ATOM     35  H   UNL     1      18.183   3.522   0.038  0.00  0.00    +0.295 HD
ENDBRANCH  21   2
ENDBRANCH  15  21
ENDBRANCH   9  15
TORSDOF 9
ENDMDL
MODEL 9
REMARK VINA RESULT:      -6.0     23.846     28.763
REMARK  Name = 25313249
REMARK  10 active torsions:
REMARK  status: ('A' for Active; 'I' for Inactive)
REMARK    1  A    between atoms: O_2  and  C_21
REMARK    2  A    between atoms: O_4  and  C_24
REMARK    3  A    between atoms: O_4  and  C_34
REMARK    4  A    between atoms: N_6  and  C_14
REMARK    5  A    between atoms: N_7  and  C_23
REMARK    6  A    between atoms: C_8  and  C_12
REMARK    7  A    between atoms: C_9  and  C_15
REMARK    8  A    between atoms: C_12  and  C_14
REMARK    9  A    between atoms: C_15  and  C_21
REMARK   10  A    between atoms: C_20  and  C_22
REMARK                            x       y       z     vdW  Elec       q    Type
REMARK                         _______ _______ _______ _____ _____    ______ ____
ROOT
ATOM      1  O   UNL     1       9.640   8.834   8.105  0.00  0.00    -0.270 OA
ATOM      5  N   UNL     1       8.577   8.097   6.156  0.00  0.00    -0.297 N 
ATOM      8  C   UNL     1       8.698   7.035   3.911  0.00  0.00    +0.011 C 
ATOM      9  C   UNL     1       8.543   8.444   3.280  0.00  0.00    +0.006 C 
ATOM     10  C   UNL     1       8.054   7.014   5.310  0.00  0.00    +0.112 C 
ATOM     11  C   UNL     1       9.059   9.545   4.221  0.00  0.00    +0.023 C 
ATOM     13  C   UNL     1       8.417   9.440   5.602  0.00  0.00    +0.108 C 
ATOM     20  C   UNL     1       9.197   7.932   7.396  0.00  0.00    +0.247 C 
ENDROOT
BRANCH  20  22
ATOM     22  C   UNL     1       9.340   6.568   7.920  0.00  0.00    +0.037 A 
ATOM     25  C   UNL     1       9.974   5.590   7.155  0.00  0.00    +0.013 A 
ATOM     26  C   UNL     1       8.842   6.252   9.184  0.00  0.00    +0.013 A 
ATOM     30  C   UNL     1      10.111   4.295   7.653  0.00  0.00    +0.001 A 
ATOM     31  C   UNL     1       8.979   4.957   9.682  0.00  0.00    +0.001 A 
ATOM     33  C   UNL     1       9.613   3.978   8.917  0.00  0.00    +0.000 A 
ENDBRANCH  20  22
BRANCH   8  12
ATOM     12  C   UNL     1      10.148   6.543   3.984  0.00  0.00    +0.020 C 
BRANCH  12  14
ATOM     14  C   UNL     1      10.239   5.067   3.622  0.00  0.00    +0.085 C 
BRANCH  14   6
ATOM      6  N   UNL     1      11.524   4.791   2.980  0.00  0.00    -0.299 NA
ATOM      7  N   UNL     1      13.416   4.758   0.842  0.00  0.00    -0.325 N 
ATOM     16  C   UNL     1      12.149   6.037   2.522  0.00  0.00    +0.103 C 
ATOM     17  C   UNL     1      11.347   3.875   1.847  0.00  0.00    +0.103 C 
ATOM     18  C   UNL     1      13.521   5.768   1.898  0.00  0.00    +0.120 C 
ATOM     19  C   UNL     1      12.693   3.532   1.203  0.00  0.00    +0.120 C 
BRANCH   7  23
ATOM     23  C   UNL     1      14.416   4.668  -0.133  0.00  0.00    +0.072 A 
ATOM     24  C   UNL     1      14.145   4.998  -1.461  0.00  0.00    +0.141 A 
ATOM     27  C   UNL     1      15.693   4.246   0.233  0.00  0.00    +0.027 A 
ATOM     28  C   UNL     1      15.152   4.905  -2.422  0.00  0.00    +0.047 A 
ATOM     29  C   UNL     1      16.700   4.153  -0.728  0.00  0.00    +0.002 A 
ATOM     32  C   UNL     1      16.429   4.483  -2.056  0.00  0.00    +0.004 A 
BRANCH  24   4
ATOM      4  O   UNL     1      12.903   5.414  -1.840  0.00  0.00    -0.493 OA
ATOM     34  C   UNL     1      12.089   4.473  -2.535  0.00  0.00    +0.277 C 
ENDBRANCH  24   4
ENDBRANCH   7  23
ENDBRANCH  14   6
ENDBRANCH  12  14
ENDBRANCH   8  12
BRANCH   9  15
ATOM     15  C   UNL     1       9.195   8.561   1.904  0.00  0.00    +0.124 C 
BRANCH  15  21
ATOM      3  O   UNL     1       8.452   9.227  -0.319  0.00  0.00    -0.251 OA
ATOM     21  C   UNL     1       8.227   9.066   0.871  0.00  0.00    +0.305 C 
BRANCH  21   2
ATOM      2  O   UNL     1       7.029   9.328   1.455  0.00  0.00    -0.481 OA
ATOM     35  H   UNL     1       7.046   9.148   2.419  0.00  0.00    +0.295 HD
ENDBRANCH  21   2
ENDBRANCH  15  21
ENDBRANCH   9  15
TORSDOF 9
ENDMDL
MODEL 10
REMARK VINA RESULT:      -6.0     20.640     23.119
REMARK  Name = 25313249
REMARK  10 active torsions:
REMARK  status: ('A' for Active; 'I' for Inactive)
REMARK    1  A    between atoms: O_2  and  C_21
REMARK    2  A    between atoms: O_4  and  C_24
REMARK    3  A    between atoms: O_4  and  C_34
REMARK    4  A    between atoms: N_6  and  C_14
REMARK    5  A    between atoms: N_7  and  C_23
REMARK    6  A    between atoms: C_8  and  C_12
REMARK    7  A    between atoms: C_9  and  C_15
REMARK    8  A    between atoms: C_12  and  C_14
REMARK    9  A    between atoms: C_15  and  C_21
REMARK   10  A    between atoms: C_20  and  C_22
REMARK                            x       y       z     vdW  Elec       q    Type
REMARK                         _______ _______ _______ _____ _____    ______ ____
ROOT
ATOM      1  O   UNL     1      -9.668   9.410  17.709  0.00  0.00    -0.270 OA
ATOM      5  N   UNL     1     -11.796   8.638  18.297  0.00  0.00    -0.297 N 
ATOM      8  C   UNL     1     -13.682   8.555  19.915  0.00  0.00    +0.011 C 
ATOM      9  C   UNL     1     -13.220   7.131  20.319  0.00  0.00    +0.006 C 
ATOM     10  C   UNL     1     -13.240   8.859  18.472  0.00  0.00    +0.112 C 
ATOM     11  C   UNL     1     -11.715   6.933  20.074  0.00  0.00    +0.023 C 
ATOM     13  C   UNL     1     -11.336   7.294  18.641  0.00  0.00    +0.108 C 
ATOM     20  C   UNL     1     -10.877   9.589  17.851  0.00  0.00    +0.247 C 
ENDROOT
BRANCH  20  22
ATOM     22  C   UNL     1     -11.376  10.928  17.516  0.00  0.00    +0.037 A 
ATOM     25  C   UNL     1     -11.374  11.935  18.480  0.00  0.00    +0.013 A 
ATOM     26  C   UNL     1     -11.853  11.192  16.232  0.00  0.00    +0.013 A 
ATOM     30  C   UNL     1     -11.849  13.207  18.161  0.00  0.00    +0.001 A 
ATOM     31  C   UNL     1     -12.327  12.464  15.912  0.00  0.00    +0.001 A 
ATOM     33  C   UNL     1     -12.326  13.472  16.877  0.00  0.00    +0.000 A 
ENDBRANCH  20  22
BRANCH   8  12
ATOM     12  C   UNL     1     -13.200   9.658  20.863  0.00  0.00    +0.020 C 
BRANCH  12  14
ATOM     14  C   UNL     1     -14.378  10.420  21.454  0.00  0.00    +0.085 C 
BRANCH  14   6
ATOM      6  N   UNL     1     -14.010  10.971  22.758  0.00  0.00    -0.299 NA
ATOM      7  N   UNL     1     -12.792  10.965  25.341  0.00  0.00    -0.325 N 
ATOM     16  C   UNL     1     -12.550  11.048  22.892  0.00  0.00    +0.103 C 
ATOM     17  C   UNL     1     -14.568  10.151  23.840  0.00  0.00    +0.103 C 
ATOM     18  C   UNL     1     -12.152  11.675  24.230  0.00  0.00    +0.120 C 
ATOM     19  C   UNL     1     -14.238  10.749  25.209  0.00  0.00    +0.120 C 
BRANCH   7  23
ATOM     23  C   UNL     1     -12.258  11.070  26.630  0.00  0.00    +0.072 A 
ATOM     24  C   UNL     1     -12.369  12.260  27.351  0.00  0.00    +0.141 A 
ATOM     27  C   UNL     1     -11.611   9.972  27.195  0.00  0.00    +0.027 A 
ATOM     28  C   UNL     1     -11.834  12.350  28.635  0.00  0.00    +0.047 A 
ATOM     29  C   UNL     1     -11.075  10.061  28.480  0.00  0.00    +0.002 A 
ATOM     32  C   UNL     1     -11.187  11.251  29.200  0.00  0.00    +0.004 A 
BRANCH  24   4
ATOM      4  O   UNL     1     -12.999  13.345  26.817  0.00  0.00    -0.493 OA
ATOM     34  C   UNL     1     -12.260  14.563  26.767  0.00  0.00    +0.277 C 
ENDBRANCH  24   4
ENDBRANCH   7  23
ENDBRANCH  14   6
ENDBRANCH  12  14
ENDBRANCH   8  12
BRANCH   9  15
ATOM     15  C   UNL     1     -13.585   6.768  21.758  0.00  0.00    +0.124 C 
BRANCH  15  21
ATOM      3  O   UNL     1     -14.997   4.794  21.539  0.00  0.00    -0.251 OA
ATOM     21  C   UNL     1     -13.949   5.315  21.889  0.00  0.00    +0.305 C 
BRANCH  21   2
ATOM      2  O   UNL     1     -12.924   4.636  22.466  0.00  0.00    -0.481 OA
ATOM     35  H   UNL     1     -12.992   4.634  23.444  0.00  0.00    +0.295 HD
ENDBRANCH  21   2
ENDBRANCH  15  21
ENDBRANCH   9  15
TORSDOF 9
ENDMDL
