MODEL 1
REMARK VINA RESULT:      -7.7      0.000      0.000
REMARK  Name = 26743766
REMARK  6 active torsions:
REMARK  status: ('A' for Active; 'I' for Inactive)
REMARK    1  A    between atoms: O_2  and  C_9
REMARK    2  A    between atoms: N_4  and  C_11
REMARK    3  A    between atoms: C_7  and  C_12
REMARK    4  A    between atoms: C_11  and  C_13
REMARK    5  A    between atoms: C_14  and  C_17
REMARK    6  A    between atoms: C_25  and  C_26
REMARK                            x       y       z     vdW  Elec       q    Type
REMARK                         _______ _______ _______ _____ _____    ______ ____
ROOT
ATOM      4  N   UNL     1      12.399   8.717  19.968  0.00  0.00    -0.285 NA
ATOM      7  C   UNL     1      13.167   8.273  21.148  0.00  0.00    +0.149 C 
ATOM      8  C   UNL     1      12.223   7.311  21.894  0.00  0.00    +0.061 C 
ATOM      9  C   UNL     1      10.934   7.315  21.081  0.00  0.00    +0.130 C 
ATOM     10  C   UNL     1      10.987   8.636  20.338  0.00  0.00    +0.116 C 
ENDROOT
BRANCH   7  12
ATOM      3  O   UNL     1      14.433   6.629  19.856  0.00  0.00    -0.336 OA
ATOM      5  N   UNL     1      15.691   7.891  21.215  0.00  0.00    -0.190 NA
ATOM      6  N   UNL     1      15.754   6.197  19.678  0.00  0.00    -0.056 NA
ATOM     12  C   UNL     1      14.486   7.628  20.776  0.00  0.00    +0.245 A 
ATOM     14  C   UNL     1      16.435   6.988  20.513  0.00  0.00    +0.202 A 
BRANCH  14  17
ATOM      1  F   UNL     1      20.567   4.571  20.001  0.00  0.00    -0.205 F 
ATOM     17  C   UNL     1      17.859   6.903  20.666  0.00  0.00    +0.025 A 
ATOM     21  C   UNL     1      18.538   5.757  20.253  0.00  0.00    +0.050 A 
ATOM     22  C   UNL     1      18.564   7.968  21.227  0.00  0.00    +0.012 A 
ATOM     23  C   UNL     1      19.923   5.677  20.401  0.00  0.00    +0.127 A 
ATOM     24  C   UNL     1      19.948   7.887  21.375  0.00  0.00    +0.007 A 
ATOM     25  C   UNL     1      20.628   6.741  20.962  0.00  0.00    -0.015 A 
ATOM     26  C   UNL     1      22.109   6.657  21.122  0.00  0.00    +0.047 C 
ENDBRANCH  14  17
ENDBRANCH   7  12
BRANCH   9   2
ATOM      2  O   UNL     1       9.806   7.234  21.930  0.00  0.00    -0.390 OA
ATOM     27  H   UNL     1      10.123   7.315  22.846  0.00  0.00    +0.210 HD
ENDBRANCH   9   2
BRANCH   4  11
ATOM     11  C   UNL     1      12.770  10.049  19.508  0.00  0.00    +0.120 C 
BRANCH  11  13
ATOM     13  C   UNL     1      13.358  10.020  18.123  0.00  0.00    -0.033 A 
ATOM     15  C   UNL     1      13.348   8.836  17.385  0.00  0.00    +0.005 A 
ATOM     16  C   UNL     1      13.914  11.178  17.577  0.00  0.00    +0.005 A 
ATOM     18  C   UNL     1      13.893   8.811  16.101  0.00  0.00    +0.000 A 
ATOM     19  C   UNL     1      14.459  11.151  16.293  0.00  0.00    +0.000 A 
ATOM     20  C   UNL     1      14.449   9.969  15.556  0.00  0.00    +0.000 A 
ENDBRANCH  11  13
ENDBRANCH   4  11
TORSDOF 5
ENDMDL
MODEL 2
REMARK VINA RESULT:      -7.3      4.764      7.588
REMARK  Name = 26743766
REMARK  6 active torsions:
REMARK  status: ('A' for Active; 'I' for Inactive)
REMARK    1  A    between atoms: O_2  and  C_9
REMARK    2  A    between atoms: N_4  and  C_11
REMARK    3  A    between atoms: C_7  and  C_12
REMARK    4  A    between atoms: C_11  and  C_13
REMARK    5  A    between atoms: C_14  and  C_17
REMARK    6  A    between atoms: C_25  and  C_26
REMARK                            x       y       z     vdW  Elec       q    Type
REMARK                         _______ _______ _______ _____ _____    ______ ____
ROOT
ATOM      4  N   UNL     1      12.916   7.920  20.659  0.00  0.00    -0.285 NA
ATOM      7  C   UNL     1      11.653   8.681  20.564  0.00  0.00    +0.149 C 
ATOM      8  C   UNL     1      10.595   7.771  21.215  0.00  0.00    +0.061 C 
ATOM      9  C   UNL     1      11.349   6.504  21.601  0.00  0.00    +0.130 C 
ATOM     10  C   UNL     1      12.547   6.506  20.671  0.00  0.00    +0.116 C 
ENDROOT
BRANCH   7  12
ATOM      3  O   UNL     1      12.190  11.063  20.448  0.00  0.00    -0.336 OA
ATOM      5  N   UNL     1      11.449  10.389  22.452  0.00  0.00    -0.190 NA
ATOM      6  N   UNL     1      12.185  12.201  21.264  0.00  0.00    -0.056 NA
ATOM     12  C   UNL     1      11.742  10.041  21.225  0.00  0.00    +0.245 A 
ATOM     14  C   UNL     1      11.737  11.722  22.429  0.00  0.00    +0.202 A 
BRANCH  14  17
ATOM      1  F   UNL     1      13.223  13.256  26.744  0.00  0.00    -0.205 F 
ATOM     17  C   UNL     1      11.563  12.551  23.588  0.00  0.00    +0.025 A 
ATOM     21  C   UNL     1      12.493  12.502  24.626  0.00  0.00    +0.050 A 
ATOM     22  C   UNL     1      10.464  13.405  23.675  0.00  0.00    +0.012 A 
ATOM     23  C   UNL     1      12.324  13.309  25.751  0.00  0.00    +0.127 A 
ATOM     24  C   UNL     1      10.295  14.211  24.800  0.00  0.00    +0.007 A 
ATOM     25  C   UNL     1      11.225  14.163  25.838  0.00  0.00    -0.015 A 
ATOM     26  C   UNL     1      11.042  15.026  27.041  0.00  0.00    +0.047 C 
ENDBRANCH  14  17
ENDBRANCH   7  12
BRANCH   9   2
ATOM      2  O   UNL     1      10.538   5.361  21.412  0.00  0.00    -0.390 OA
ATOM     27  H   UNL     1      10.561   5.140  20.465  0.00  0.00    +0.210 HD
ENDBRANCH   9   2
BRANCH   4  11
ATOM     11  C   UNL     1      13.857   8.232  19.590  0.00  0.00    +0.120 C 
BRANCH  11  13
ATOM     13  C   UNL     1      15.220   7.654  19.858  0.00  0.00    -0.033 A 
ATOM     15  C   UNL     1      15.736   6.664  19.020  0.00  0.00    +0.005 A 
ATOM     16  C   UNL     1      15.969   8.107  20.945  0.00  0.00    +0.005 A 
ATOM     18  C   UNL     1      17.000   6.129  19.269  0.00  0.00    +0.000 A 
ATOM     19  C   UNL     1      17.232   7.571  21.193  0.00  0.00    +0.000 A 
ATOM     20  C   UNL     1      17.748   6.583  20.356  0.00  0.00    +0.000 A 
ENDBRANCH  11  13
ENDBRANCH   4  11
TORSDOF 5
ENDMDL
MODEL 3
REMARK VINA RESULT:      -6.9      3.023      6.188
REMARK  Name = 26743766
REMARK  6 active torsions:
REMARK  status: ('A' for Active; 'I' for Inactive)
REMARK    1  A    between atoms: O_2  and  C_9
REMARK    2  A    between atoms: N_4  and  C_11
REMARK    3  A    between atoms: C_7  and  C_12
REMARK    4  A    between atoms: C_11  and  C_13
REMARK    5  A    between atoms: C_14  and  C_17
REMARK    6  A    between atoms: C_25  and  C_26
REMARK                            x       y       z     vdW  Elec       q    Type
REMARK                         _______ _______ _______ _____ _____    ______ ____
ROOT
ATOM      4  N   UNL     1      13.476   7.836  20.058  0.00  0.00    -0.285 NA
ATOM      7  C   UNL     1      12.592   7.810  18.875  0.00  0.00    +0.149 C 
ATOM      8  C   UNL     1      11.266   8.424  19.360  0.00  0.00    +0.061 C 
ATOM      9  C   UNL     1      11.486   8.721  20.838  0.00  0.00    +0.130 C 
ATOM     10  C   UNL     1      12.602   7.771  21.229  0.00  0.00    +0.116 C 
ENDROOT
BRANCH   7  12
ATOM      3  O   UNL     1      12.793   8.126  16.460  0.00  0.00    -0.336 OA
ATOM      5  N   UNL     1      14.025   9.550  17.674  0.00  0.00    -0.190 NA
ATOM      6  N   UNL     1      13.459   8.947  15.540  0.00  0.00    -0.056 NA
ATOM     12  C   UNL     1      13.182   8.549  17.691  0.00  0.00    +0.245 A 
ATOM     14  C   UNL     1      14.165   9.759  16.333  0.00  0.00    +0.202 A 
BRANCH  14  17
ATOM      1  F   UNL     1      16.558  11.776  12.675  0.00  0.00    -0.205 F 
ATOM     17  C   UNL     1      15.018  10.791  15.817  0.00  0.00    +0.025 A 
ATOM     21  C   UNL     1      15.384  10.785  14.471  0.00  0.00    +0.050 A 
ATOM     22  C   UNL     1      15.479  11.802  16.661  0.00  0.00    +0.012 A 
ATOM     23  C   UNL     1      16.211  11.790  13.970  0.00  0.00    +0.127 A 
ATOM     24  C   UNL     1      16.306  12.806  16.159  0.00  0.00    +0.007 A 
ATOM     25  C   UNL     1      16.672  12.801  14.814  0.00  0.00    -0.015 A 
ATOM     26  C   UNL     1      17.558  13.876  14.280  0.00  0.00    +0.047 C 
ENDBRANCH  14  17
ENDBRANCH   7  12
BRANCH   9   2
ATOM      2  O   UNL     1      10.306   8.478  21.580  0.00  0.00    -0.390 OA
ATOM     27  H   UNL     1      10.142   9.262  22.132  0.00  0.00    +0.210 HD
ENDBRANCH   9   2
BRANCH   4  11
ATOM     11  C   UNL     1      14.471   6.771  20.057  0.00  0.00    +0.120 C 
BRANCH  11  13
ATOM     13  C   UNL     1      15.829   7.273  20.467  0.00  0.00    -0.033 A 
ATOM     15  C   UNL     1      16.944   6.441  20.354  0.00  0.00    +0.005 A 
ATOM     16  C   UNL     1      15.974   8.570  20.960  0.00  0.00    +0.005 A 
ATOM     18  C   UNL     1      18.203   6.907  20.734  0.00  0.00    +0.000 A 
ATOM     19  C   UNL     1      17.233   9.035  21.341  0.00  0.00    +0.000 A 
ATOM     20  C   UNL     1      18.347   8.204  21.227  0.00  0.00    +0.000 A 
ENDBRANCH  11  13
ENDBRANCH   4  11
TORSDOF 5
ENDMDL
MODEL 4
REMARK VINA RESULT:      -6.9     25.952     28.946
REMARK  Name = 26743766
REMARK  6 active torsions:
REMARK  status: ('A' for Active; 'I' for Inactive)
REMARK    1  A    between atoms: O_2  and  C_9
REMARK    2  A    between atoms: N_4  and  C_11
REMARK    3  A    between atoms: C_7  and  C_12
REMARK    4  A    between atoms: C_11  and  C_13
REMARK    5  A    between atoms: C_14  and  C_17
REMARK    6  A    between atoms: C_25  and  C_26
REMARK                            x       y       z     vdW  Elec       q    Type
REMARK                         _______ _______ _______ _____ _____    ______ ____
ROOT
ATOM      4  N   UNL     1      -3.278 -10.637  14.105  0.00  0.00    -0.285 NA
ATOM      7  C   UNL     1      -3.654 -11.399  15.313  0.00  0.00    +0.149 C 
ATOM      8  C   UNL     1      -2.595 -11.019  16.364  0.00  0.00    +0.061 C 
ATOM      9  C   UNL     1      -1.642 -10.075  15.640  0.00  0.00    +0.130 C 
ATOM     10  C   UNL     1      -1.833 -10.431  14.178  0.00  0.00    +0.116 C 
ENDROOT
BRANCH   7  12
ATOM      3  O   UNL     1      -5.618 -11.989  16.644  0.00  0.00    -0.336 OA
ATOM      5  N   UNL     1      -5.854 -10.108  15.449  0.00  0.00    -0.190 NA
ATOM      6  N   UNL     1      -6.906 -11.512  16.918  0.00  0.00    -0.056 NA
ATOM     12  C   UNL     1      -5.067 -11.104  15.772  0.00  0.00    +0.245 A 
ATOM     14  C   UNL     1      -6.970 -10.402  16.177  0.00  0.00    +0.202 A 
BRANCH  14  17
ATOM      1  F   UNL     1     -10.730  -8.547  13.811  0.00  0.00    -0.205 F 
ATOM     17  C   UNL     1      -8.134  -9.563  16.143  0.00  0.00    +0.025 A 
ATOM     21  C   UNL     1      -8.883  -9.457  14.972  0.00  0.00    +0.050 A 
ATOM     22  C   UNL     1      -8.515  -8.854  17.283  0.00  0.00    +0.012 A 
ATOM     23  C   UNL     1     -10.015  -8.642  14.941  0.00  0.00    +0.127 A 
ATOM     24  C   UNL     1      -9.647  -8.040  17.251  0.00  0.00    +0.007 A 
ATOM     25  C   UNL     1     -10.397  -7.934  16.080  0.00  0.00    -0.015 A 
ATOM     26  C   UNL     1     -11.607  -7.062  16.049  0.00  0.00    +0.047 C 
ENDBRANCH  14  17
ENDBRANCH   7  12
BRANCH   9   2
ATOM      2  O   UNL     1      -0.309 -10.288  16.063  0.00  0.00    -0.390 OA
ATOM     27  H   UNL     1       0.197 -10.593  15.290  0.00  0.00    +0.210 HD
ENDBRANCH   9   2
BRANCH   4  11
ATOM     11  C   UNL     1      -3.677 -11.290  12.865  0.00  0.00    +0.120 C 
BRANCH  11  13
ATOM     13  C   UNL     1      -4.057 -10.294  11.803  0.00  0.00    -0.033 A 
ATOM     15  C   UNL     1      -5.277  -9.622  11.881  0.00  0.00    +0.005 A 
ATOM     16  C   UNL     1      -3.189 -10.042  10.740  0.00  0.00    +0.005 A 
ATOM     18  C   UNL     1      -5.628  -8.698  10.896  0.00  0.00    +0.000 A 
ATOM     19  C   UNL     1      -3.541  -9.119   9.756  0.00  0.00    +0.000 A 
ATOM     20  C   UNL     1      -4.759  -8.447   9.834  0.00  0.00    +0.000 A 
ENDBRANCH  11  13
ENDBRANCH   4  11
TORSDOF 5
ENDMDL
MODEL 5
REMARK VINA RESULT:      -6.9      2.402      3.040
REMARK  Name = 26743766
REMARK  6 active torsions:
REMARK  status: ('A' for Active; 'I' for Inactive)
REMARK    1  A    between atoms: O_2  and  C_9
REMARK    2  A    between atoms: N_4  and  C_11
REMARK    3  A    between atoms: C_7  and  C_12
REMARK    4  A    between atoms: C_11  and  C_13
REMARK    5  A    between atoms: C_14  and  C_17
REMARK    6  A    between atoms: C_25  and  C_26
REMARK                            x       y       z     vdW  Elec       q    Type
REMARK                         _______ _______ _______ _____ _____    ______ ____
ROOT
ATOM      4  N   UNL     1      12.266   9.487  21.624  0.00  0.00    -0.285 NA
ATOM      7  C   UNL     1      13.025   8.294  22.049  0.00  0.00    +0.149 C 
ATOM      8  C   UNL     1      12.103   7.104  21.725  0.00  0.00    +0.061 C 
ATOM      9  C   UNL     1      10.832   7.731  21.164  0.00  0.00    +0.130 C 
ATOM     10  C   UNL     1      10.850   9.138  21.732  0.00  0.00    +0.116 C 
ENDROOT
BRANCH   7  12
ATOM      3  O   UNL     1      14.467   8.719  20.122  0.00  0.00    -0.336 OA
ATOM      5  N   UNL     1      15.487   7.659  21.812  0.00  0.00    -0.190 NA
ATOM      6  N   UNL     1      15.789   8.507  19.708  0.00  0.00    -0.056 NA
ATOM     12  C   UNL     1      14.375   8.191  21.371  0.00  0.00    +0.245 A 
ATOM     14  C   UNL     1      16.325   7.877  20.757  0.00  0.00    +0.202 A 
BRANCH  14  17
ATOM      1  F   UNL     1      19.711   4.576  19.856  0.00  0.00    -0.205 F 
ATOM     17  C   UNL     1      17.696   7.455  20.785  0.00  0.00    +0.025 A 
ATOM     21  C   UNL     1      18.048   6.196  20.299  0.00  0.00    +0.050 A 
ATOM     22  C   UNL     1      18.677   8.305  21.297  0.00  0.00    +0.012 A 
ATOM     23  C   UNL     1      19.382   5.787  20.325  0.00  0.00    +0.127 A 
ATOM     24  C   UNL     1      20.010   7.896  21.323  0.00  0.00    +0.007 A 
ATOM     25  C   UNL     1      20.363   6.637  20.837  0.00  0.00    -0.015 A 
ATOM     26  C   UNL     1      21.789   6.202  20.866  0.00  0.00    +0.047 C 
ENDBRANCH  14  17
ENDBRANCH   7  12
BRANCH   9   2
ATOM      2  O   UNL     1       9.690   7.010  21.583  0.00  0.00    -0.390 OA
ATOM     27  H   UNL     1       8.943   7.301  21.033  0.00  0.00    +0.210 HD
ENDBRANCH   9   2
BRANCH   4  11
ATOM     11  C   UNL     1      12.595  10.682  22.390  0.00  0.00    +0.120 C 
BRANCH  11  13
ATOM     13  C   UNL     1      12.166  11.939  21.681  0.00  0.00    -0.033 A 
ATOM     15  C   UNL     1      11.106  12.695  22.181  0.00  0.00    +0.005 A 
ATOM     16  C   UNL     1      12.829  12.347  20.523  0.00  0.00    +0.005 A 
ATOM     18  C   UNL     1      10.709  13.860  21.523  0.00  0.00    +0.000 A 
ATOM     19  C   UNL     1      12.432  13.512  19.866  0.00  0.00    +0.000 A 
ATOM     20  C   UNL     1      11.373  14.268  20.366  0.00  0.00    +0.000 A 
ENDBRANCH  11  13
ENDBRANCH   4  11
TORSDOF 5
ENDMDL
MODEL 6
REMARK VINA RESULT:      -6.8     25.787     29.002
REMARK  Name = 26743766
REMARK  6 active torsions:
REMARK  status: ('A' for Active; 'I' for Inactive)
REMARK    1  A    between atoms: O_2  and  C_9
REMARK    2  A    between atoms: N_4  and  C_11
REMARK    3  A    between atoms: C_7  and  C_12
REMARK    4  A    between atoms: C_11  and  C_13
REMARK    5  A    between atoms: C_14  and  C_17
REMARK    6  A    between atoms: C_25  and  C_26
REMARK                            x       y       z     vdW  Elec       q    Type
REMARK                         _______ _______ _______ _____ _____    ______ ____
ROOT
ATOM      4  N   UNL     1      -3.139 -10.573  14.243  0.00  0.00    -0.285 NA
ATOM      7  C   UNL     1      -3.390 -11.286  15.512  0.00  0.00    +0.149 C 
ATOM      8  C   UNL     1      -2.211 -10.896  16.423  0.00  0.00    +0.061 C 
ATOM      9  C   UNL     1      -1.329  -9.998  15.563  0.00  0.00    +0.130 C 
ATOM     10  C   UNL     1      -1.691 -10.398  14.146  0.00  0.00    +0.116 C 
ENDROOT
BRANCH   7  12
ATOM      3  O   UNL     1      -5.284  -9.758  15.741  0.00  0.00    -0.336 OA
ATOM      5  N   UNL     1      -5.465 -11.629  16.960  0.00  0.00    -0.190 NA
ATOM      6  N   UNL     1      -6.506  -9.665  16.418  0.00  0.00    -0.056 NA
ATOM     12  C   UNL     1      -4.736 -10.944  16.116  0.00  0.00    +0.245 A 
ATOM     14  C   UNL     1      -6.540 -10.804  17.116  0.00  0.00    +0.202 A 
BRANCH  14  17
ATOM      1  F   UNL     1      -8.469 -13.604  20.525  0.00  0.00    -0.205 F 
ATOM     17  C   UNL     1      -7.637 -11.150  17.975  0.00  0.00    +0.025 A 
ATOM     21  C   UNL     1      -7.522 -12.230  18.850  0.00  0.00    +0.050 A 
ATOM     22  C   UNL     1      -8.815 -10.405  17.937  0.00  0.00    +0.012 A 
ATOM     23  C   UNL     1      -8.588 -12.564  19.687  0.00  0.00    +0.127 A 
ATOM     24  C   UNL     1      -9.880 -10.739  18.773  0.00  0.00    +0.007 A 
ATOM     25  C   UNL     1      -9.766 -11.819  19.648  0.00  0.00    -0.015 A 
ATOM     26  C   UNL     1     -10.906 -12.175  20.541  0.00  0.00    +0.047 C 
ENDBRANCH  14  17
ENDBRANCH   7  12
BRANCH   9   2
ATOM      2  O   UNL     1       0.039 -10.227  15.840  0.00  0.00    -0.390 OA
ATOM     27  H   UNL     1       0.373 -10.848  15.171  0.00  0.00    +0.210 HD
ENDBRANCH   9   2
BRANCH   4  11
ATOM     11  C   UNL     1      -3.688 -11.258  13.079  0.00  0.00    +0.120 C 
BRANCH  11  13
ATOM     13  C   UNL     1      -4.038 -10.296  11.976  0.00  0.00    -0.033 A 
ATOM     15  C   UNL     1      -3.157 -10.104  10.911  0.00  0.00    +0.005 A 
ATOM     16  C   UNL     1      -5.243  -9.594  12.019  0.00  0.00    +0.005 A 
ATOM     18  C   UNL     1      -3.483  -9.213   9.888  0.00  0.00    +0.000 A 
ATOM     19  C   UNL     1      -5.567  -8.702  10.997  0.00  0.00    +0.000 A 
ATOM     20  C   UNL     1      -4.688  -8.512   9.932  0.00  0.00    +0.000 A 
ENDBRANCH  11  13
ENDBRANCH   4  11
TORSDOF 5
ENDMDL
MODEL 7
REMARK VINA RESULT:      -6.7      1.958      3.292
REMARK  Name = 26743766
REMARK  6 active torsions:
REMARK  status: ('A' for Active; 'I' for Inactive)
REMARK    1  A    between atoms: O_2  and  C_9
REMARK    2  A    between atoms: N_4  and  C_11
REMARK    3  A    between atoms: C_7  and  C_12
REMARK    4  A    between atoms: C_11  and  C_13
REMARK    5  A    between atoms: C_14  and  C_17
REMARK    6  A    between atoms: C_25  and  C_26
REMARK                            x       y       z     vdW  Elec       q    Type
REMARK                         _______ _______ _______ _____ _____    ______ ____
ROOT
ATOM      4  N   UNL     1      13.892   9.162  18.877  0.00  0.00    -0.285 NA
ATOM      7  C   UNL     1      13.842   7.785  19.408  0.00  0.00    +0.149 C 
ATOM      8  C   UNL     1      12.873   7.038  18.474  0.00  0.00    +0.061 C 
ATOM      9  C   UNL     1      12.396   8.089  17.478  0.00  0.00    +0.130 C 
ATOM     10  C   UNL     1      12.612   9.398  18.213  0.00  0.00    +0.116 C 
ENDROOT
BRANCH   7  12
ATOM      3  O   UNL     1      15.515   6.265  18.479  0.00  0.00    -0.336 OA
ATOM      5  N   UNL     1      16.157   7.290  20.365  0.00  0.00    -0.190 NA
ATOM      6  N   UNL     1      16.808   5.802  18.752  0.00  0.00    -0.056 NA
ATOM     12  C   UNL     1      15.209   7.137  19.476  0.00  0.00    +0.245 A 
ATOM     14  C   UNL     1      17.118   6.450  19.879  0.00  0.00    +0.202 A 
BRANCH  14  17
ATOM      1  F   UNL     1      21.351   4.203  20.331  0.00  0.00    -0.205 F 
ATOM     17  C   UNL     1      18.380   6.286  20.543  0.00  0.00    +0.025 A 
ATOM     21  C   UNL     1      19.272   5.306  20.109  0.00  0.00    +0.050 A 
ATOM     22  C   UNL     1      18.713   7.107  21.620  0.00  0.00    +0.012 A 
ATOM     23  C   UNL     1      20.499   5.147  20.754  0.00  0.00    +0.127 A 
ATOM     24  C   UNL     1      19.940   6.948  22.264  0.00  0.00    +0.007 A 
ATOM     25  C   UNL     1      20.833   5.968  21.831  0.00  0.00    -0.015 A 
ATOM     26  C   UNL     1      22.144   5.800  22.522  0.00  0.00    +0.047 C 
ENDBRANCH  14  17
ENDBRANCH   7  12
BRANCH   9   2
ATOM      2  O   UNL     1      11.035   7.888  17.150  0.00  0.00    -0.390 OA
ATOM     27  H   UNL     1      10.608   8.761  17.130  0.00  0.00    +0.210 HD
ENDBRANCH   9   2
BRANCH   4  11
ATOM     11  C   UNL     1      14.172  10.164  19.899  0.00  0.00    +0.120 C 
BRANCH  11  13
ATOM     13  C   UNL     1      13.022  10.325  20.856  0.00  0.00    -0.033 A 
ATOM     15  C   UNL     1      12.620   9.251  21.651  0.00  0.00    +0.005 A 
ATOM     16  C   UNL     1      12.356  11.548  20.947  0.00  0.00    +0.005 A 
ATOM     18  C   UNL     1      11.553   9.402  22.538  0.00  0.00    +0.000 A 
ATOM     19  C   UNL     1      11.290  11.697  21.833  0.00  0.00    +0.000 A 
ATOM     20  C   UNL     1      10.889  10.625  22.629  0.00  0.00    +0.000 A 
ENDBRANCH  11  13
ENDBRANCH   4  11
TORSDOF 5
ENDMDL
MODEL 8
REMARK VINA RESULT:      -6.7     26.712     29.553
REMARK  Name = 26743766
REMARK  6 active torsions:
REMARK  status: ('A' for Active; 'I' for Inactive)
REMARK    1  A    between atoms: O_2  and  C_9
REMARK    2  A    between atoms: N_4  and  C_11
REMARK    3  A    between atoms: C_7  and  C_12
REMARK    4  A    between atoms: C_11  and  C_13
REMARK    5  A    between atoms: C_14  and  C_17
REMARK    6  A    between atoms: C_25  and  C_26
REMARK                            x       y       z     vdW  Elec       q    Type
REMARK                         _______ _______ _______ _____ _____    ______ ____
ROOT
ATOM      4  N   UNL     1      -4.169 -10.749  14.689  0.00  0.00    -0.285 NA
ATOM      7  C   UNL     1      -4.656 -11.352  15.947  0.00  0.00    +0.149 C 
ATOM      8  C   UNL     1      -3.484 -11.202  16.935  0.00  0.00    +0.061 C 
ATOM      9  C   UNL     1      -2.370 -10.545  16.128  0.00  0.00    +0.130 C 
ATOM     10  C   UNL     1      -2.715 -10.898  14.694  0.00  0.00    +0.116 C 
ENDROOT
BRANCH   7  12
ATOM      3  O   UNL     1      -6.196  -9.454  15.988  0.00  0.00    -0.336 OA
ATOM      5  N   UNL     1      -6.833 -11.178  17.270  0.00  0.00    -0.190 NA
ATOM      6  N   UNL     1      -7.407  -9.073  16.580  0.00  0.00    -0.056 NA
ATOM     12  C   UNL     1      -5.931 -10.706  16.447  0.00  0.00    +0.245 A 
ATOM     14  C   UNL     1      -7.718 -10.141  17.321  0.00  0.00    +0.202 A 
BRANCH  14  17
ATOM      1  F   UNL     1     -12.303  -8.907  18.117  0.00  0.00    -0.205 F 
ATOM     17  C   UNL     1      -8.907 -10.204  18.122  0.00  0.00    +0.025 A 
ATOM     21  C   UNL     1     -10.052  -9.512  17.726  0.00  0.00    +0.050 A 
ATOM     22  C   UNL     1      -8.919 -10.961  19.294  0.00  0.00    +0.012 A 
ATOM     23  C   UNL     1     -11.208  -9.576  18.504  0.00  0.00    +0.127 A 
ATOM     24  C   UNL     1     -10.075 -11.024  20.071  0.00  0.00    +0.007 A 
ATOM     25  C   UNL     1     -11.220 -10.332  19.677  0.00  0.00    -0.015 A 
ATOM     26  C   UNL     1     -12.455 -10.401  20.510  0.00  0.00    +0.047 C 
ENDBRANCH  14  17
ENDBRANCH   7  12
BRANCH   9   2
ATOM      2  O   UNL     1      -1.108 -11.059  16.507  0.00  0.00    -0.390 OA
ATOM     27  H   UNL     1      -1.260 -11.911  16.950  0.00  0.00    +0.210 HD
ENDBRANCH   9   2
BRANCH   4  11
ATOM     11  C   UNL     1      -4.776 -11.332  13.499  0.00  0.00    +0.120 C 
BRANCH  11  13
ATOM     13  C   UNL     1      -4.631 -10.434  12.299  0.00  0.00    -0.033 A 
ATOM     15  C   UNL     1      -3.586 -10.637  11.398  0.00  0.00    +0.005 A 
ATOM     16  C   UNL     1      -5.542  -9.398  12.089  0.00  0.00    +0.005 A 
ATOM     18  C   UNL     1      -3.452  -9.805  10.286  0.00  0.00    +0.000 A 
ATOM     19  C   UNL     1      -5.408  -8.567  10.977  0.00  0.00    +0.000 A 
ATOM     20  C   UNL     1      -4.364  -8.770  10.076  0.00  0.00    +0.000 A 
ENDBRANCH  11  13
ENDBRANCH   4  11
TORSDOF 5
ENDMDL
MODEL 9
REMARK VINA RESULT:      -6.5     27.000     28.723
REMARK  Name = 26743766
REMARK  6 active torsions:
REMARK  status: ('A' for Active; 'I' for Inactive)
REMARK    1  A    between atoms: O_2  and  C_9
REMARK    2  A    between atoms: N_4  and  C_11
REMARK    3  A    between atoms: C_7  and  C_12
REMARK    4  A    between atoms: C_11  and  C_13
REMARK    5  A    between atoms: C_14  and  C_17
REMARK    6  A    between atoms: C_25  and  C_26
REMARK                            x       y       z     vdW  Elec       q    Type
REMARK                         _______ _______ _______ _____ _____    ______ ____
ROOT
ATOM      4  N   UNL     1      -4.125 -11.472  10.514  0.00  0.00    -0.285 NA
ATOM      7  C   UNL     1      -3.075 -10.602  11.082  0.00  0.00    +0.149 C 
ATOM      8  C   UNL     1      -3.361  -9.206  10.498  0.00  0.00    +0.061 C 
ATOM      9  C   UNL     1      -4.561  -9.402   9.579  0.00  0.00    +0.130 C 
ATOM     10  C   UNL     1      -4.508 -10.878   9.235  0.00  0.00    +0.116 C 
ENDROOT
BRANCH   7  12
ATOM      3  O   UNL     1      -1.845 -10.644  13.193  0.00  0.00    -0.336 OA
ATOM      5  N   UNL     1      -4.072 -10.599  13.433  0.00  0.00    -0.190 NA
ATOM      6  N   UNL     1      -2.089 -10.648  14.573  0.00  0.00    -0.056 NA
ATOM     12  C   UNL     1      -3.065 -10.613  12.596  0.00  0.00    +0.245 A 
ATOM     14  C   UNL     1      -3.423 -10.622  14.633  0.00  0.00    +0.202 A 
BRANCH  14  17
ATOM      1  F   UNL     1      -3.739 -11.789  19.293  0.00  0.00    -0.205 F 
ATOM     17  C   UNL     1      -4.139 -10.614  15.877  0.00  0.00    +0.025 A 
ATOM     21  C   UNL     1      -3.584 -11.217  17.005  0.00  0.00    +0.050 A 
ATOM     22  C   UNL     1      -5.391 -10.002  15.957  0.00  0.00    +0.012 A 
ATOM     23  C   UNL     1      -4.280 -11.207  18.214  0.00  0.00    +0.127 A 
ATOM     24  C   UNL     1      -6.086  -9.992  17.165  0.00  0.00    +0.007 A 
ATOM     25  C   UNL     1      -5.531 -10.595  18.294  0.00  0.00    -0.015 A 
ATOM     26  C   UNL     1      -6.277 -10.584  19.586  0.00  0.00    +0.047 C 
ENDBRANCH  14  17
ENDBRANCH   7  12
BRANCH   9   2
ATOM      2  O   UNL     1      -4.449  -8.589   8.428  0.00  0.00    -0.390 OA
ATOM     27  H   UNL     1      -5.221  -8.772   7.865  0.00  0.00    +0.210 HD
ENDBRANCH   9   2
BRANCH   4  11
ATOM     11  C   UNL     1      -3.707 -12.861  10.370  0.00  0.00    +0.120 C 
BRANCH  11  13
ATOM     13  C   UNL     1      -3.769 -13.603  11.678  0.00  0.00    -0.033 A 
ATOM     15  C   UNL     1      -2.601 -14.105  12.252  0.00  0.00    +0.005 A 
ATOM     16  C   UNL     1      -4.996 -13.790  12.317  0.00  0.00    +0.005 A 
ATOM     18  C   UNL     1      -2.660 -14.793  13.465  0.00  0.00    +0.000 A 
ATOM     19  C   UNL     1      -5.054 -14.478  13.528  0.00  0.00    +0.000 A 
ATOM     20  C   UNL     1      -3.886 -14.979  14.102  0.00  0.00    +0.000 A 
ENDBRANCH  11  13
ENDBRANCH   4  11
TORSDOF 5
ENDMDL
MODEL 10
REMARK VINA RESULT:      -6.5     27.360     28.843
REMARK  Name = 26743766
REMARK  6 active torsions:
REMARK  status: ('A' for Active; 'I' for Inactive)
REMARK    1  A    between atoms: O_2  and  C_9
REMARK    2  A    between atoms: N_4  and  C_11
REMARK    3  A    between atoms: C_7  and  C_12
REMARK    4  A    between atoms: C_11  and  C_13
REMARK    5  A    between atoms: C_14  and  C_17
REMARK    6  A    between atoms: C_25  and  C_26
REMARK                            x       y       z     vdW  Elec       q    Type
REMARK                         _______ _______ _______ _____ _____    ______ ____
ROOT
ATOM      4  N   UNL     1      -4.718  -9.766   9.789  0.00  0.00    -0.285 NA
ATOM      7  C   UNL     1      -5.515  -8.705  10.437  0.00  0.00    +0.149 C 
ATOM      8  C   UNL     1      -6.637  -8.385   9.432  0.00  0.00    +0.061 C 
ATOM      9  C   UNL     1      -6.359  -9.283   8.232  0.00  0.00    +0.130 C 
ATOM     10  C   UNL     1      -4.876  -9.581   8.348  0.00  0.00    +0.116 C 
ENDROOT
BRANCH   7  12
ATOM      3  O   UNL     1      -7.393  -9.268  11.897  0.00  0.00    -0.336 OA
ATOM      5  N   UNL     1      -5.392  -9.365  12.901  0.00  0.00    -0.190 NA
ATOM      6  N   UNL     1      -7.639  -9.651  13.222  0.00  0.00    -0.056 NA
ATOM     12  C   UNL     1      -6.045  -9.121  11.793  0.00  0.00    +0.245 A 
ATOM     14  C   UNL     1      -6.412  -9.685  13.749  0.00  0.00    +0.202 A 
BRANCH  14  17
ATOM      1  F   UNL     1      -3.407 -11.045  17.256  0.00  0.00    -0.205 F 
ATOM     17  C   UNL     1      -6.170 -10.038  15.119  0.00  0.00    +0.025 A 
ATOM     21  C   UNL     1      -4.882 -10.378  15.534  0.00  0.00    +0.050 A 
ATOM     22  C   UNL     1      -7.222 -10.041  16.035  0.00  0.00    +0.012 A 
ATOM     23  C   UNL     1      -4.647 -10.720  16.866  0.00  0.00    +0.127 A 
ATOM     24  C   UNL     1      -6.986 -10.382  17.366  0.00  0.00    +0.007 A 
ATOM     25  C   UNL     1      -5.699 -10.722  17.782  0.00  0.00    -0.015 A 
ATOM     26  C   UNL     1      -5.450 -11.088  19.207  0.00  0.00    +0.047 C 
ENDBRANCH  14  17
ENDBRANCH   7  12
BRANCH   9   2
ATOM      2  O   UNL     1      -6.668  -8.616   7.024  0.00  0.00    -0.390 OA
ATOM     27  H   UNL     1      -5.920  -8.750   6.417  0.00  0.00    +0.210 HD
ENDBRANCH   9   2
BRANCH   4  11
ATOM     11  C   UNL     1      -3.317  -9.761  10.192  0.00  0.00    +0.120 C 
BRANCH  11  13
ATOM     13  C   UNL     1      -2.980 -10.942  11.062  0.00  0.00    -0.033 A 
ATOM     15  C   UNL     1      -2.118 -10.785  12.148  0.00  0.00    +0.005 A 
ATOM     16  C   UNL     1      -3.529 -12.194  10.782  0.00  0.00    +0.005 A 
ATOM     18  C   UNL     1      -1.806 -11.881  12.954  0.00  0.00    +0.000 A 
ATOM     19  C   UNL     1      -3.216 -13.288  11.588  0.00  0.00    +0.000 A 
ATOM     20  C   UNL     1      -2.356 -13.132  12.674  0.00  0.00    +0.000 A 
ENDBRANCH  11  13
ENDBRANCH   4  11
TORSDOF 5
ENDMDL
