MODEL 1
REMARK VINA RESULT:      -6.4      0.000      0.000
REMARK  Name = 75536873
REMARK  5 active torsions:
REMARK  status: ('A' for Active; 'I' for Inactive)
REMARK    1  A    between atoms: O_5  and  C_9
REMARK    2  A    between atoms: O_5  and  C_15
REMARK    3  A    between atoms: C_14  and  C_16
REMARK    4  A    between atoms: C_21  and  C_27
REMARK    5  A    between atoms: C_26  and  C_28
REMARK                            x       y       z     vdW  Elec       q    Type
REMARK                         _______ _______ _______ _____ _____    ______ ____
ROOT
ATOM      4  O   UNL     1      14.510  13.680  25.590  0.00  0.00    -0.375 OA
ATOM      6  O   UNL     1      10.254  11.339  24.351  0.00  0.00    -0.270 OA
ATOM      7  N   UNL     1      12.262  12.474  23.934  0.00  0.00    -0.292 N 
ATOM      9  C   UNL     1      14.679  12.015  23.723  0.00  0.00    +0.216 C 
ATOM     10  C   UNL     1      13.455  12.680  23.098  0.00  0.00    +0.155 C 
ATOM     11  C   UNL     1      12.176  13.277  25.156  0.00  0.00    +0.136 C 
ATOM     12  C   UNL     1      15.366  12.865  24.797  0.00  0.00    +0.206 C 
ATOM     13  C   UNL     1      13.351  13.031  26.098  0.00  0.00    +0.179 C 
ATOM     14  C   UNL     1      11.244  11.552  23.654  0.00  0.00    +0.247 C 
ENDROOT
BRANCH  14  16
ATOM     16  C   UNL     1      11.350  10.755  22.426  0.00  0.00    +0.037 A 
ATOM     19  C   UNL     1      11.921  11.310  21.281  0.00  0.00    +0.014 A 
ATOM     20  C   UNL     1      10.879   9.442  22.405  0.00  0.00    +0.014 A 
ATOM     24  C   UNL     1      12.022  10.552  20.114  0.00  0.00    +0.019 A 
ATOM     25  C   UNL     1      10.981   8.684  21.238  0.00  0.00    +0.019 A 
ATOM     26  C   UNL     1      11.552   9.239  20.093  0.00  0.00    +0.052 A 
BRANCH  26  28
ATOM      8  N   UNL     1      11.742   7.832  17.928  0.00  0.00    -0.191 NA
ATOM     28  C   UNL     1      11.657   8.462  18.898  0.00  0.00    +0.099 C 
ENDBRANCH  26  28
ENDBRANCH  14  16
BRANCH   9   5
ATOM      5  O   UNL     1      15.622  11.723  22.694  0.00  0.00    -0.485 OA
BRANCH   5  15
ATOM     15  C   UNL     1      15.432  10.558  22.003  0.00  0.00    +0.121 A 
ATOM     17  C   UNL     1      15.790  10.480  20.656  0.00  0.00    +0.046 A 
ATOM     18  C   UNL     1      14.879   9.448  22.643  0.00  0.00    +0.046 A 
ATOM     21  C   UNL     1      15.043   8.183  20.591  0.00  0.00    +0.055 A 
ATOM     22  C   UNL     1      15.596   9.292  19.951  0.00  0.00    +0.016 A 
ATOM     23  C   UNL     1      14.686   8.262  21.938  0.00  0.00    +0.016 A 
BRANCH  21  27
ATOM      1  F   UNL     1      15.817   5.987  20.042  0.00  0.00    -0.166 F 
ATOM      2  F   UNL     1      14.783   7.085  18.483  0.00  0.00    -0.166 F 
ATOM      3  F   UNL     1      13.668   6.290  20.172  0.00  0.00    -0.166 F 
ATOM     27  C   UNL     1      14.835   6.914  19.838  0.00  0.00    +0.417 C 
ENDBRANCH  21  27
ENDBRANCH   5  15
ENDBRANCH   9   5
TORSDOF 5
ENDMDL
MODEL 2
REMARK VINA RESULT:      -6.3      3.632      5.371
REMARK  Name = 75536873
REMARK  5 active torsions:
REMARK  status: ('A' for Active; 'I' for Inactive)
REMARK    1  A    between atoms: O_5  and  C_9
REMARK    2  A    between atoms: O_5  and  C_15
REMARK    3  A    between atoms: C_14  and  C_16
REMARK    4  A    between atoms: C_21  and  C_27
REMARK    5  A    between atoms: C_26  and  C_28
REMARK                            x       y       z     vdW  Elec       q    Type
REMARK                         _______ _______ _______ _____ _____    ______ ____
ROOT
ATOM      4  O   UNL     1      19.237  12.474  20.644  0.00  0.00    -0.375 OA
ATOM      6  O   UNL     1      18.726   7.502  21.014  0.00  0.00    -0.270 OA
ATOM      7  N   UNL     1      18.101   9.738  21.331  0.00  0.00    -0.292 N 
ATOM      9  C   UNL     1      16.958  11.566  20.126  0.00  0.00    +0.216 C 
ATOM     10  C   UNL     1      17.049  10.764  21.422  0.00  0.00    +0.155 C 
ATOM     11  C   UNL     1      19.483  10.212  21.432  0.00  0.00    +0.136 C 
ATOM     12  C   UNL     1      17.973  12.710  20.034  0.00  0.00    +0.206 C 
ATOM     13  C   UNL     1      19.834  11.220  20.341  0.00  0.00    +0.179 C 
ATOM     14  C   UNL     1      17.865   8.372  21.124  0.00  0.00    +0.247 C 
ENDROOT
BRANCH  14  16
ATOM     16  C   UNL     1      16.473   7.917  21.022  0.00  0.00    +0.037 A 
ATOM     19  C   UNL     1      16.058   7.184  19.911  0.00  0.00    +0.014 A 
ATOM     20  C   UNL     1      15.566   8.218  22.039  0.00  0.00    +0.014 A 
ATOM     24  C   UNL     1      14.735   6.752  19.815  0.00  0.00    +0.019 A 
ATOM     25  C   UNL     1      14.243   7.784  21.943  0.00  0.00    +0.019 A 
ATOM     26  C   UNL     1      13.828   7.051  20.832  0.00  0.00    +0.052 A 
BRANCH  26  28
ATOM      8  N   UNL     1      11.373   6.246  20.654  0.00  0.00    -0.191 NA
ATOM     28  C   UNL     1      12.473   6.607  20.734  0.00  0.00    +0.099 C 
ENDBRANCH  26  28
ENDBRANCH  14  16
BRANCH   9   5
ATOM      5  O   UNL     1      15.643  12.106  20.008  0.00  0.00    -0.485 OA
BRANCH   5  15
ATOM     15  C   UNL     1      14.691  11.283  19.472  0.00  0.00    +0.121 A 
ATOM     17  C   UNL     1      13.487  11.079  20.147  0.00  0.00    +0.046 A 
ATOM     18  C   UNL     1      14.923  10.649  18.252  0.00  0.00    +0.046 A 
ATOM     21  C   UNL     1      12.747   9.606  18.381  0.00  0.00    +0.055 A 
ATOM     22  C   UNL     1      12.515  10.240  19.601  0.00  0.00    +0.016 A 
ATOM     23  C   UNL     1      13.951   9.810  17.707  0.00  0.00    +0.016 A 
BRANCH  21  27
ATOM      1  F   UNL     1      10.593   8.586  18.574  0.00  0.00    -0.166 F 
ATOM      2  F   UNL     1      12.144   7.429  17.595  0.00  0.00    -0.166 F 
ATOM      3  F   UNL     1      11.265   9.140  16.582  0.00  0.00    -0.166 F 
ATOM     27  C   UNL     1      11.710   8.708  17.798  0.00  0.00    +0.417 C 
ENDBRANCH  21  27
ENDBRANCH   5  15
ENDBRANCH   9   5
TORSDOF 5
ENDMDL
MODEL 3
REMARK VINA RESULT:      -6.1     17.431     20.160
REMARK  Name = 75536873
REMARK  5 active torsions:
REMARK  status: ('A' for Active; 'I' for Inactive)
REMARK    1  A    between atoms: O_5  and  C_9
REMARK    2  A    between atoms: O_5  and  C_15
REMARK    3  A    between atoms: C_14  and  C_16
REMARK    4  A    between atoms: C_21  and  C_27
REMARK    5  A    between atoms: C_26  and  C_28
REMARK                            x       y       z     vdW  Elec       q    Type
REMARK                         _______ _______ _______ _____ _____    ______ ____
ROOT
ATOM      4  O   UNL     1      13.893   7.801   6.940  0.00  0.00    -0.375 OA
ATOM      6  O   UNL     1      10.104   4.766   5.692  0.00  0.00    -0.270 OA
ATOM      7  N   UNL     1      11.531   6.608   5.440  0.00  0.00    -0.292 N 
ATOM      9  C   UNL     1      13.757   7.158   4.520  0.00  0.00    +0.216 C 
ATOM     10  C   UNL     1      12.276   7.530   4.566  0.00  0.00    +0.155 C 
ATOM     11  C   UNL     1      11.707   6.793   6.882  0.00  0.00    +0.136 C 
ATOM     12  C   UNL     1      14.571   7.716   5.691  0.00  0.00    +0.206 C 
ATOM     13  C   UNL     1      13.163   6.641   7.316  0.00  0.00    +0.179 C 
ATOM     14  C   UNL     1      10.711   5.567   4.984  0.00  0.00    +0.247 C 
ENDROOT
BRANCH  14  16
ATOM     16  C   UNL     1      10.550   5.397   3.535  0.00  0.00    +0.037 A 
ATOM     19  C   UNL     1      10.956   4.211   2.922  0.00  0.00    +0.014 A 
ATOM     20  C   UNL     1       9.990   6.421   2.771  0.00  0.00    +0.014 A 
ATOM     24  C   UNL     1      10.802   4.050   1.545  0.00  0.00    +0.019 A 
ATOM     25  C   UNL     1       9.835   6.258   1.394  0.00  0.00    +0.019 A 
ATOM     26  C   UNL     1      10.241   5.073   0.781  0.00  0.00    +0.052 A 
BRANCH  26  28
ATOM      8  N   UNL     1       9.954   4.771  -1.775  0.00  0.00    -0.191 NA
ATOM     28  C   UNL     1      10.082   4.906  -0.629  0.00  0.00    +0.099 C 
ENDBRANCH  26  28
ENDBRANCH  14  16
BRANCH   9   5
ATOM      5  O   UNL     1      14.314   7.640   3.299  0.00  0.00    -0.485 OA
BRANCH   5  15
ATOM     15  C   UNL     1      14.172   6.835   2.202  0.00  0.00    +0.121 A 
ATOM     17  C   UNL     1      14.639   5.521   2.237  0.00  0.00    +0.046 A 
ATOM     18  C   UNL     1      13.561   7.329   1.049  0.00  0.00    +0.046 A 
ATOM     21  C   UNL     1      13.883   5.193  -0.034  0.00  0.00    +0.055 A 
ATOM     22  C   UNL     1      14.495   4.700   1.119  0.00  0.00    +0.016 A 
ATOM     23  C   UNL     1      13.417   6.508  -0.068  0.00  0.00    +0.016 A 
BRANCH  21  27
ATOM      1  F   UNL     1      14.916   3.868  -1.736  0.00  0.00    -0.166 F 
ATOM      2  F   UNL     1      13.104   4.928  -2.280  0.00  0.00    -0.166 F 
ATOM      3  F   UNL     1      12.995   3.196  -0.969  0.00  0.00    -0.166 F 
ATOM     27  C   UNL     1      13.730   4.317  -1.230  0.00  0.00    +0.417 C 
ENDBRANCH  21  27
ENDBRANCH   5  15
ENDBRANCH   9   5
TORSDOF 5
ENDMDL
MODEL 4
REMARK VINA RESULT:      -6.1     27.619     29.874
REMARK  Name = 75536873
REMARK  5 active torsions:
REMARK  status: ('A' for Active; 'I' for Inactive)
REMARK    1  A    between atoms: O_5  and  C_9
REMARK    2  A    between atoms: O_5  and  C_15
REMARK    3  A    between atoms: C_14  and  C_16
REMARK    4  A    between atoms: C_21  and  C_27
REMARK    5  A    between atoms: C_26  and  C_28
REMARK                            x       y       z     vdW  Elec       q    Type
REMARK                         _______ _______ _______ _____ _____    ______ ____
ROOT
ATOM      4  O   UNL     1     -10.644 -10.365  13.114  0.00  0.00    -0.375 OA
ATOM      6  O   UNL     1      -9.344  -8.372  17.526  0.00  0.00    -0.270 OA
ATOM      7  N   UNL     1      -9.595 -10.094  15.956  0.00  0.00    -0.292 N 
ATOM      9  C   UNL     1      -8.413 -11.067  14.017  0.00  0.00    +0.216 C 
ATOM     10  C   UNL     1      -9.106 -11.344  15.350  0.00  0.00    +0.155 C 
ATOM     11  C   UNL     1     -10.797  -9.508  15.358  0.00  0.00    +0.136 C 
ATOM     12  C   UNL     1      -9.376 -10.947  12.832  0.00  0.00    +0.206 C 
ATOM     13  C   UNL     1     -10.608  -9.169  13.882  0.00  0.00    +0.179 C 
ATOM     14  C   UNL     1      -8.973  -9.431  17.022  0.00  0.00    +0.247 C 
ENDROOT
BRANCH  14  16
ATOM     16  C   UNL     1      -7.768 -10.034  17.605  0.00  0.00    +0.037 A 
ATOM     19  C   UNL     1      -6.509  -9.684  17.121  0.00  0.00    +0.014 A 
ATOM     20  C   UNL     1      -7.884 -10.957  18.644  0.00  0.00    +0.014 A 
ATOM     24  C   UNL     1      -5.364 -10.256  17.675  0.00  0.00    +0.019 A 
ATOM     25  C   UNL     1      -6.739 -11.529  19.200  0.00  0.00    +0.019 A 
ATOM     26  C   UNL     1      -5.479 -11.179  18.715  0.00  0.00    +0.052 A 
BRANCH  26  28
ATOM      8  N   UNL     1      -3.354 -12.239  19.745  0.00  0.00    -0.191 NA
ATOM     28  C   UNL     1      -4.306 -11.764  19.284  0.00  0.00    +0.099 C 
ENDBRANCH  26  28
ENDBRANCH  14  16
BRANCH   9   5
ATOM      5  O   UNL     1      -7.486 -12.118  13.753  0.00  0.00    -0.485 OA
BRANCH   5  15
ATOM     15  C   UNL     1      -6.184 -11.887  14.103  0.00  0.00    +0.121 A 
ATOM     17  C   UNL     1      -5.506 -12.802  14.909  0.00  0.00    +0.046 A 
ATOM     18  C   UNL     1      -5.534 -10.736  13.654  0.00  0.00    +0.046 A 
ATOM     21  C   UNL     1      -3.529 -11.416  14.817  0.00  0.00    +0.055 A 
ATOM     22  C   UNL     1      -4.178 -12.566  15.266  0.00  0.00    +0.016 A 
ATOM     23  C   UNL     1      -4.207 -10.502  14.012  0.00  0.00    +0.016 A 
BRANCH  21  27
ATOM      1  F   UNL     1      -1.591 -10.023  14.658  0.00  0.00    -0.166 F 
ATOM      2  F   UNL     1      -1.255 -12.159  14.818  0.00  0.00    -0.166 F 
ATOM      3  F   UNL     1      -1.944 -11.037  16.549  0.00  0.00    -0.166 F 
ATOM     27  C   UNL     1      -2.110 -11.164  15.200  0.00  0.00    +0.417 C 
ENDBRANCH  21  27
ENDBRANCH   5  15
ENDBRANCH   9   5
TORSDOF 5
ENDMDL
MODEL 5
REMARK VINA RESULT:      -6.0     27.521     29.841
REMARK  Name = 75536873
REMARK  5 active torsions:
REMARK  status: ('A' for Active; 'I' for Inactive)
REMARK    1  A    between atoms: O_5  and  C_9
REMARK    2  A    between atoms: O_5  and  C_15
REMARK    3  A    between atoms: C_14  and  C_16
REMARK    4  A    between atoms: C_21  and  C_27
REMARK    5  A    between atoms: C_26  and  C_28
REMARK                            x       y       z     vdW  Elec       q    Type
REMARK                         _______ _______ _______ _____ _____    ______ ____
ROOT
ATOM      4  O   UNL     1      -3.435 -11.578  16.293  0.00  0.00    -0.375 OA
ATOM      6  O   UNL     1      -0.983  -9.836  12.283  0.00  0.00    -0.270 OA
ATOM      7  N   UNL     1      -2.524 -11.189  13.418  0.00  0.00    -0.292 N 
ATOM      9  C   UNL     1      -4.840 -11.103  14.272  0.00  0.00    +0.216 C 
ATOM     10  C   UNL     1      -3.819 -11.888  13.451  0.00  0.00    +0.155 C 
ATOM     11  C   UNL     1      -1.717 -11.255  14.638  0.00  0.00    +0.136 C 
ATOM     12  C   UNL     1      -4.743 -11.349  15.781  0.00  0.00    +0.206 C 
ATOM     13  C   UNL     1      -2.439 -10.667  15.847  0.00  0.00    +0.179 C 
ATOM     14  C   UNL     1      -2.045 -10.453  12.326  0.00  0.00    +0.247 C 
ENDROOT
BRANCH  14  16
ATOM     16  C   UNL     1      -2.871 -10.397  11.113  0.00  0.00    +0.037 A 
ATOM     19  C   UNL     1      -3.435 -11.563  10.598  0.00  0.00    +0.014 A 
ATOM     20  C   UNL     1      -3.091  -9.175  10.476  0.00  0.00    +0.014 A 
ATOM     24  C   UNL     1      -4.219 -11.509   9.446  0.00  0.00    +0.019 A 
ATOM     25  C   UNL     1      -3.877  -9.121   9.324  0.00  0.00    +0.019 A 
ATOM     26  C   UNL     1      -4.441 -10.288   8.810  0.00  0.00    +0.052 A 
BRANCH  26  28
ATOM      8  N   UNL     1      -5.899 -10.187   6.672  0.00  0.00    -0.191 NA
ATOM     28  C   UNL     1      -5.246 -10.233   7.630  0.00  0.00    +0.099 C 
ENDBRANCH  26  28
ENDBRANCH  14  16
BRANCH   9   5
ATOM      5  O   UNL     1      -6.151 -11.450  13.831  0.00  0.00    -0.485 OA
BRANCH   5  15
ATOM     15  C   UNL     1      -6.628 -10.776  12.740  0.00  0.00    +0.121 A 
ATOM     17  C   UNL     1      -6.283  -9.439  12.542  0.00  0.00    +0.046 A 
ATOM     18  C   UNL     1      -7.459 -11.425  11.828  0.00  0.00    +0.046 A 
ATOM     21  C   UNL     1      -7.601  -9.400  10.517  0.00  0.00    +0.055 A 
ATOM     22  C   UNL     1      -6.769  -8.751  11.430  0.00  0.00    +0.016 A 
ATOM     23  C   UNL     1      -7.945 -10.737  10.717  0.00  0.00    +0.016 A 
BRANCH  21  27
ATOM      1  F   UNL     1      -7.207  -7.828   8.758  0.00  0.00    -0.166 F 
ATOM      2  F   UNL     1      -9.202  -7.876   9.606  0.00  0.00    -0.166 F 
ATOM      3  F   UNL     1      -8.526  -9.502   8.330  0.00  0.00    -0.166 F 
ATOM     27  C   UNL     1      -8.122  -8.665   9.330  0.00  0.00    +0.417 C 
ENDBRANCH  21  27
ENDBRANCH   5  15
ENDBRANCH   9   5
TORSDOF 5
ENDMDL
MODEL 6
REMARK VINA RESULT:      -5.9     29.672     31.304
REMARK  Name = 75536873
REMARK  5 active torsions:
REMARK  status: ('A' for Active; 'I' for Inactive)
REMARK    1  A    between atoms: O_5  and  C_9
REMARK    2  A    between atoms: O_5  and  C_15
REMARK    3  A    between atoms: C_14  and  C_16
REMARK    4  A    between atoms: C_21  and  C_27
REMARK    5  A    between atoms: C_26  and  C_28
REMARK                            x       y       z     vdW  Elec       q    Type
REMARK                         _______ _______ _______ _____ _____    ______ ____
ROOT
ATOM      4  O   UNL     1     -15.246   8.347  33.668  0.00  0.00    -0.375 OA
ATOM      6  O   UNL     1     -19.038   6.696  30.835  0.00  0.00    -0.270 OA
ATOM      7  N   UNL     1     -16.792   7.118  31.355  0.00  0.00    -0.292 N 
ATOM      9  C   UNL     1     -14.921   6.099  32.606  0.00  0.00    +0.216 C 
ATOM     10  C   UNL     1     -15.375   6.722  31.288  0.00  0.00    +0.155 C 
ATOM     11  C   UNL     1     -17.095   8.326  32.125  0.00  0.00    +0.136 C 
ATOM     12  C   UNL     1     -14.516   7.126  33.669  0.00  0.00    +0.206 C 
ATOM     13  C   UNL     1     -16.659   8.212  33.583  0.00  0.00    +0.179 C 
ATOM     14  C   UNL     1     -17.845   6.404  30.768  0.00  0.00    +0.247 C 
ENDROOT
BRANCH  14  16
ATOM     16  C   UNL     1     -17.521   5.194  30.002  0.00  0.00    +0.037 A 
ATOM     19  C   UNL     1     -16.860   5.299  28.779  0.00  0.00    +0.014 A 
ATOM     20  C   UNL     1     -17.874   3.939  30.500  0.00  0.00    +0.014 A 
ATOM     24  C   UNL     1     -16.552   4.149  28.052  0.00  0.00    +0.019 A 
ATOM     25  C   UNL     1     -17.564   2.789  29.773  0.00  0.00    +0.019 A 
ATOM     26  C   UNL     1     -16.903   2.894  28.550  0.00  0.00    +0.052 A 
BRANCH  26  28
ATOM      8  N   UNL     1     -16.328   0.759  27.201  0.00  0.00    -0.191 NA
ATOM     28  C   UNL     1     -16.586   1.716  27.805  0.00  0.00    +0.099 C 
ENDBRANCH  26  28
ENDBRANCH  14  16
BRANCH   9   5
ATOM      5  O   UNL     1     -13.814   5.237  32.351  0.00  0.00    -0.485 OA
BRANCH   5  15
ATOM     15  C   UNL     1     -14.111   3.952  31.986  0.00  0.00    +0.121 A 
ATOM     17  C   UNL     1     -13.600   3.431  30.797  0.00  0.00    +0.046 A 
ATOM     18  C   UNL     1     -14.923   3.165  32.802  0.00  0.00    +0.046 A 
ATOM     21  C   UNL     1     -14.715   1.334  31.239  0.00  0.00    +0.055 A 
ATOM     22  C   UNL     1     -13.902   2.121  30.424  0.00  0.00    +0.016 A 
ATOM     23  C   UNL     1     -15.225   1.856  32.428  0.00  0.00    +0.016 A 
BRANCH  21  27
ATOM      1  F   UNL     1     -16.293  -0.210  30.319  0.00  0.00    -0.166 F 
ATOM      2  F   UNL     1     -14.979  -0.957  31.874  0.00  0.00    -0.166 F 
ATOM      3  F   UNL     1     -14.189  -0.551  29.888  0.00  0.00    -0.166 F 
ATOM     27  C   UNL     1     -15.039  -0.065  30.840  0.00  0.00    +0.417 C 
ENDBRANCH  21  27
ENDBRANCH   5  15
ENDBRANCH   9   5
TORSDOF 5
ENDMDL
MODEL 7
REMARK VINA RESULT:      -5.9      3.504      4.201
REMARK  Name = 75536873
REMARK  5 active torsions:
REMARK  status: ('A' for Active; 'I' for Inactive)
REMARK    1  A    between atoms: O_5  and  C_9
REMARK    2  A    between atoms: O_5  and  C_15
REMARK    3  A    between atoms: C_14  and  C_16
REMARK    4  A    between atoms: C_21  and  C_27
REMARK    5  A    between atoms: C_26  and  C_28
REMARK                            x       y       z     vdW  Elec       q    Type
REMARK                         _______ _______ _______ _____ _____    ______ ____
ROOT
ATOM      4  O   UNL     1      19.012  12.075  22.081  0.00  0.00    -0.375 OA
ATOM      6  O   UNL     1      15.004  13.861  19.659  0.00  0.00    -0.270 OA
ATOM      7  N   UNL     1      16.759  12.360  20.059  0.00  0.00    -0.292 N 
ATOM      9  C   UNL     1      17.271  10.384  21.450  0.00  0.00    +0.216 C 
ATOM     10  C   UNL     1      17.283  10.985  20.045  0.00  0.00    +0.155 C 
ATOM     11  C   UNL     1      17.649  13.392  20.596  0.00  0.00    +0.136 C 
ATOM     12  C   UNL     1      18.488  10.770  22.298  0.00  0.00    +0.206 C 
ATOM     13  C   UNL     1      18.048  13.120  22.044  0.00  0.00    +0.179 C 
ATOM     14  C   UNL     1      15.476  12.727  19.630  0.00  0.00    +0.247 C 
ENDROOT
BRANCH  14  16
ATOM     16  C   UNL     1      14.597  11.678  19.097  0.00  0.00    +0.037 A 
ATOM     19  C   UNL     1      14.881  11.090  17.864  0.00  0.00    +0.014 A 
ATOM     20  C   UNL     1      13.480  11.268  19.824  0.00  0.00    +0.014 A 
ATOM     24  C   UNL     1      14.047  10.093  17.358  0.00  0.00    +0.019 A 
ATOM     25  C   UNL     1      12.646  10.270  19.319  0.00  0.00    +0.019 A 
ATOM     26  C   UNL     1      12.930   9.683  18.086  0.00  0.00    +0.052 A 
BRANCH  26  28
ATOM      8  N   UNL     1      11.383   7.831  17.147  0.00  0.00    -0.191 NA
ATOM     28  C   UNL     1      12.076   8.660  17.568  0.00  0.00    +0.099 C 
ENDBRANCH  26  28
ENDBRANCH  14  16
BRANCH   9   5
ATOM      5  O   UNL     1      17.215   8.964  21.343  0.00  0.00    -0.485 OA
BRANCH   5  15
ATOM     15  C   UNL     1      15.973   8.411  21.195  0.00  0.00    +0.121 A 
ATOM     17  C   UNL     1      15.712   7.563  20.117  0.00  0.00    +0.046 A 
ATOM     18  C   UNL     1      14.967   8.694  22.119  0.00  0.00    +0.046 A 
ATOM     21  C   UNL     1      13.440   7.282  20.890  0.00  0.00    +0.055 A 
ATOM     22  C   UNL     1      14.445   6.999  19.965  0.00  0.00    +0.016 A 
ATOM     23  C   UNL     1      13.701   8.130  21.966  0.00  0.00    +0.016 A 
BRANCH  21  27
ATOM      1  F   UNL     1      11.087   7.604  20.600  0.00  0.00    -0.166 F 
ATOM      2  F   UNL     1      11.708   5.890  21.776  0.00  0.00    -0.166 F 
ATOM      3  F   UNL     1      11.993   5.887  19.620  0.00  0.00    -0.166 F 
ATOM     27  C   UNL     1      12.086   6.681  20.727  0.00  0.00    +0.417 C 
ENDBRANCH  21  27
ENDBRANCH   5  15
ENDBRANCH   9   5
TORSDOF 5
ENDMDL
MODEL 8
REMARK VINA RESULT:      -5.8      3.491      6.246
REMARK  Name = 75536873
REMARK  5 active torsions:
REMARK  status: ('A' for Active; 'I' for Inactive)
REMARK    1  A    between atoms: O_5  and  C_9
REMARK    2  A    between atoms: O_5  and  C_15
REMARK    3  A    between atoms: C_14  and  C_16
REMARK    4  A    between atoms: C_21  and  C_27
REMARK    5  A    between atoms: C_26  and  C_28
REMARK                            x       y       z     vdW  Elec       q    Type
REMARK                         _______ _______ _______ _____ _____    ______ ____
ROOT
ATOM      4  O   UNL     1      13.591   8.079  16.048  0.00  0.00    -0.375 OA
ATOM      6  O   UNL     1      13.619  12.625  18.159  0.00  0.00    -0.270 OA
ATOM      7  N   UNL     1      13.210  10.319  18.069  0.00  0.00    -0.292 N 
ATOM      9  C   UNL     1      14.390   8.178  18.423  0.00  0.00    +0.216 C 
ATOM     10  C   UNL     1      13.150   9.011  18.742  0.00  0.00    +0.155 C 
ATOM     11  C   UNL     1      12.942  10.323  16.629  0.00  0.00    +0.136 C 
ATOM     12  C   UNL     1      14.302   7.424  17.092  0.00  0.00    +0.206 C 
ATOM     13  C   UNL     1      13.922   9.448  15.852  0.00  0.00    +0.179 C 
ATOM     14  C   UNL     1      13.533  11.526  18.703  0.00  0.00    +0.247 C 
ENDROOT
BRANCH  14  16
ATOM     16  C   UNL     1      13.801  11.500  20.147  0.00  0.00    +0.037 A 
ATOM     19  C   UNL     1      15.087  11.231  20.613  0.00  0.00    +0.014 A 
ATOM     20  C   UNL     1      12.768  11.746  21.051  0.00  0.00    +0.014 A 
ATOM     24  C   UNL     1      15.341  11.207  21.985  0.00  0.00    +0.019 A 
ATOM     25  C   UNL     1      13.022  11.724  22.423  0.00  0.00    +0.019 A 
ATOM     26  C   UNL     1      14.308  11.454  22.889  0.00  0.00    +0.052 A 
BRANCH  26  28
ATOM      8  N   UNL     1      14.780  11.413  25.435  0.00  0.00    -0.191 NA
ATOM     28  C   UNL     1      14.569  11.431  24.294  0.00  0.00    +0.099 C 
ENDBRANCH  26  28
ENDBRANCH  14  16
BRANCH   9   5
ATOM      5  O   UNL     1      14.596   7.237  19.474  0.00  0.00    -0.485 OA
BRANCH   5  15
ATOM     15  C   UNL     1      15.896   6.937  19.780  0.00  0.00    +0.121 A 
ATOM     17  C   UNL     1      16.592   6.000  19.017  0.00  0.00    +0.046 A 
ATOM     18  C   UNL     1      16.523   7.568  20.854  0.00  0.00    +0.046 A 
ATOM     21  C   UNL     1      18.545   6.324  20.403  0.00  0.00    +0.055 A 
ATOM     22  C   UNL     1      17.917   5.693  19.328  0.00  0.00    +0.016 A 
ATOM     23  C   UNL     1      17.847   7.261  21.165  0.00  0.00    +0.016 A 
BRANCH  21  27
ATOM      1  F   UNL     1      20.377   4.796  20.236  0.00  0.00    -0.166 F 
ATOM      2  F   UNL     1      20.202   5.924  22.079  0.00  0.00    -0.166 F 
ATOM      3  F   UNL     1      20.841   6.920  20.255  0.00  0.00    -0.166 F 
ATOM     27  C   UNL     1      19.960   5.996  20.736  0.00  0.00    +0.417 C 
ENDBRANCH  21  27
ENDBRANCH   5  15
ENDBRANCH   9   5
TORSDOF 5
ENDMDL
MODEL 9
REMARK VINA RESULT:      -5.8      1.584      2.230
REMARK  Name = 75536873
REMARK  5 active torsions:
REMARK  status: ('A' for Active; 'I' for Inactive)
REMARK    1  A    between atoms: O_5  and  C_9
REMARK    2  A    between atoms: O_5  and  C_15
REMARK    3  A    between atoms: C_14  and  C_16
REMARK    4  A    between atoms: C_21  and  C_27
REMARK    5  A    between atoms: C_26  and  C_28
REMARK                            x       y       z     vdW  Elec       q    Type
REMARK                         _______ _______ _______ _____ _____    ______ ____
ROOT
ATOM      4  O   UNL     1      12.622  12.474  25.267  0.00  0.00    -0.375 OA
ATOM      6  O   UNL     1       9.854   9.302  22.546  0.00  0.00    -0.270 OA
ATOM      7  N   UNL     1      11.451  10.982  22.889  0.00  0.00    -0.292 N 
ATOM      9  C   UNL     1      13.841  11.223  23.467  0.00  0.00    +0.216 C 
ATOM     10  C   UNL     1      12.720  11.626  22.511  0.00  0.00    +0.155 C 
ATOM     11  C   UNL     1      10.763  11.534  24.058  0.00  0.00    +0.136 C 
ATOM     12  C   UNL     1      13.881  12.050  24.757  0.00  0.00    +0.206 C 
ATOM     13  C   UNL     1      11.617  11.468  25.321  0.00  0.00    +0.179 C 
ATOM     14  C   UNL     1      10.894   9.876  22.233  0.00  0.00    +0.247 C 
ENDROOT
BRANCH  14  16
ATOM     16  C   UNL     1      11.600   9.336  21.064  0.00  0.00    +0.037 A 
ATOM     19  C   UNL     1      11.653   7.958  20.856  0.00  0.00    +0.014 A 
ATOM     20  C   UNL     1      12.218  10.202  20.162  0.00  0.00    +0.014 A 
ATOM     24  C   UNL     1      12.324   7.445  19.746  0.00  0.00    +0.019 A 
ATOM     25  C   UNL     1      12.888   9.689  19.051  0.00  0.00    +0.019 A 
ATOM     26  C   UNL     1      12.941   8.311  18.843  0.00  0.00    +0.052 A 
BRANCH  26  28
ATOM      8  N   UNL     1      14.183   7.358  16.780  0.00  0.00    -0.191 NA
ATOM     28  C   UNL     1      13.627   7.785  17.704  0.00  0.00    +0.099 C 
ENDBRANCH  26  28
ENDBRANCH  14  16
BRANCH   9   5
ATOM      5  O   UNL     1      15.091  11.357  22.795  0.00  0.00    -0.485 OA
BRANCH   5  15
ATOM     15  C   UNL     1      15.555  10.248  22.141  0.00  0.00    +0.121 A 
ATOM     17  C   UNL     1      16.596  10.368  21.220  0.00  0.00    +0.046 A 
ATOM     18  C   UNL     1      14.987   8.999  22.395  0.00  0.00    +0.046 A 
ATOM     21  C   UNL     1      16.502   7.989  20.807  0.00  0.00    +0.055 A 
ATOM     22  C   UNL     1      17.069   9.237  20.553  0.00  0.00    +0.016 A 
ATOM     23  C   UNL     1      15.461   7.870  21.728  0.00  0.00    +0.016 A 
BRANCH  21  27
ATOM      1  F   UNL     1      16.621   5.604  20.668  0.00  0.00    -0.166 F 
ATOM      2  F   UNL     1      18.370   6.715  20.028  0.00  0.00    -0.166 F 
ATOM      3  F   UNL     1      16.575   6.716  18.800  0.00  0.00    -0.166 F 
ATOM     27  C   UNL     1      17.007   6.781  20.094  0.00  0.00    +0.417 C 
ENDBRANCH  21  27
ENDBRANCH   5  15
ENDBRANCH   9   5
TORSDOF 5
ENDMDL
MODEL 10
REMARK VINA RESULT:      -5.8     14.259     17.096
REMARK  Name = 75536873
REMARK  5 active torsions:
REMARK  status: ('A' for Active; 'I' for Inactive)
REMARK    1  A    between atoms: O_5  and  C_9
REMARK    2  A    between atoms: O_5  and  C_15
REMARK    3  A    between atoms: C_14  and  C_16
REMARK    4  A    between atoms: C_21  and  C_27
REMARK    5  A    between atoms: C_26  and  C_28
REMARK                            x       y       z     vdW  Elec       q    Type
REMARK                         _______ _______ _______ _____ _____    ______ ____
ROOT
ATOM      4  O   UNL     1      22.332  -8.853  23.750  0.00  0.00    -0.375 OA
ATOM      6  O   UNL     1      21.334  -5.896  27.673  0.00  0.00    -0.270 OA
ATOM      7  N   UNL     1      21.845  -6.368  25.434  0.00  0.00    -0.292 N 
ATOM      9  C   UNL     1      20.709  -6.989  23.331  0.00  0.00    +0.216 C 
ATOM     10  C   UNL     1      21.707  -6.049  24.004  0.00  0.00    +0.155 C 
ATOM     11  C   UNL     1      22.625  -7.564  25.762  0.00  0.00    +0.136 C 
ATOM     12  C   UNL     1      21.314  -8.331  22.905  0.00  0.00    +0.206 C 
ATOM     13  C   UNL     1      22.040  -8.829  25.142  0.00  0.00    +0.179 C 
ATOM     14  C   UNL     1      21.259  -5.633  26.474  0.00  0.00    +0.247 C 
ENDROOT
BRANCH  14  16
ATOM     16  C   UNL     1      20.479  -4.440  26.125  0.00  0.00    +0.037 A 
ATOM     19  C   UNL     1      21.081  -3.390  25.432  0.00  0.00    +0.014 A 
ATOM     20  C   UNL     1      19.134  -4.357  26.485  0.00  0.00    +0.014 A 
ATOM     24  C   UNL     1      20.339  -2.257  25.100  0.00  0.00    +0.019 A 
ATOM     25  C   UNL     1      18.391  -3.224  26.152  0.00  0.00    +0.019 A 
ATOM     26  C   UNL     1      18.994  -2.174  25.459  0.00  0.00    +0.052 A 
BRANCH  26  28
ATOM      8  N   UNL     1      17.616  -0.071  24.840  0.00  0.00    -0.191 NA
ATOM     28  C   UNL     1      18.234  -1.013  25.117  0.00  0.00    +0.099 C 
ENDBRANCH  26  28
ENDBRANCH  14  16
BRANCH   9   5
ATOM      5  O   UNL     1      20.168  -6.341  22.181  0.00  0.00    -0.485 OA
BRANCH   5  15
ATOM     15  C   UNL     1      19.120  -5.489  22.396  0.00  0.00    +0.121 A 
ATOM     17  C   UNL     1      19.179  -4.179  21.920  0.00  0.00    +0.046 A 
ATOM     18  C   UNL     1      17.993  -5.930  23.091  0.00  0.00    +0.046 A 
ATOM     21  C   UNL     1      16.983  -3.750  22.834  0.00  0.00    +0.055 A 
ATOM     22  C   UNL     1      18.110  -3.310  22.139  0.00  0.00    +0.016 A 
ATOM     23  C   UNL     1      16.926  -5.060  23.310  0.00  0.00    +0.016 A 
BRANCH  21  27
ATOM      1  F   UNL     1      15.453  -2.750  24.376  0.00  0.00    -0.166 F 
ATOM      2  F   UNL     1      14.711  -3.158  22.380  0.00  0.00    -0.166 F 
ATOM      3  F   UNL     1      16.125  -1.537  22.701  0.00  0.00    -0.166 F 
ATOM     27  C   UNL     1      15.842  -2.821  23.069  0.00  0.00    +0.417 C 
ENDBRANCH  21  27
ENDBRANCH   5  15
ENDBRANCH   9   5
TORSDOF 5
ENDMDL
