MODEL 1
REMARK VINA RESULT:      -6.8      0.000      0.000
REMARK  Name = 9424604
REMARK  4 active torsions:
REMARK  status: ('A' for Active; 'I' for Inactive)
REMARK    1  A    between atoms: N_5  and  C_14
REMARK    2  A    between atoms: N_8  and  C_21
REMARK    3  A    between atoms: C_25  and  C_26
REMARK    4  A    between atoms: C_27  and  C_28
REMARK                            x       y       z     vdW  Elec       q    Type
REMARK                         _______ _______ _______ _____ _____    ______ ____
ROOT
ATOM      1  O   UNL     1      13.236  10.424   7.387  0.00  0.00    -0.268 OA
ATOM      5  N   UNL     1       9.625   7.883   5.004  0.00  0.00    -0.298 NA
ATOM      6  N   UNL     1      12.384   9.426   5.447  0.00  0.00    -0.310 N 
ATOM      9  C   UNL     1      10.216  10.226   4.337  0.00  0.00    +0.024 C 
ATOM     10  C   UNL     1      11.456   8.350   3.372  0.00  0.00    +0.052 C 
ATOM     11  C   UNL     1      10.864   9.721   3.059  0.00  0.00    +0.017 C 
ATOM     12  C   UNL     1       9.119   9.245   4.803  0.00  0.00    +0.090 C 
ATOM     13  C   UNL     1      10.326   7.389   3.809  0.00  0.00    +0.094 C 
ATOM     15  C   UNL     1      11.313  10.429   5.387  0.00  0.00    +0.130 C 
ATOM     16  C   UNL     1      12.528   8.437   4.457  0.00  0.00    +0.047 A 
ATOM     21  C   UNL     1      13.579   7.587   4.507  0.00  0.00    +0.054 A 
ATOM     22  C   UNL     1      13.303   9.570   6.503  0.00  0.00    +0.252 A 
ATOM     23  C   UNL     1      14.550   7.694   5.569  0.00  0.00    +0.030 A 
ATOM     24  C   UNL     1      14.439   8.616   6.527  0.00  0.00    +0.072 A 
ENDROOT
BRANCH   5  14
ATOM      2  O   UNL     1       9.903   3.530   8.749  0.00  0.00    -0.276 OA
ATOM      7  N   UNL     1       9.479   5.604   7.793  0.00  0.00    -0.302 N 
ATOM     14  C   UNL     1       8.543   6.974   5.389  0.00  0.00    +0.060 C 
ATOM     17  C   UNL     1       8.022   7.328   6.790  0.00  0.00    +0.038 C 
ATOM     18  C   UNL     1       9.035   5.518   5.368  0.00  0.00    +0.038 C 
ATOM     19  C   UNL     1       9.031   7.000   7.892  0.00  0.00    +0.109 C 
ATOM     20  C   UNL     1      10.028   5.221   6.490  0.00  0.00    +0.109 C 
ATOM     25  C   UNL     1       9.470   4.681   8.838  0.00  0.00    +0.212 C 
ATOM     26  C   UNL     1       8.885   5.147  10.148  0.00  0.00    +0.109 C 
ENDBRANCH   5  14
BRANCH  21   8
ATOM      3  O   UNL     1      15.083   7.787   2.132  0.00  0.00    -0.266 OA
ATOM      8  N   UNL     1      13.785   6.579   3.605  0.00  0.00    -0.277 N 
ATOM     27  C   UNL     1      14.538   6.726   2.442  0.00  0.00    +0.284 C 
ATOM     32  H   UNL     1      13.545   5.630   3.880  0.00  0.00    +0.155 HD
BRANCH  27  28
ATOM      4  O   UNL     1      15.652   5.523   0.712  0.00  0.00    -0.458 OA
ATOM     28  C   UNL     1      14.668   5.515   1.617  0.00  0.00    +0.189 A 
ATOM     29  C   UNL     1      13.945   4.381   1.626  0.00  0.00    +0.054 A 
ATOM     30  C   UNL     1      14.529   3.578   0.617  0.00  0.00    +0.042 A 
ATOM     31  C   UNL     1      15.564   4.318   0.093  0.00  0.00    +0.196 A 
ENDBRANCH  27  28
ENDBRANCH  21   8
TORSDOF 3
ENDMDL
MODEL 2
REMARK VINA RESULT:      -6.4      2.439      5.321
REMARK  Name = 9424604
REMARK  4 active torsions:
REMARK  status: ('A' for Active; 'I' for Inactive)
REMARK    1  A    between atoms: N_5  and  C_14
REMARK    2  A    between atoms: N_8  and  C_21
REMARK    3  A    between atoms: C_25  and  C_26
REMARK    4  A    between atoms: C_27  and  C_28
REMARK                            x       y       z     vdW  Elec       q    Type
REMARK                         _______ _______ _______ _____ _____    ______ ____
ROOT
ATOM      1  O   UNL     1       7.146   9.500   4.464  0.00  0.00    -0.268 OA
ATOM      5  N   UNL     1      11.359   8.011   6.748  0.00  0.00    -0.298 NA
ATOM      6  N   UNL     1       8.657   7.813   5.058  0.00  0.00    -0.310 N 
ATOM      9  C   UNL     1       9.115   7.186   7.501  0.00  0.00    +0.024 C 
ATOM     10  C   UNL     1      10.289   6.011   5.704  0.00  0.00    +0.052 C 
ATOM     11  C   UNL     1       9.408   5.807   6.933  0.00  0.00    +0.017 C 
ATOM     12  C   UNL     1      10.431   7.898   7.879  0.00  0.00    +0.090 C 
ATOM     13  C   UNL     1      11.607   6.703   6.125  0.00  0.00    +0.094 C 
ATOM     15  C   UNL     1       8.293   7.968   6.473  0.00  0.00    +0.130 C 
ATOM     16  C   UNL     1       9.575   6.834   4.633  0.00  0.00    +0.047 A 
ATOM     21  C   UNL     1       9.817   6.671   3.313  0.00  0.00    +0.054 A 
ATOM     22  C   UNL     1       7.970   8.640   4.152  0.00  0.00    +0.252 A 
ATOM     23  C   UNL     1       9.135   7.494   2.343  0.00  0.00    +0.030 A 
ATOM     24  C   UNL     1       8.265   8.436   2.713  0.00  0.00    +0.072 A 
ENDROOT
BRANCH   5  14
ATOM      2  O   UNL     1      14.244  12.157   4.001  0.00  0.00    -0.276 OA
ATOM      7  N   UNL     1      12.880  11.037   5.511  0.00  0.00    -0.302 N 
ATOM     14  C   UNL     1      12.615   8.641   7.161  0.00  0.00    +0.060 C 
ATOM     17  C   UNL     1      12.350  10.049   7.713  0.00  0.00    +0.038 C 
ATOM     18  C   UNL     1      13.589   8.719   5.975  0.00  0.00    +0.038 C 
ATOM     19  C   UNL     1      11.920  11.035   6.625  0.00  0.00    +0.109 C 
ATOM     20  C   UNL     1      13.138   9.724   4.915  0.00  0.00    +0.109 C 
ATOM     25  C   UNL     1      13.485  12.172   4.973  0.00  0.00    +0.212 C 
ATOM     26  C   UNL     1      13.173  13.487   5.643  0.00  0.00    +0.109 C 
ENDBRANCH   5  14
BRANCH  21   8
ATOM      3  O   UNL     1      12.504   7.209   2.659  0.00  0.00    -0.266 OA
ATOM      8  N   UNL     1      10.712   5.767   2.810  0.00  0.00    -0.277 N 
ATOM     27  C   UNL     1      12.034   6.081   2.501  0.00  0.00    +0.284 C 
ATOM     32  H   UNL     1      10.469   4.781   2.839  0.00  0.00    +0.155 HD
BRANCH  27  28
ATOM      4  O   UNL     1      12.198   3.811   1.791  0.00  0.00    -0.458 OA
ATOM     28  C   UNL     1      12.847   4.961   2.000  0.00  0.00    +0.189 A 
ATOM     29  C   UNL     1      14.159   4.907   1.714  0.00  0.00    +0.054 A 
ATOM     30  C   UNL     1      14.373   3.578   1.274  0.00  0.00    +0.042 A 
ATOM     31  C   UNL     1      13.149   2.954   1.339  0.00  0.00    +0.196 A 
ENDBRANCH  27  28
ENDBRANCH  21   8
TORSDOF 3
ENDMDL
MODEL 3
REMARK VINA RESULT:      -6.4      3.056      4.874
REMARK  Name = 9424604
REMARK  4 active torsions:
REMARK  status: ('A' for Active; 'I' for Inactive)
REMARK    1  A    between atoms: N_5  and  C_14
REMARK    2  A    between atoms: N_8  and  C_21
REMARK    3  A    between atoms: C_25  and  C_26
REMARK    4  A    between atoms: C_27  and  C_28
REMARK                            x       y       z     vdW  Elec       q    Type
REMARK                         _______ _______ _______ _____ _____    ______ ____
ROOT
ATOM      1  O   UNL     1       9.066   6.788   8.190  0.00  0.00    -0.268 OA
ATOM      5  N   UNL     1      10.553   9.388   4.163  0.00  0.00    -0.298 NA
ATOM      6  N   UNL     1      10.587   7.158   6.447  0.00  0.00    -0.310 N 
ATOM      9  C   UNL     1      11.940   9.327   6.251  0.00  0.00    +0.024 C 
ATOM     10  C   UNL     1      12.211   7.567   4.572  0.00  0.00    +0.052 C 
ATOM     11  C   UNL     1      12.969   8.443   5.566  0.00  0.00    +0.017 C 
ATOM     12  C   UNL     1      11.200  10.190   5.208  0.00  0.00    +0.090 C 
ATOM     13  C   UNL     1      11.506   8.465   3.529  0.00  0.00    +0.094 C 
ATOM     15  C   UNL     1      10.994   8.431   7.056  0.00  0.00    +0.130 C 
ATOM     16  C   UNL     1      11.195   6.670   5.275  0.00  0.00    +0.047 A 
ATOM     21  C   UNL     1      10.849   5.454   4.798  0.00  0.00    +0.054 A 
ATOM     22  C   UNL     1       9.619   6.420   7.153  0.00  0.00    +0.252 A 
ATOM     23  C   UNL     1       9.862   4.657   5.487  0.00  0.00    +0.030 A 
ATOM     24  C   UNL     1       9.261   5.093   6.595  0.00  0.00    +0.072 A 
ENDROOT
BRANCH   5  14
ATOM      2  O   UNL     1       4.963   9.611   2.839  0.00  0.00    -0.276 OA
ATOM      7  N   UNL     1       7.049  10.114   3.729  0.00  0.00    -0.302 N 
ATOM     14  C   UNL     1       9.911  10.246   3.165  0.00  0.00    +0.060 C 
ATOM     17  C   UNL     1       9.158  11.394   3.853  0.00  0.00    +0.038 C 
ATOM     18  C   UNL     1       8.940   9.428   2.301  0.00  0.00    +0.038 C 
ATOM     19  C   UNL     1       7.916  10.913   4.606  0.00  0.00    +0.109 C 
ATOM     20  C   UNL     1       7.705   8.977   3.080  0.00  0.00    +0.109 C 
ATOM     25  C   UNL     1       5.684  10.328   3.536  0.00  0.00    +0.212 C 
ATOM     26  C   UNL     1       5.081  11.521   4.234  0.00  0.00    +0.109 C 
ENDBRANCH   5  14
BRANCH  21   8
ATOM      3  O   UNL     1       9.793   5.777   2.206  0.00  0.00    -0.266 OA
ATOM      8  N   UNL     1      11.365   4.911   3.653  0.00  0.00    -0.277 N 
ATOM     27  C   UNL     1      10.806   5.100   2.390  0.00  0.00    +0.284 C 
ATOM     32  H   UNL     1      12.300   4.514   3.687  0.00  0.00    +0.155 HD
BRANCH  27  28
ATOM      4  O   UNL     1      10.953   4.553   0.075  0.00  0.00    -0.458 OA
ATOM     28  C   UNL     1      11.527   4.459   1.279  0.00  0.00    +0.189 A 
ATOM     29  C   UNL     1      12.690   3.784   1.278  0.00  0.00    +0.054 A 
ATOM     30  C   UNL     1      12.880   3.404  -0.072  0.00  0.00    +0.042 A 
ATOM     31  C   UNL     1      11.797   3.896  -0.763  0.00  0.00    +0.196 A 
ENDBRANCH  27  28
ENDBRANCH  21   8
TORSDOF 3
ENDMDL
MODEL 4
REMARK VINA RESULT:      -6.3     23.905     28.184
REMARK  Name = 9424604
REMARK  4 active torsions:
REMARK  status: ('A' for Active; 'I' for Inactive)
REMARK    1  A    between atoms: N_5  and  C_14
REMARK    2  A    between atoms: N_8  and  C_21
REMARK    3  A    between atoms: C_25  and  C_26
REMARK    4  A    between atoms: C_27  and  C_28
REMARK                            x       y       z     vdW  Elec       q    Type
REMARK                         _______ _______ _______ _____ _____    ______ ____
ROOT
ATOM      1  O   UNL     1      -5.783 -15.348  16.727  0.00  0.00    -0.268 OA
ATOM      5  N   UNL     1      -6.567 -10.427  17.321  0.00  0.00    -0.298 NA
ATOM      6  N   UNL     1      -5.188 -13.122  16.307  0.00  0.00    -0.310 N 
ATOM      9  C   UNL     1      -4.480 -11.520  18.179  0.00  0.00    +0.024 C 
ATOM     10  C   UNL     1      -4.561 -10.727  15.865  0.00  0.00    +0.052 C 
ATOM     11  C   UNL     1      -3.658 -10.853  17.089  0.00  0.00    +0.017 C 
ATOM     12  C   UNL     1      -5.728 -10.672  18.500  0.00  0.00    +0.090 C 
ATOM     13  C   UNL     1      -5.785  -9.850  16.218  0.00  0.00    +0.094 C 
ATOM     15  C   UNL     1      -4.831 -12.938  17.720  0.00  0.00    +0.130 C 
ATOM     16  C   UNL     1      -5.015 -12.095  15.360  0.00  0.00    +0.047 A 
ATOM     21  C   UNL     1      -5.277 -12.336  14.056  0.00  0.00    +0.054 A 
ATOM     22  C   UNL     1      -5.629 -14.409  15.946  0.00  0.00    +0.252 A 
ATOM     23  C   UNL     1      -5.730 -13.640  13.635  0.00  0.00    +0.030 A 
ATOM     24  C   UNL     1      -5.912 -14.633  14.508  0.00  0.00    +0.072 A 
ENDROOT
BRANCH   5  14
ATOM      2  O   UNL     1     -11.967 -10.919  15.410  0.00  0.00    -0.276 OA
ATOM      7  N   UNL     1     -10.077 -11.026  16.756  0.00  0.00    -0.302 N 
ATOM     14  C   UNL     1      -7.708  -9.573  17.658  0.00  0.00    +0.060 C 
ATOM     17  C   UNL     1      -8.647 -10.297  18.634  0.00  0.00    +0.038 C 
ATOM     18  C   UNL     1      -8.477  -9.183  16.386  0.00  0.00    +0.038 C 
ATOM     19  C   UNL     1      -9.389 -11.463  17.980  0.00  0.00    +0.109 C 
ATOM     20  C   UNL     1      -9.220 -10.368  15.767  0.00  0.00    +0.109 C 
ATOM     25  C   UNL     1     -11.423 -11.245  16.468  0.00  0.00    +0.212 C 
ATOM     26  C   UNL     1     -12.242 -11.924  17.537  0.00  0.00    +0.109 C 
ENDBRANCH   5  14
BRANCH  21   8
ATOM      3  O   UNL     1      -2.976 -11.844  12.507  0.00  0.00    -0.266 OA
ATOM      8  N   UNL     1      -5.165 -11.393  13.071  0.00  0.00    -0.277 N 
ATOM     27  C   UNL     1      -4.003 -11.186  12.331  0.00  0.00    +0.284 C 
ATOM     32  H   UNL     1      -6.014 -10.952  12.727  0.00  0.00    +0.155 HD
BRANCH  27  28
ATOM      4  O   UNL     1      -5.076  -9.252  11.444  0.00  0.00    -0.458 OA
ATOM     28  C   UNL     1      -4.092 -10.145  11.295  0.00  0.00    +0.189 A 
ATOM     29  C   UNL     1      -3.332  -9.942  10.205  0.00  0.00    +0.054 A 
ATOM     30  C   UNL     1      -3.890  -8.796   9.590  0.00  0.00    +0.042 A 
ATOM     31  C   UNL     1      -4.947  -8.414  10.382  0.00  0.00    +0.196 A 
ENDBRANCH  27  28
ENDBRANCH  21   8
TORSDOF 3
ENDMDL
MODEL 5
REMARK VINA RESULT:      -6.3      3.520      6.461
REMARK  Name = 9424604
REMARK  4 active torsions:
REMARK  status: ('A' for Active; 'I' for Inactive)
REMARK    1  A    between atoms: N_5  and  C_14
REMARK    2  A    between atoms: N_8  and  C_21
REMARK    3  A    between atoms: C_25  and  C_26
REMARK    4  A    between atoms: C_27  and  C_28
REMARK                            x       y       z     vdW  Elec       q    Type
REMARK                         _______ _______ _______ _____ _____    ______ ____
ROOT
ATOM      1  O   UNL     1      11.200   5.631   8.231  0.00  0.00    -0.268 OA
ATOM      5  N   UNL     1      11.730  10.214   6.258  0.00  0.00    -0.298 NA
ATOM      6  N   UNL     1      11.255   7.060   6.376  0.00  0.00    -0.310 N 
ATOM      9  C   UNL     1      13.356   8.380   5.730  0.00  0.00    +0.024 C 
ATOM     10  C   UNL     1      11.318   8.606   4.394  0.00  0.00    +0.052 C 
ATOM     11  C   UNL     1      12.805   8.270   4.318  0.00  0.00    +0.017 C 
ATOM     12  C   UNL     1      13.140   9.807   6.277  0.00  0.00    +0.090 C 
ATOM     13  C   UNL     1      11.143  10.049   4.920  0.00  0.00    +0.094 C 
ATOM     15  C   UNL     1      12.687   7.308   6.595  0.00  0.00    +0.130 C 
ATOM     16  C   UNL     1      10.565   7.620   5.285  0.00  0.00    +0.047 A 
ATOM     21  C   UNL     1       9.269   7.296   5.075  0.00  0.00    +0.054 A 
ATOM     22  C   UNL     1      10.643   6.163   7.271  0.00  0.00    +0.252 A 
ATOM     23  C   UNL     1       8.596   6.380   5.963  0.00  0.00    +0.030 A 
ATOM     24  C   UNL     1       9.219   5.838   7.011  0.00  0.00    +0.072 A 
ENDROOT
BRANCH   5  14
ATOM      2  O   UNL     1       8.147  12.117  10.332  0.00  0.00    -0.276 OA
ATOM      7  N   UNL     1      10.061  11.409   9.221  0.00  0.00    -0.302 N 
ATOM     14  C   UNL     1      11.576  11.592   6.731  0.00  0.00    +0.060 C 
ATOM     17  C   UNL     1      12.237  11.761   8.107  0.00  0.00    +0.038 C 
ATOM     18  C   UNL     1      10.088  11.964   6.817  0.00  0.00    +0.038 C 
ATOM     19  C   UNL     1      11.480  11.028   9.216  0.00  0.00    +0.109 C 
ATOM     20  C   UNL     1       9.366  11.226   7.945  0.00  0.00    +0.109 C 
ATOM     25  C   UNL     1       9.353  11.856  10.336  0.00  0.00    +0.212 C 
ATOM     26  C   UNL     1      10.137  12.023  11.614  0.00  0.00    +0.109 C 
ENDBRANCH   5  14
BRANCH  21   8
ATOM      3  O   UNL     1       7.617   9.572   5.249  0.00  0.00    -0.266 OA
ATOM      8  N   UNL     1       8.512   7.812   4.059  0.00  0.00    -0.277 N 
ATOM     27  C   UNL     1       7.709   8.943   4.194  0.00  0.00    +0.284 C 
ATOM     32  H   UNL     1       8.683   7.481   3.114  0.00  0.00    +0.155 HD
BRANCH  27  28
ATOM      4  O   UNL     1       5.744   9.796   3.149  0.00  0.00    -0.458 OA
ATOM     28  C   UNL     1       6.996   9.358   2.976  0.00  0.00    +0.189 A 
ATOM     29  C   UNL     1       7.405   9.370   1.695  0.00  0.00    +0.054 A 
ATOM     30  C   UNL     1       6.296   9.868   0.971  0.00  0.00    +0.042 A 
ATOM     31  C   UNL     1       5.312  10.112   1.900  0.00  0.00    +0.196 A 
ENDBRANCH  27  28
ENDBRANCH  21   8
TORSDOF 3
ENDMDL
MODEL 6
REMARK VINA RESULT:      -6.2      3.532      7.532
REMARK  Name = 9424604
REMARK  4 active torsions:
REMARK  status: ('A' for Active; 'I' for Inactive)
REMARK    1  A    between atoms: N_5  and  C_14
REMARK    2  A    between atoms: N_8  and  C_21
REMARK    3  A    between atoms: C_25  and  C_26
REMARK    4  A    between atoms: C_27  and  C_28
REMARK                            x       y       z     vdW  Elec       q    Type
REMARK                         _______ _______ _______ _____ _____    ______ ____
ROOT
ATOM      1  O   UNL     1      15.770   8.157  -0.508  0.00  0.00    -0.268 OA
ATOM      5  N   UNL     1      12.552   4.344   0.028  0.00  0.00    -0.298 NA
ATOM      6  N   UNL     1      14.900   6.383   0.750  0.00  0.00    -0.310 N 
ATOM      9  C   UNL     1      15.027   3.950  -0.049  0.00  0.00    +0.024 C 
ATOM     10  C   UNL     1      13.956   4.475   2.089  0.00  0.00    +0.052 C 
ATOM     11  C   UNL     1      15.042   3.625   1.435  0.00  0.00    +0.017 C 
ATOM     12  C   UNL     1      13.642   3.633  -0.650  0.00  0.00    +0.090 C 
ATOM     13  C   UNL     1      12.582   4.111   1.480  0.00  0.00    +0.094 C 
ATOM     15  C   UNL     1      15.426   5.418  -0.225  0.00  0.00    +0.130 C 
ATOM     16  C   UNL     1      14.235   5.967   1.918  0.00  0.00    +0.047 A 
ATOM     21  C   UNL     1      13.842   6.887   2.828  0.00  0.00    +0.054 A 
ATOM     22  C   UNL     1      15.179   7.737   0.487  0.00  0.00    +0.252 A 
ATOM     23  C   UNL     1      14.106   8.288   2.606  0.00  0.00    +0.030 A 
ATOM     24  C   UNL     1      14.728   8.716   1.505  0.00  0.00    +0.072 A 
ENDROOT
BRANCH   5  14
ATOM      2  O   UNL     1       8.352   7.883  -1.671  0.00  0.00    -0.276 OA
ATOM      7  N   UNL     1      10.158   6.423  -1.687  0.00  0.00    -0.302 N 
ATOM     14  C   UNL     1      11.253   3.972  -0.535  0.00  0.00    +0.060 C 
ATOM     17  C   UNL     1      11.234   4.229  -2.049  0.00  0.00    +0.038 C 
ATOM     18  C   UNL     1      10.128   4.769   0.143  0.00  0.00    +0.038 C 
ATOM     19  C   UNL     1      11.240   5.719  -2.392  0.00  0.00    +0.109 C 
ATOM     20  C   UNL     1      10.153   6.250  -0.233  0.00  0.00    +0.109 C 
ATOM     25  C   UNL     1       9.217   7.258  -2.289  0.00  0.00    +0.212 C 
ATOM     26  C   UNL     1       9.283   7.382  -3.790  0.00  0.00    +0.109 C 
ENDBRANCH   5  14
BRANCH  21   8
ATOM      3  O   UNL     1      11.042   6.902   3.141  0.00  0.00    -0.266 OA
ATOM      8  N   UNL     1      13.166   6.578   3.977  0.00  0.00    -0.277 N 
ATOM     27  C   UNL     1      11.777   6.600   4.083  0.00  0.00    +0.284 C 
ATOM     32  H   UNL     1      13.677   6.129   4.731  0.00  0.00    +0.155 HD
BRANCH  27  28
ATOM      4  O   UNL     1      11.904   6.658   6.462  0.00  0.00    -0.458 OA
ATOM     28  C   UNL     1      11.238   6.206   5.394  0.00  0.00    +0.189 A 
ATOM     29  C   UNL     1      10.167   5.453   5.698  0.00  0.00    +0.054 A 
ATOM     30  C   UNL     1      10.145   5.419   7.112  0.00  0.00    +0.042 A 
ATOM     31  C   UNL     1      11.221   6.167   7.529  0.00  0.00    +0.196 A 
ENDBRANCH  27  28
ENDBRANCH  21   8
TORSDOF 3
ENDMDL
MODEL 7
REMARK VINA RESULT:      -6.0     23.724     28.509
REMARK  Name = 9424604
REMARK  4 active torsions:
REMARK  status: ('A' for Active; 'I' for Inactive)
REMARK    1  A    between atoms: N_5  and  C_14
REMARK    2  A    between atoms: N_8  and  C_21
REMARK    3  A    between atoms: C_25  and  C_26
REMARK    4  A    between atoms: C_27  and  C_28
REMARK                            x       y       z     vdW  Elec       q    Type
REMARK                         _______ _______ _______ _____ _____    ______ ____
ROOT
ATOM      1  O   UNL     1      -1.603 -11.730  15.186  0.00  0.00    -0.268 OA
ATOM      5  N   UNL     1      -5.966 -12.827  12.962  0.00  0.00    -0.298 NA
ATOM      6  N   UNL     1      -3.814 -12.495  15.297  0.00  0.00    -0.310 N 
ATOM      9  C   UNL     1      -4.592 -14.608  14.071  0.00  0.00    +0.024 C 
ATOM     10  C   UNL     1      -6.189 -13.315  15.400  0.00  0.00    +0.052 C 
ATOM     11  C   UNL     1      -5.600 -14.709  15.203  0.00  0.00    +0.017 C 
ATOM     12  C   UNL     1      -5.285 -14.115  12.783  0.00  0.00    +0.090 C 
ATOM     13  C   UNL     1      -6.896 -12.867  14.100  0.00  0.00    +0.094 C 
ATOM     15  C   UNL     1      -3.453 -13.688  14.519  0.00  0.00    +0.130 C 
ATOM     16  C   UNL     1      -5.115 -12.304  15.797  0.00  0.00    +0.047 A 
ATOM     21  C   UNL     1      -5.381 -11.234  16.580  0.00  0.00    +0.054 A 
ATOM     22  C   UNL     1      -2.762 -11.605  15.582  0.00  0.00    +0.252 A 
ATOM     23  C   UNL     1      -4.336 -10.293  16.903  0.00  0.00    +0.030 A 
ATOM     24  C   UNL     1      -3.094 -10.441  16.438  0.00  0.00    +0.072 A 
ENDROOT
BRANCH   5  14
ATOM      2  O   UNL     1      -5.523  -7.799  10.209  0.00  0.00    -0.276 OA
ATOM      7  N   UNL     1      -5.267 -10.033  10.794  0.00  0.00    -0.302 N 
ATOM     14  C   UNL     1      -6.656 -12.424  11.735  0.00  0.00    +0.060 C 
ATOM     17  C   UNL     1      -5.688 -12.454  10.543  0.00  0.00    +0.038 C 
ATOM     18  C   UNL     1      -7.247 -11.014  11.892  0.00  0.00    +0.038 C 
ATOM     19  C   UNL     1      -4.634 -11.347  10.615  0.00  0.00    +0.109 C 
ATOM     20  C   UNL     1      -6.169  -9.933  11.944  0.00  0.00    +0.109 C 
ATOM     25  C   UNL     1      -5.023  -8.909  10.006  0.00  0.00    +0.212 C 
ATOM     26  C   UNL     1      -4.087  -9.091   8.838  0.00  0.00    +0.109 C 
ENDBRANCH   5  14
BRANCH  21   8
ATOM      3  O   UNL     1      -6.342 -12.028  19.107  0.00  0.00    -0.266 OA
ATOM      8  N   UNL     1      -6.620 -10.952  17.087  0.00  0.00    -0.277 N 
ATOM     27  C   UNL     1      -7.051 -11.367  18.345  0.00  0.00    +0.284 C 
ATOM     32  H   UNL     1      -7.186 -10.251  16.616  0.00  0.00    +0.155 HD
BRANCH  27  28
ATOM      4  O   UNL     1      -8.756 -11.145  19.996  0.00  0.00    -0.458 OA
ATOM     28  C   UNL     1      -8.407 -10.937  18.722  0.00  0.00    +0.189 A 
ATOM     29  C   UNL     1      -9.367 -10.359  17.980  0.00  0.00    +0.054 A 
ATOM     30  C   UNL     1     -10.448 -10.178  18.876  0.00  0.00    +0.042 A 
ATOM     31  C   UNL     1     -10.026 -10.671  20.088  0.00  0.00    +0.196 A 
ENDBRANCH  27  28
ENDBRANCH  21   8
TORSDOF 3
ENDMDL
MODEL 8
REMARK VINA RESULT:      -6.0     25.208     29.570
REMARK  Name = 9424604
REMARK  4 active torsions:
REMARK  status: ('A' for Active; 'I' for Inactive)
REMARK    1  A    between atoms: N_5  and  C_14
REMARK    2  A    between atoms: N_8  and  C_21
REMARK    3  A    between atoms: C_25  and  C_26
REMARK    4  A    between atoms: C_27  and  C_28
REMARK                            x       y       z     vdW  Elec       q    Type
REMARK                         _______ _______ _______ _____ _____    ______ ____
ROOT
ATOM      1  O   UNL     1      -9.757 -12.166  20.101  0.00  0.00    -0.268 OA
ATOM      5  N   UNL     1      -9.332 -10.628  15.344  0.00  0.00    -0.298 NA
ATOM      6  N   UNL     1      -8.767 -10.795  18.481  0.00  0.00    -0.310 N 
ATOM      9  C   UNL     1     -10.111  -9.068  17.145  0.00  0.00    +0.024 C 
ATOM     10  C   UNL     1      -7.713  -9.329  16.731  0.00  0.00    +0.052 C 
ATOM     11  C   UNL     1      -8.794  -8.313  17.089  0.00  0.00    +0.017 C 
ATOM     12  C   UNL     1     -10.406  -9.729  15.782  0.00  0.00    +0.090 C 
ATOM     13  C   UNL     1      -8.028  -9.949  15.350  0.00  0.00    +0.094 C 
ATOM     15  C   UNL     1     -10.038 -10.083  18.290  0.00  0.00    +0.130 C 
ATOM     16  C   UNL     1      -7.599 -10.422  17.791  0.00  0.00    +0.047 A 
ATOM     21  C   UNL     1      -6.432 -11.051  18.061  0.00  0.00    +0.054 A 
ATOM     22  C   UNL     1      -8.771 -11.809  19.456  0.00  0.00    +0.252 A 
ATOM     23  C   UNL     1      -6.384 -12.097  19.053  0.00  0.00    +0.030 A 
ATOM     24  C   UNL     1      -7.475 -12.480  19.720  0.00  0.00    +0.072 A 
ENDROOT
BRANCH   5  14
ATOM      2  O   UNL     1      -8.914 -16.129  13.725  0.00  0.00    -0.276 OA
ATOM      7  N   UNL     1      -9.773 -14.081  14.405  0.00  0.00    -0.302 N 
ATOM     14  C   UNL     1      -9.625 -11.189  14.023  0.00  0.00    +0.060 C 
ATOM     17  C   UNL     1     -10.961 -11.945  14.048  0.00  0.00    +0.038 C 
ATOM     18  C   UNL     1      -8.498 -12.135  13.582  0.00  0.00    +0.038 C 
ATOM     19  C   UNL     1     -10.889 -13.239  14.860  0.00  0.00    +0.109 C 
ATOM     20  C   UNL     1      -8.464 -13.424  14.403  0.00  0.00    +0.109 C 
ATOM     25  C   UNL     1      -9.873 -15.426  14.051  0.00  0.00    +0.212 C 
ATOM     26  C   UNL     1     -11.254 -16.030  14.073  0.00  0.00    +0.109 C 
ENDBRANCH   5  14
BRANCH  21   8
ATOM      3  O   UNL     1      -5.364 -12.498  15.892  0.00  0.00    -0.266 OA
ATOM      8  N   UNL     1      -5.255 -10.776  17.421  0.00  0.00    -0.277 N 
ATOM     27  C   UNL     1      -4.767 -11.522  16.350  0.00  0.00    +0.284 C 
ATOM     32  H   UNL     1      -4.807  -9.881  17.599  0.00  0.00    +0.155 HD
BRANCH  27  28
ATOM      4  O   UNL     1      -2.464 -10.969  16.623  0.00  0.00    -0.458 OA
ATOM     28  C   UNL     1      -3.497 -11.047  15.777  0.00  0.00    +0.189 A 
ATOM     29  C   UNL     1      -3.203 -10.672  14.520  0.00  0.00    +0.054 A 
ATOM     30  C   UNL     1      -1.834 -10.316  14.566  0.00  0.00    +0.042 A 
ATOM     31  C   UNL     1      -1.431 -10.515  15.866  0.00  0.00    +0.196 A 
ENDBRANCH  27  28
ENDBRANCH  21   8
TORSDOF 3
ENDMDL
MODEL 9
REMARK VINA RESULT:      -5.9      3.492      7.969
REMARK  Name = 9424604
REMARK  4 active torsions:
REMARK  status: ('A' for Active; 'I' for Inactive)
REMARK    1  A    between atoms: N_5  and  C_14
REMARK    2  A    between atoms: N_8  and  C_21
REMARK    3  A    between atoms: C_25  and  C_26
REMARK    4  A    between atoms: C_27  and  C_28
REMARK                            x       y       z     vdW  Elec       q    Type
REMARK                         _______ _______ _______ _____ _____    ______ ____
ROOT
ATOM      1  O   UNL     1      13.801   7.720   6.704  0.00  0.00    -0.268 OA
ATOM      5  N   UNL     1       9.007   7.481   5.242  0.00  0.00    -0.298 NA
ATOM      6  N   UNL     1      11.517   7.980   7.150  0.00  0.00    -0.310 N 
ATOM      9  C   UNL     1       9.878   6.010   7.075  0.00  0.00    +0.024 C 
ATOM     10  C   UNL     1       9.061   8.253   7.616  0.00  0.00    +0.052 C 
ATOM     11  C   UNL     1       9.107   6.810   8.112  0.00  0.00    +0.017 C 
ATOM     12  C   UNL     1       9.177   6.099   5.703  0.00  0.00    +0.090 C 
ATOM     13  C   UNL     1       8.330   8.305   6.254  0.00  0.00    +0.094 C 
ATOM     15  C   UNL     1      11.318   6.528   7.038  0.00  0.00    +0.130 C 
ATOM     16  C   UNL     1      10.462   8.847   7.490  0.00  0.00    +0.047 A 
ATOM     21  C   UNL     1      10.709  10.165   7.665  0.00  0.00    +0.054 A 
ATOM     22  C   UNL     1      12.838   8.434   6.984  0.00  0.00    +0.252 A 
ATOM     23  C   UNL     1      12.048  10.680   7.508  0.00  0.00    +0.030 A 
ATOM     24  C   UNL     1      13.068   9.886   7.179  0.00  0.00    +0.072 A 
ENDROOT
BRANCH   5  14
ATOM      2  O   UNL     1       9.518  11.422   1.087  0.00  0.00    -0.276 OA
ATOM      7  N   UNL     1       9.721   9.461   2.315  0.00  0.00    -0.302 N 
ATOM     14  C   UNL     1       8.289   7.523   3.966  0.00  0.00    +0.060 C 
ATOM     17  C   UNL     1       9.215   7.096   2.818  0.00  0.00    +0.038 C 
ATOM     18  C   UNL     1       7.749   8.938   3.703  0.00  0.00    +0.038 C 
ATOM     19  C   UNL     1      10.305   8.129   2.527  0.00  0.00    +0.109 C 
ATOM     20  C   UNL     1       8.863   9.940   3.401  0.00  0.00    +0.109 C 
ATOM     25  C   UNL     1       9.974  10.284   1.218  0.00  0.00    +0.212 C 
ATOM     26  C   UNL     1      10.864   9.720   0.139  0.00  0.00    +0.109 C 
ENDBRANCH   5  14
BRANCH  21   8
ATOM      3  O   UNL     1      10.141  11.165  10.237  0.00  0.00    -0.266 OA
ATOM      8  N   UNL     1       9.743  11.085   7.967  0.00  0.00    -0.277 N 
ATOM     27  C   UNL     1       9.499  11.550   9.258  0.00  0.00    +0.284 C 
ATOM     32  H   UNL     1       9.311  11.599   7.204  0.00  0.00    +0.155 HD
BRANCH  27  28
ATOM      4  O   UNL     1       7.822  12.636  10.557  0.00  0.00    -0.458 OA
ATOM     28  C   UNL     1       8.438  12.563   9.373  0.00  0.00    +0.189 A 
ATOM     29  C   UNL     1       7.980  13.442   8.465  0.00  0.00    +0.054 A 
ATOM     30  C   UNL     1       6.960  14.154   9.141  0.00  0.00    +0.042 A 
ATOM     31  C   UNL     1       6.904  13.626  10.410  0.00  0.00    +0.196 A 
ENDBRANCH  27  28
ENDBRANCH  21   8
TORSDOF 3
ENDMDL
MODEL 10
REMARK VINA RESULT:      -5.8      2.874      5.118
REMARK  Name = 9424604
REMARK  4 active torsions:
REMARK  status: ('A' for Active; 'I' for Inactive)
REMARK    1  A    between atoms: N_5  and  C_14
REMARK    2  A    between atoms: N_8  and  C_21
REMARK    3  A    between atoms: C_25  and  C_26
REMARK    4  A    between atoms: C_27  and  C_28
REMARK                            x       y       z     vdW  Elec       q    Type
REMARK                         _______ _______ _______ _____ _____    ______ ____
ROOT
ATOM      1  O   UNL     1      10.701   6.121   8.350  0.00  0.00    -0.268 OA
ATOM      5  N   UNL     1      12.417   9.443   5.003  0.00  0.00    -0.298 NA
ATOM      6  N   UNL     1      11.783   6.610   6.332  0.00  0.00    -0.310 N 
ATOM      9  C   UNL     1      13.981   7.926   6.243  0.00  0.00    +0.024 C 
ATOM     10  C   UNL     1      12.943   7.150   4.167  0.00  0.00    +0.052 C 
ATOM     11  C   UNL     1      14.235   7.121   4.980  0.00  0.00    +0.017 C 
ATOM     12  C   UNL     1      13.589   9.375   5.883  0.00  0.00    +0.090 C 
ATOM     13  C   UNL     1      12.598   8.613   3.803  0.00  0.00    +0.094 C 
ATOM     15  C   UNL     1      12.906   7.210   7.065  0.00  0.00    +0.130 C 
ATOM     16  C   UNL     1      11.788   6.504   4.928  0.00  0.00    +0.047 A 
ATOM     21  C   UNL     1      10.772   5.869   4.302  0.00  0.00    +0.054 A 
ATOM     22  C   UNL     1      10.750   6.073   7.121  0.00  0.00    +0.252 A 
ATOM     23  C   UNL     1       9.689   5.299   5.066  0.00  0.00    +0.030 A 
ATOM     24  C   UNL     1       9.651   5.389   6.397  0.00  0.00    +0.072 A 
ENDROOT
BRANCH   5  14
ATOM      2  O   UNL     1       7.348  12.123   5.427  0.00  0.00    -0.276 OA
ATOM      7  N   UNL     1       9.519  11.414   5.850  0.00  0.00    -0.302 N 
ATOM     14  C   UNL     1      12.113  10.829   4.641  0.00  0.00    +0.060 C 
ATOM     17  C   UNL     1      11.973  11.693   5.903  0.00  0.00    +0.038 C 
ATOM     18  C   UNL     1      10.818  10.895   3.817  0.00  0.00    +0.038 C 
ATOM     19  C   UNL     1      10.714  11.361   6.705  0.00  0.00    +0.109 C 
ATOM     20  C   UNL     1       9.579  10.574   4.652  0.00  0.00    +0.109 C 
ATOM     25  C   UNL     1       8.361  12.137   6.131  0.00  0.00    +0.212 C 
ATOM     26  C   UNL     1       8.377  12.983   7.379  0.00  0.00    +0.109 C 
ENDBRANCH   5  14
BRANCH  21   8
ATOM      3  O   UNL     1      11.381   3.551   2.821  0.00  0.00    -0.266 OA
ATOM      8  N   UNL     1      10.678   5.743   2.943  0.00  0.00    -0.277 N 
ATOM     27  C   UNL     1      10.991   4.573   2.253  0.00  0.00    +0.284 C 
ATOM     32  H   UNL     1      10.178   6.461   2.425  0.00  0.00    +0.155 HD
BRANCH  27  28
ATOM      4  O   UNL     1      11.599   3.848   0.066  0.00  0.00    -0.458 OA
ATOM     28  C   UNL     1      10.795   4.628   0.796  0.00  0.00    +0.189 A 
ATOM     29  C   UNL     1       9.923   5.346   0.068  0.00  0.00    +0.054 A 
ATOM     30  C   UNL     1      10.199   4.988  -1.273  0.00  0.00    +0.042 A 
ATOM     31  C   UNL     1      11.226   4.075  -1.220  0.00  0.00    +0.196 A 
ENDBRANCH  27  28
ENDBRANCH  21   8
TORSDOF 3
ENDMDL
